1
  Mrv1532301301811342D          

 16 17  0  0  0  0            999 V2000
   -0.1708   -0.6991    0.0000 O   0  0  0  0  0  0  0  0  0  0  0  0
    0.6542   -0.6991    0.0000 C   0  0  0  0  0  0  0  0  0  0  0  0
    1.1391   -0.0316    0.0000 C   0  0  0  0  0  0  0  0  0  0  0  0
    1.9237   -0.2866    0.0000 C   0  0  0  0  0  0  0  0  0  0  0  0
    2.6382    0.1259    0.0000 C   0  0  0  0  0  0  0  0  0  0  0  0
    3.3526   -0.2866    0.0000 C   0  0  0  0  0  0  0  0  0  0  0  0
    3.3526   -1.1116    0.0000 C   0  0  0  0  0  0  0  0  0  0  0  0
    2.6382   -1.5241    0.0000 C   0  0  0  0  0  0  0  0  0  0  0  0
    1.9237   -1.1116    0.0000 C   0  0  0  0  0  0  0  0  0  0  0  0
    1.1391   -1.3665    0.0000 O   0  0  0  0  0  0  0  0  0  0  0  0
    1.2823    0.7808    0.0000 H   0  0  0  0  0  0  0  0  0  0  0  0
    0.5456    0.5415    0.0000 H   0  0  0  0  0  0  0  0  0  0  0  0
    2.6382    0.9509    0.0000 H   0  0  0  0  0  0  0  0  0  0  0  0
    4.0671    0.1259    0.0000 H   0  0  0  0  0  0  0  0  0  0  0  0
    4.0671   -1.5241    0.0000 H   0  0  0  0  0  0  0  0  0  0  0  0
    2.6382   -2.3491    0.0000 H   0  0  0  0  0  0  0  0  0  0  0  0
  1  2  2  0  0  0  0
  2  3  1  0  0  0  0
  3  4  1  0  0  0  0
  4  5  4  0  0  0  0
  5  6  4  0  0  0  0
  6  7  4  0  0  0  0
  7  8  4  0  0  0  0
  8  9  4  0  0  0  0
  4  9  4  0  0  0  0
  9 10  1  0  0  0  0
  2 10  1  0  0  0  0
  3 11  1  0  0  0  0
  3 12  1  0  0  0  0
  5 13  1  0  0  0  0
  6 14  1  0  0  0  0
  7 15  1  0  0  0  0
  8 16  1  0  0  0  0
M  END
>  <InChIKey>
ACZGCWSMSTYWDQ-UHFFFAOYSA-N

>  <UN GHS>
2A

>  <CASRN>
553-86-6

> <Outcome>
1

>  <Index>
1

>  <StandardizerResult>
Dearomatize (ID: Dearomatize)
Clear Stereo (ID: ClearStereo)
Wedge Clean (ID: WedgeClean)
Mesomerize (ID: Mesomerize)
Tautomerize (ID: Tautomerize)
Aromatize (ID: Aromatize)
Add Explicit Hydrogens (ID: AddExplicitH)
Neutralize (ID: Neutralize)
Clean 2D (ID: Clean2D)

> <knn Distance>


> <CpId>
1

$$$$
3
  Mrv1532301301811342D          

  9  8  0  0  0  0            999 V2000
    0.8230    1.4289    0.0000 O   0  0  0  0  0  0  0  0  0  0  0  0
    1.2355    0.7145    0.0000 C   0  0  0  0  0  0  0  0  0  0  0  0
    0.8230    0.0000    0.0000 C   0  0  0  0  0  0  0  0  0  0  0  0
    1.2355   -0.7145    0.0000 O   0  0  0  0  0  0  0  0  0  0  0  0
   -0.0020    0.0000    0.0000 O   0  0  0  0  0  0  0  0  0  0  0  0
    1.2355    2.1434    0.0000 H   0  0  0  0  0  0  0  0  0  0  0  0
    1.9728    0.3442    0.0000 H   0  0  0  0  0  0  0  0  0  0  0  0
    1.9728    1.0847    0.0000 H   0  0  0  0  0  0  0  0  0  0  0  0
    0.8230   -1.4289    0.0000 H   0  0  0  0  0  0  0  0  0  0  0  0
  1  2  1  0  0  0  0
  2  3  1  0  0  0  0
  3  4  1  0  0  0  0
  3  5  2  0  0  0  0
  1  6  1  0  0  0  0
  2  7  1  0  0  0  0
  2  8  1  0  0  0  0
  4  9  1  0  0  0  0
M  END
>  <InChIKey>
AEMRFAOFKBGASW-UHFFFAOYSA-N

>  <UN GHS>
2A

>  <CASRN>
79-14-1

> <Outcome>
1

>  <Index>
3

>  <StandardizerResult>
Clear Stereo (ID: ClearStereo)
Wedge Clean (ID: WedgeClean)
Mesomerize (ID: Mesomerize)
Tautomerize (ID: Tautomerize)
Add Explicit Hydrogens (ID: AddExplicitH)
Neutralize (ID: Neutralize)
Clean 2D (ID: Clean2D)

> <knn Distance>


> <CpId>
3

$$$$
6
  Mrv1532301301811342D          

 27 26  0  0  0  0            999 V2000
    4.2088   -2.9520    0.0000 C   0  0  0  0  0  0  0  0  0  0  0  0
    3.7963   -2.2375    0.0000 N   0  3  0  0  0  0  0  0  0  0  0  0
    4.5107   -1.8250    0.0000 C   0  0  0  0  0  0  0  0  0  0  0  0
    3.0818   -2.6500    0.0000 C   0  0  0  0  0  0  0  0  0  0  0  0
    3.3838   -1.5230    0.0000 C   0  0  0  0  0  0  0  0  0  0  0  0
    2.5588   -1.5230    0.0000 C   0  0  0  0  0  0  0  0  0  0  0  0
    2.1463   -0.8086    0.0000 O   0  0  0  0  0  0  0  0  0  0  0  0
    1.3213   -0.8086    0.0000 C   0  0  0  0  0  0  0  0  0  0  0  0
    0.9088   -1.5230    0.0000 O   0  0  0  0  0  0  0  0  0  0  0  0
    0.9088   -0.0941    0.0000 C   0  0  0  0  0  0  0  0  0  0  0  0
    0.0838   -0.0941    0.0000 C   0  0  0  0  0  0  0  0  0  0  0  0
    3.4943   -3.3645    0.0000 H   0  0  0  0  0  0  0  0  0  0  0  0
    4.6213   -3.6665    0.0000 H   0  0  0  0  0  0  0  0  0  0  0  0
    4.9232   -2.5395    0.0000 H   0  0  0  0  0  0  0  0  0  0  0  0
    5.3287   -1.7173    0.0000 H   0  0  0  0  0  0  0  0  0  0  0  0
    4.7243   -1.0281    0.0000 H   0  0  0  0  0  0  0  0  0  0  0  0
    3.8562   -1.3228    0.0000 H   0  0  0  0  0  0  0  0  0  0  0  0
    2.9741   -1.8321    0.0000 H   0  0  0  0  0  0  0  0  0  0  0  0
    2.2849   -2.4365    0.0000 H   0  0  0  0  0  0  0  0  0  0  0  0
    2.5796   -3.3045    0.0000 H   0  0  0  0  0  0  0  0  0  0  0  0
    3.5929   -0.7250    0.0000 H   0  0  0  0  0  0  0  0  0  0  0  0
    2.8797   -0.8699    0.0000 H   0  0  0  0  0  0  0  0  0  0  0  0
    1.7640   -1.3017    0.0000 H   0  0  0  0  0  0  0  0  0  0  0  0
    1.8363   -1.9214    0.0000 H   0  0  0  0  0  0  0  0  0  0  0  0
    1.3213    0.6204    0.0000 H   0  0  0  0  0  0  0  0  0  0  0  0
   -0.3287    0.6204    0.0000 H   0  0  0  0  0  0  0  0  0  0  0  0
   -0.3287   -0.8086    0.0000 H   0  0  0  0  0  0  0  0  0  0  0  0
  1  2  1  0  0  0  0
  2  3  1  0  0  0  0
  2  4  1  0  0  0  0
  2  5  1  0  0  0  0
  5  6  1  0  0  0  0
  6  7  1  0  0  0  0
  7  8  1  0  0  0  0
  8  9  2  0  0  0  0
  8 10  1  0  0  0  0
 10 11  2  0  0  0  0
  1 12  1  0  0  0  0
  1 13  1  0  0  0  0
  1 14  1  0  0  0  0
  3 15  1  0  0  0  0
  3 16  1  0  0  0  0
  3 17  1  0  0  0  0
  4 18  1  0  0  0  0
  4 19  1  0  0  0  0
  4 20  1  0  0  0  0
  5 21  1  0  0  0  0
  5 22  1  0  0  0  0
  6 23  1  0  0  0  0
  6 24  1  0  0  0  0
 10 25  1  0  0  0  0
 11 26  1  0  0  0  0
 11 27  1  0  0  0  0
M  CHG  1   2   1
M  END
>  <InChIKey>
AIUAMYPYEUQVEM-UHFFFAOYSA-N

>  <UN GHS>
2B

>  <CASRN>
44992-01-0

> <Outcome>
1

>  <Index>
6

>  <StandardizerResult>
Clear Stereo (ID: ClearStereo)
Wedge Clean (ID: WedgeClean)
Mesomerize (ID: Mesomerize)
Tautomerize (ID: Tautomerize)
Add Explicit Hydrogens (ID: AddExplicitH)
Clean 2D (ID: Clean2D)

> <knn Distance>


> <CpId>
6

$$$$
8
  Mrv1532301301811342D          

 27 27  0  0  0  0            999 V2000
    0.7109    2.1620    0.0000 C   0  0  0  0  0  0  0  0  0  0  0  0
    0.7109    1.3370    0.0000 C   0  0  0  0  0  0  0  0  0  0  0  0
    1.4254    0.9245    0.0000 C   0  0  0  0  0  0  0  0  0  0  0  0
    1.4254    0.0995    0.0000 C   0  0  0  0  0  0  0  0  0  0  0  0
    0.7109   -0.3130    0.0000 C   0  0  0  0  0  0  0  0  0  0  0  0
   -0.0036    0.0995    0.0000 C   0  0  0  0  0  0  0  0  0  0  0  0
   -0.0036    0.9245    0.0000 C   0  0  0  0  0  0  0  0  0  0  0  0
   -0.7181    1.3370    0.0000 O   0  0  0  0  0  0  0  0  0  0  0  0
   -0.7181    2.1620    0.0000 C   0  0  0  0  0  0  0  0  0  0  0  0
   -1.4325    2.5745    0.0000 C   0  0  0  0  0  0  0  0  0  0  0  0
   -0.0036    2.5745    0.0000 O   0  0  0  0  0  0  0  0  0  0  0  0
    1.4254    1.7495    0.0000 H   0  0  0  0  0  0  0  0  0  0  0  0
    1.4254    2.5745    0.0000 H   0  0  0  0  0  0  0  0  0  0  0  0
    0.7109    2.9870    0.0000 H   0  0  0  0  0  0  0  0  0  0  0  0
   -0.0036    1.7495    0.0000 H   0  0  0  0  0  0  0  0  0  0  0  0
    2.2006    0.6423    0.0000 H   0  0  0  0  0  0  0  0  0  0  0  0
    2.2006    1.2066    0.0000 H   0  0  0  0  0  0  0  0  0  0  0  0
    1.5961   -0.7077    0.0000 H   0  0  0  0  0  0  0  0  0  0  0  0
    2.0847   -0.3964    0.0000 H   0  0  0  0  0  0  0  0  0  0  0  0
    0.1009   -0.8685    0.0000 H   0  0  0  0  0  0  0  0  0  0  0  0
    0.6196   -1.1330    0.0000 H   0  0  0  0  0  0  0  0  0  0  0  0
   -0.8272    0.0515    0.0000 H   0  0  0  0  0  0  0  0  0  0  0  0
   -0.4569   -0.5898    0.0000 H   0  0  0  0  0  0  0  0  0  0  0  0
    0.7109    0.5120    0.0000 H   0  0  0  0  0  0  0  0  0  0  0  0
   -1.0200    3.2889    0.0000 H   0  0  0  0  0  0  0  0  0  0  0  0
   -2.1470    2.9870    0.0000 H   0  0  0  0  0  0  0  0  0  0  0  0
   -1.8450    1.8600    0.0000 H   0  0  0  0  0  0  0  0  0  0  0  0
  1  2  1  0  0  0  0
  2  3  1  0  0  0  0
  3  4  1  0  0  0  0
  4  5  1  0  0  0  0
  5  6  1  0  0  0  0
  6  7  1  0  0  0  0
  2  7  1  0  0  0  0
  7  8  1  0  0  0  0
  8  9  1  0  0  0  0
  9 10  1  0  0  0  0
  9 11  2  0  0  0  0
  1 12  1  0  0  0  0
  1 13  1  0  0  0  0
  1 14  1  0  0  0  0
  2 15  1  0  0  0  0
  3 16  1  0  0  0  0
  3 17  1  0  0  0  0
  4 18  1  0  0  0  0
  4 19  1  0  0  0  0
  5 20  1  0  0  0  0
  5 21  1  0  0  0  0
  6 22  1  0  0  0  0
  6 23  1  0  0  0  0
  7 24  1  0  0  0  0
 10 25  1  0  0  0  0
 10 26  1  0  0  0  0
 10 27  1  0  0  0  0
M  END
>  <InChIKey>
AKIIJALHGMKJEJ-UHFFFAOYSA-N

>  <UN GHS>
2A

>  <CASRN>
5726-19-2

> <Outcome>
1

>  <Index>
8

>  <StandardizerResult>
Clear Stereo (ID: ClearStereo)
Wedge Clean (ID: WedgeClean)
Mesomerize (ID: Mesomerize)
Tautomerize (ID: Tautomerize)
Add Explicit Hydrogens (ID: AddExplicitH)
Neutralize (ID: Neutralize)
Clean 2D (ID: Clean2D)

> <knn Distance>


> <CpId>
8

$$$$
9
  Mrv1532301301811342D          

 38 37  0  0  0  0            999 V2000
    4.7586    3.5724    0.0000 C   0  0  0  0  0  0  0  0  0  0  0  0
    5.4730    3.9849    0.0000 O   0  0  0  0  0  0  0  0  0  0  0  0
    6.1875    3.5724    0.0000 C   0  0  0  0  0  0  0  0  0  0  0  0
    6.1875    2.7474    0.0000 O   0  0  0  0  0  0  0  0  0  0  0  0
    6.9020    3.9849    0.0000 C   0  0  0  0  0  0  0  0  0  0  0  0
    7.6165    3.5724    0.0000 C   0  0  0  0  0  0  0  0  0  0  0  0
    8.3309    3.9849    0.0000 C   0  0  0  0  0  0  0  0  0  0  0  0
    9.0454    3.5724    0.0000 C   0  0  0  0  0  0  0  0  0  0  0  0
    9.7599    3.9849    0.0000 C   0  0  0  0  0  0  0  0  0  0  0  0
   10.4743    3.5724    0.0000 C   0  0  0  0  0  0  0  0  0  0  0  0
   11.1888    3.9849    0.0000 C   0  0  0  0  0  0  0  0  0  0  0  0
   11.9033    3.5724    0.0000 C   0  0  0  0  0  0  0  0  0  0  0  0
   12.6177    3.9849    0.0000 C   0  0  0  0  0  0  0  0  0  0  0  0
   12.6177    4.8099    0.0000 O   0  0  0  0  0  0  0  0  0  0  0  0
   13.3322    3.5724    0.0000 O   0  0  0  0  0  0  0  0  0  0  0  0
   14.0467    3.9849    0.0000 C   0  0  0  0  0  0  0  0  0  0  0  0
    4.3461    4.2869    0.0000 H   0  0  0  0  0  0  0  0  0  0  0  0
    4.0441    3.1599    0.0000 H   0  0  0  0  0  0  0  0  0  0  0  0
    5.1711    2.8579    0.0000 H   0  0  0  0  0  0  0  0  0  0  0  0
    7.2722    4.7221    0.0000 H   0  0  0  0  0  0  0  0  0  0  0  0
    6.5317    4.7221    0.0000 H   0  0  0  0  0  0  0  0  0  0  0  0
    7.2462    2.8352    0.0000 H   0  0  0  0  0  0  0  0  0  0  0  0
    7.9867    2.8352    0.0000 H   0  0  0  0  0  0  0  0  0  0  0  0
    8.7012    4.7221    0.0000 H   0  0  0  0  0  0  0  0  0  0  0  0
    7.9607    4.7221    0.0000 H   0  0  0  0  0  0  0  0  0  0  0  0
    8.6751    2.8352    0.0000 H   0  0  0  0  0  0  0  0  0  0  0  0
    9.4157    2.8352    0.0000 H   0  0  0  0  0  0  0  0  0  0  0  0
   10.1301    4.7221    0.0000 H   0  0  0  0  0  0  0  0  0  0  0  0
    9.3896    4.7221    0.0000 H   0  0  0  0  0  0  0  0  0  0  0  0
   10.1041    2.8352    0.0000 H   0  0  0  0  0  0  0  0  0  0  0  0
   10.8446    2.8352    0.0000 H   0  0  0  0  0  0  0  0  0  0  0  0
   11.5591    4.7221    0.0000 H   0  0  0  0  0  0  0  0  0  0  0  0
   10.8185    4.7221    0.0000 H   0  0  0  0  0  0  0  0  0  0  0  0
   11.5330    2.8352    0.0000 H   0  0  0  0  0  0  0  0  0  0  0  0
   12.2735    2.8352    0.0000 H   0  0  0  0  0  0  0  0  0  0  0  0
   14.4592    3.2704    0.0000 H   0  0  0  0  0  0  0  0  0  0  0  0
   14.7612    4.3974    0.0000 H   0  0  0  0  0  0  0  0  0  0  0  0
   13.6342    4.6994    0.0000 H   0  0  0  0  0  0  0  0  0  0  0  0
  1  2  1  0  0  0  0
  2  3  1  0  0  0  0
  3  4  2  0  0  0  0
  3  5  1  0  0  0  0
  5  6  1  0  0  0  0
  6  7  1  0  0  0  0
  7  8  1  0  0  0  0
  8  9  1  0  0  0  0
  9 10  1  0  0  0  0
 10 11  1  0  0  0  0
 11 12  1  0  0  0  0
 12 13  1  0  0  0  0
 13 14  2  0  0  0  0
 13 15  1  0  0  0  0
 15 16  1  0  0  0  0
  1 17  1  0  0  0  0
  1 18  1  0  0  0  0
  1 19  1  0  0  0  0
  5 20  1  0  0  0  0
  5 21  1  0  0  0  0
  6 22  1  0  0  0  0
  6 23  1  0  0  0  0
  7 24  1  0  0  0  0
  7 25  1  0  0  0  0
  8 26  1  0  0  0  0
  8 27  1  0  0  0  0
  9 28  1  0  0  0  0
  9 29  1  0  0  0  0
 10 30  1  0  0  0  0
 10 31  1  0  0  0  0
 11 32  1  0  0  0  0
 11 33  1  0  0  0  0
 12 34  1  0  0  0  0
 12 35  1  0  0  0  0
 16 36  1  0  0  0  0
 16 37  1  0  0  0  0
 16 38  1  0  0  0  0
M  END
>  <InChIKey>
ALOUNLDAKADEEB-UHFFFAOYSA-N

>  <UN GHS>
1

>  <CASRN>
106-79-6

> <Outcome>
1

>  <Index>
9

>  <StandardizerResult>
Clear Stereo (ID: ClearStereo)
Wedge Clean (ID: WedgeClean)
Mesomerize (ID: Mesomerize)
Tautomerize (ID: Tautomerize)
Add Explicit Hydrogens (ID: AddExplicitH)
Neutralize (ID: Neutralize)
Clean 2D (ID: Clean2D)

> <knn Distance>


> <CpId>
9

$$$$
14
  Mrv1532301301811342D          

 29 30  0  0  0  0            999 V2000
    1.4289   -2.4750    0.0000 N   0  0  0  0  0  0  0  0  0  0  0  0
    1.4289   -1.6500    0.0000 C   0  0  0  0  0  0  0  0  0  0  0  0
    0.7145   -1.2375    0.0000 C   0  0  0  0  0  0  0  0  0  0  0  0
    0.7145   -0.4125    0.0000 C   0  0  0  0  0  0  0  0  0  0  0  0
    1.4289   -0.0000    0.0000 C   0  0  0  0  0  0  0  0  0  0  0  0
    2.1434   -0.4125    0.0000 C   0  0  0  0  0  0  0  0  0  0  0  0
    2.8579   -0.0000    0.0000 C   0  0  0  0  0  0  0  0  0  0  0  0
    3.5723   -0.4125    0.0000 C   0  0  0  0  0  0  0  0  0  0  0  0
    3.5723   -1.2375    0.0000 C   0  0  0  0  0  0  0  0  0  0  0  0
    2.8579   -1.6500    0.0000 C   0  0  0  0  0  0  0  0  0  0  0  0
    2.8579   -2.4750    0.0000 O   0  0  0  0  0  0  0  0  0  0  0  0
    2.1434   -1.2375    0.0000 C   0  0  0  0  0  0  0  0  0  0  0  0
    4.2868   -0.0000    0.0000 S   0  0  0  0  0  0  0  0  0  0  0  0
    5.0013    0.4125    0.0000 O   0  0  0  0  0  0  0  0  0  0  0  0
    3.8743    0.7145    0.0000 O   0  0  0  0  0  0  0  0  0  0  0  0
    4.6993   -0.7145    0.0000 O   0  0  0  0  0  0  0  0  0  0  0  0
   -0.0000   -0.0000    0.0000 S   0  0  0  0  0  0  0  0  0  0  0  0
   -0.7145    0.4125    0.0000 O   0  0  0  0  0  0  0  0  0  0  0  0
    0.4125    0.7145    0.0000 O   0  0  0  0  0  0  0  0  0  0  0  0
   -0.4125   -0.7145    0.0000 O   0  0  0  0  0  0  0  0  0  0  0  0
    0.7145   -2.8875    0.0000 H   0  0  0  0  0  0  0  0  0  0  0  0
    2.1434   -2.8875    0.0000 H   0  0  0  0  0  0  0  0  0  0  0  0
   -0.0000   -1.6500    0.0000 H   0  0  0  0  0  0  0  0  0  0  0  0
    1.4289    0.8250    0.0000 H   0  0  0  0  0  0  0  0  0  0  0  0
    2.8579    0.8250    0.0000 H   0  0  0  0  0  0  0  0  0  0  0  0
    4.2868   -1.6500    0.0000 H   0  0  0  0  0  0  0  0  0  0  0  0
    3.5723   -2.8875    0.0000 H   0  0  0  0  0  0  0  0  0  0  0  0
    5.7158   -0.0000    0.0000 H   0  0  0  0  0  0  0  0  0  0  0  0
   -0.7145    1.2375    0.0000 H   0  0  0  0  0  0  0  0  0  0  0  0
  1  2  1  0  0  0  0
  2  3  4  0  0  0  0
  3  4  4  0  0  0  0
  4  5  4  0  0  0  0
  5  6  4  0  0  0  0
  6  7  4  0  0  0  0
  7  8  4  0  0  0  0
  8  9  4  0  0  0  0
  9 10  4  0  0  0  0
 10 11  1  0  0  0  0
 10 12  4  0  0  0  0
  2 12  4  0  0  0  0
  6 12  4  0  0  0  0
  8 13  1  0  0  0  0
 13 14  1  0  0  0  0
 13 15  2  0  0  0  0
 13 16  2  0  0  0  0
  4 17  1  0  0  0  0
 17 18  1  0  0  0  0
 17 19  2  0  0  0  0
 17 20  2  0  0  0  0
  1 21  1  0  0  0  0
  1 22  1  0  0  0  0
  3 23  1  0  0  0  0
  5 24  1  0  0  0  0
  7 25  1  0  0  0  0
  9 26  1  0  0  0  0
 11 27  1  0  0  0  0
 14 28  1  0  0  0  0
 18 29  1  0  0  0  0
M  END
>  <InChIKey>
APRRQJCCBSJQOQ-UHFFFAOYSA-N

>  <UN GHS>
2A

>  <CASRN>
8011-86-7

> <Outcome>
1

>  <Index>
14

>  <StandardizerResult>
Dearomatize (ID: Dearomatize)
Clear Stereo (ID: ClearStereo)
Wedge Clean (ID: WedgeClean)
Mesomerize (ID: Mesomerize)
Tautomerize (ID: Tautomerize)
Aromatize (ID: Aromatize)
Add Explicit Hydrogens (ID: AddExplicitH)
Neutralize (ID: Neutralize)
Clean 2D (ID: Clean2D)

> <knn Distance>


> <CpId>
14

$$$$
15
  Mrv1532301301811342D          

 33 32  0  0  0  0            999 V2000
    2.9563    2.5163    0.0000 C   0  0  0  0  0  0  0  0  0  0  0  0
    3.6708    2.1038    0.0000 C   0  0  0  0  0  0  0  0  0  0  0  0
    3.6708    1.2788    0.0000 C   0  0  0  0  0  0  0  0  0  0  0  0
    4.3853    2.5163    0.0000 C   0  0  0  0  0  0  0  0  0  0  0  0
    5.0997    2.1038    0.0000 C   0  0  0  0  0  0  0  0  0  0  0  0
    5.8142    2.5163    0.0000 O   0  0  0  0  0  0  0  0  0  0  0  0
    6.5287    2.1038    0.0000 C   0  0  0  0  0  0  0  0  0  0  0  0
    7.2432    2.5163    0.0000 C   0  0  0  0  0  0  0  0  0  0  0  0
    7.9576    2.1038    0.0000 C   0  0  0  0  0  0  0  0  0  0  0  0
    8.6721    2.5163    0.0000 C   0  0  0  0  0  0  0  0  0  0  0  0
    7.9576    1.2788    0.0000 C   0  0  0  0  0  0  0  0  0  0  0  0
    3.3688    3.2307    0.0000 H   0  0  0  0  0  0  0  0  0  0  0  0
    2.2419    2.9288    0.0000 H   0  0  0  0  0  0  0  0  0  0  0  0
    2.5438    1.8018    0.0000 H   0  0  0  0  0  0  0  0  0  0  0  0
    2.9563    1.6913    0.0000 H   0  0  0  0  0  0  0  0  0  0  0  0
    3.0874    0.6954    0.0000 H   0  0  0  0  0  0  0  0  0  0  0  0
    4.0833    0.5643    0.0000 H   0  0  0  0  0  0  0  0  0  0  0  0
    4.4677    1.4923    0.0000 H   0  0  0  0  0  0  0  0  0  0  0  0
    4.7555    3.2535    0.0000 H   0  0  0  0  0  0  0  0  0  0  0  0
    4.0150    3.2535    0.0000 H   0  0  0  0  0  0  0  0  0  0  0  0
    5.5965    1.4451    0.0000 H   0  0  0  0  0  0  0  0  0  0  0  0
    5.0997    2.9288    0.0000 H   0  0  0  0  0  0  0  0  0  0  0  0
    6.1584    1.3665    0.0000 H   0  0  0  0  0  0  0  0  0  0  0  0
    6.8989    1.3665    0.0000 H   0  0  0  0  0  0  0  0  0  0  0  0
    7.6134    3.2535    0.0000 H   0  0  0  0  0  0  0  0  0  0  0  0
    6.8729    3.2535    0.0000 H   0  0  0  0  0  0  0  0  0  0  0  0
    7.9576    2.9288    0.0000 H   0  0  0  0  0  0  0  0  0  0  0  0
    8.8856    1.7194    0.0000 H   0  0  0  0  0  0  0  0  0  0  0  0
    9.4971    2.5163    0.0000 H   0  0  0  0  0  0  0  0  0  0  0  0
    8.8856    3.3132    0.0000 H   0  0  0  0  0  0  0  0  0  0  0  0
    7.1326    1.2788    0.0000 H   0  0  0  0  0  0  0  0  0  0  0  0
    7.9576    0.4538    0.0000 H   0  0  0  0  0  0  0  0  0  0  0  0
    8.7826    1.2788    0.0000 H   0  0  0  0  0  0  0  0  0  0  0  0
  1  2  1  0  0  0  0
  2  3  1  0  0  0  0
  2  4  1  0  0  0  0
  4  5  1  0  0  0  0
  5  6  1  0  0  0  0
  6  7  1  0  0  0  0
  7  8  1  0  0  0  0
  8  9  1  0  0  0  0
  9 10  1  0  0  0  0
  9 11  1  0  0  0  0
  1 12  1  0  0  0  0
  1 13  1  0  0  0  0
  1 14  1  0  0  0  0
  2 15  1  0  0  0  0
  3 16  1  0  0  0  0
  3 17  1  0  0  0  0
  3 18  1  0  0  0  0
  4 19  1  0  0  0  0
  4 20  1  0  0  0  0
  5 21  1  0  0  0  0
  5 22  1  0  0  0  0
  7 23  1  0  0  0  0
  7 24  1  0  0  0  0
  8 25  1  0  0  0  0
  8 26  1  0  0  0  0
  9 27  1  0  0  0  0
 10 28  1  0  0  0  0
 10 29  1  0  0  0  0
 10 30  1  0  0  0  0
 11 31  1  0  0  0  0
 11 32  1  0  0  0  0
 11 33  1  0  0  0  0
M  END
>  <InChIKey>
AQZGPSLYZOOYQP-UHFFFAOYSA-N

>  <UN GHS>
2B

>  <CASRN>
544-01-4

> <Outcome>
1

>  <Index>
15

>  <StandardizerResult>
Clear Stereo (ID: ClearStereo)
Wedge Clean (ID: WedgeClean)
Mesomerize (ID: Mesomerize)
Tautomerize (ID: Tautomerize)
Add Explicit Hydrogens (ID: AddExplicitH)
Neutralize (ID: Neutralize)
Clean 2D (ID: Clean2D)

> <knn Distance>


> <CpId>
15

$$$$
16
  Mrv1532301301811342D          

 35 34  0  0  0  0            999 V2000
    5.3407    1.4393    0.0000 Cl  0  0  0  0  0  0  0  0  0  0  0  0
    4.6263    1.0268    0.0000 C   0  0  0  0  0  0  0  0  0  0  0  0
    3.9118    1.4393    0.0000 C   0  0  0  0  0  0  0  0  0  0  0  0
    3.9118    2.2643    0.0000 C   0  0  0  0  0  0  0  0  0  0  0  0
    4.6263    2.6768    0.0000 Cl  0  0  0  0  0  0  0  0  0  0  0  0
    3.1973    1.0268    0.0000 O   0  0  0  0  0  0  0  0  0  0  0  0
    2.4829    1.4393    0.0000 P   0  0  0  0  0  0  0  0  0  0  0  0
    2.8954    2.1538    0.0000 O   0  0  0  0  0  0  0  0  0  0  0  0
    1.7684    1.8518    0.0000 O   0  0  0  0  0  0  0  0  0  0  0  0
    1.7684    2.6768    0.0000 C   0  0  0  0  0  0  0  0  0  0  0  0
    2.4829    3.0893    0.0000 C   0  0  0  0  0  0  0  0  0  0  0  0
    2.4829    3.9143    0.0000 Cl  0  0  0  0  0  0  0  0  0  0  0  0
    1.0539    3.0893    0.0000 C   0  0  0  0  0  0  0  0  0  0  0  0
    1.0539    3.9143    0.0000 Cl  0  0  0  0  0  0  0  0  0  0  0  0
    2.0704    0.7249    0.0000 O   0  0  0  0  0  0  0  0  0  0  0  0
    1.2454    0.7249    0.0000 C   0  0  0  0  0  0  0  0  0  0  0  0
    0.8329    1.4393    0.0000 C   0  0  0  0  0  0  0  0  0  0  0  0
    1.2454    2.1538    0.0000 Cl  0  0  0  0  0  0  0  0  0  0  0  0
    0.8329    0.0104    0.0000 C   0  0  0  0  0  0  0  0  0  0  0  0
    0.0079    0.0104    0.0000 Cl  0  0  0  0  0  0  0  0  0  0  0  0
    4.2560    0.2896    0.0000 H   0  0  0  0  0  0  0  0  0  0  0  0
    4.9965    0.2896    0.0000 H   0  0  0  0  0  0  0  0  0  0  0  0
    4.6263    1.8518    0.0000 H   0  0  0  0  0  0  0  0  0  0  0  0
    3.4585    2.9536    0.0000 H   0  0  0  0  0  0  0  0  0  0  0  0
    3.0882    2.3123    0.0000 H   0  0  0  0  0  0  0  0  0  0  0  0
    2.4829    2.2643    0.0000 H   0  0  0  0  0  0  0  0  0  0  0  0
    3.2581    2.8072    0.0000 H   0  0  0  0  0  0  0  0  0  0  0  0
    3.2581    3.3715    0.0000 H   0  0  0  0  0  0  0  0  0  0  0  0
    0.2589    3.3098    0.0000 H   0  0  0  0  0  0  0  0  0  0  0  0
    0.3193    2.7139    0.0000 H   0  0  0  0  0  0  0  0  0  0  0  0
    1.6579    1.4393    0.0000 H   0  0  0  0  0  0  0  0  0  0  0  0
    0.0956    1.8096    0.0000 H   0  0  0  0  0  0  0  0  0  0  0  0
    0.0956    1.0691    0.0000 H   0  0  0  0  0  0  0  0  0  0  0  0
    0.8808   -0.8132    0.0000 H   0  0  0  0  0  0  0  0  0  0  0  0
    1.5221   -0.4430    0.0000 H   0  0  0  0  0  0  0  0  0  0  0  0
  1  2  1  0  0  0  0
  2  3  1  0  0  0  0
  3  4  1  0  0  0  0
  4  5  1  0  0  0  0
  3  6  1  0  0  0  0
  6  7  1  0  0  0  0
  7  8  2  0  0  0  0
  7  9  1  0  0  0  0
  9 10  1  0  0  0  0
 10 11  1  0  0  0  0
 11 12  1  0  0  0  0
 10 13  1  0  0  0  0
 13 14  1  0  0  0  0
  7 15  1  0  0  0  0
 15 16  1  0  0  0  0
 16 17  1  0  0  0  0
 17 18  1  0  0  0  0
 16 19  1  0  0  0  0
 19 20  1  0  0  0  0
  2 21  1  0  0  0  0
  2 22  1  0  0  0  0
  3 23  1  0  0  0  0
  4 24  1  0  0  0  0
  4 25  1  0  0  0  0
 10 26  1  0  0  0  0
 11 27  1  0  0  0  0
 11 28  1  0  0  0  0
 13 29  1  0  0  0  0
 13 30  1  0  0  0  0
 16 31  1  0  0  0  0
 17 32  1  0  0  0  0
 17 33  1  0  0  0  0
 19 34  1  0  0  0  0
 19 35  1  0  0  0  0
M  END
>  <InChIKey>
ASLWPAWFJZFCKF-UHFFFAOYSA-N

>  <UN GHS>
2B

>  <CASRN>
13674-87-8

> <Outcome>
1

>  <Index>
16

>  <StandardizerResult>
Clear Stereo (ID: ClearStereo)
Wedge Clean (ID: WedgeClean)
Mesomerize (ID: Mesomerize)
Tautomerize (ID: Tautomerize)
Add Explicit Hydrogens (ID: AddExplicitH)
Neutralize (ID: Neutralize)
Clean 2D (ID: Clean2D)

> <knn Distance>


> <CpId>
16

$$$$
17
  Mrv1532301301811342D          

 26 27  0  0  0  0            999 V2000
    2.1277   -0.4367    0.0000 N   0  0  0  0  0  0  0  0  0  0  0  0
    2.1277   -1.2617    0.0000 C   0  0  0  0  0  0  0  0  0  0  0  0
    2.8422   -1.6742    0.0000 C   0  0  0  0  0  0  0  0  0  0  0  0
    2.8422   -2.4992    0.0000 C   0  0  0  0  0  0  0  0  0  0  0  0
    2.1277   -2.9117    0.0000 C   0  0  0  0  0  0  0  0  0  0  0  0
    2.1277   -3.7367    0.0000 N   0  0  0  0  0  0  0  0  0  0  0  0
    1.4132   -4.1492    0.0000 C   0  0  0  0  0  0  0  0  0  0  0  0
    1.4132   -4.9742    0.0000 C   0  0  0  0  0  0  0  0  0  0  0  0
    0.6988   -5.3867    0.0000 C   0  0  0  0  0  0  0  0  0  0  0  0
   -0.0157   -4.9742    0.0000 C   0  0  0  0  0  0  0  0  0  0  0  0
   -0.0157   -4.1492    0.0000 C   0  0  0  0  0  0  0  0  0  0  0  0
    0.6988   -3.7367    0.0000 C   0  0  0  0  0  0  0  0  0  0  0  0
    1.4132   -2.4992    0.0000 C   0  0  0  0  0  0  0  0  0  0  0  0
    1.4132   -1.6742    0.0000 C   0  0  0  0  0  0  0  0  0  0  0  0
    2.8422   -0.0242    0.0000 H   0  0  0  0  0  0  0  0  0  0  0  0
    1.4132   -0.0242    0.0000 H   0  0  0  0  0  0  0  0  0  0  0  0
    3.5567   -1.2617    0.0000 H   0  0  0  0  0  0  0  0  0  0  0  0
    3.5567   -2.9117    0.0000 H   0  0  0  0  0  0  0  0  0  0  0  0
    2.8422   -4.1492    0.0000 H   0  0  0  0  0  0  0  0  0  0  0  0
    2.1277   -5.3867    0.0000 H   0  0  0  0  0  0  0  0  0  0  0  0
    0.6988   -6.2117    0.0000 H   0  0  0  0  0  0  0  0  0  0  0  0
   -0.7302   -5.3867    0.0000 H   0  0  0  0  0  0  0  0  0  0  0  0
   -0.7302   -3.7367    0.0000 H   0  0  0  0  0  0  0  0  0  0  0  0
    0.6988   -2.9117    0.0000 H   0  0  0  0  0  0  0  0  0  0  0  0
    0.6988   -2.0867    0.0000 H   0  0  0  0  0  0  0  0  0  0  0  0
    1.0007   -0.9597    0.0000 H   0  0  0  0  0  0  0  0  0  0  0  0
  1  2  1  0  0  0  0
  2  3  4  0  0  0  0
  3  4  4  0  0  0  0
  4  5  4  0  0  0  0
  5  6  1  0  0  0  0
  6  7  1  0  0  0  0
  7  8  4  0  0  0  0
  8  9  4  0  0  0  0
  9 10  4  0  0  0  0
 10 11  4  0  0  0  0
 11 12  4  0  0  0  0
  7 12  4  0  0  0  0
  5 13  4  0  0  0  0
 13 14  4  0  0  0  0
  2 14  4  0  0  0  0
  1 15  1  0  0  0  0
  1 16  1  0  0  0  0
  3 17  1  0  0  0  0
  4 18  1  0  0  0  0
  6 19  1  0  0  0  0
  8 20  1  0  0  0  0
  9 21  1  0  0  0  0
 10 22  1  0  0  0  0
 11 23  1  0  0  0  0
 12 24  1  0  0  0  0
 13 25  1  0  0  0  0
 14 26  1  0  0  0  0
M  END
>  <InChIKey>
ATGUVEKSASEFFO-UHFFFAOYSA-N

>  <UN GHS>
2B

>  <CASRN>
101-54-2

> <Outcome>
1

>  <Index>
17

>  <StandardizerResult>
Dearomatize (ID: Dearomatize)
Clear Stereo (ID: ClearStereo)
Wedge Clean (ID: WedgeClean)
Mesomerize (ID: Mesomerize)
Tautomerize (ID: Tautomerize)
Aromatize (ID: Aromatize)
Add Explicit Hydrogens (ID: AddExplicitH)
Neutralize (ID: Neutralize)
Clean 2D (ID: Clean2D)

> <knn Distance>


> <CpId>
17

$$$$
29
  Mrv1532301301811342D          

 34 34  0  0  0  0            999 V2000
   -0.0782    2.1043    0.0000 C   0  0  0  0  0  0  0  0  0  0  0  0
    0.7468    2.1043    0.0000 C   0  0  0  0  0  0  0  0  0  0  0  0
    1.5718    2.1043    0.0000 C   0  0  0  0  0  0  0  0  0  0  0  0
    0.7468    2.9293    0.0000 N   0  0  0  0  0  0  0  0  0  0  0  0
    1.4613    3.3418    0.0000 C   0  0  0  0  0  0  0  0  0  0  0  0
    2.1758    3.7543    0.0000 O   0  0  0  0  0  0  0  0  0  0  0  0
    0.7468    1.2793    0.0000 C   0  0  0  0  0  0  0  0  0  0  0  0
    1.4613    0.8668    0.0000 C   0  0  0  0  0  0  0  0  0  0  0  0
    1.4613    0.0418    0.0000 C   0  0  0  0  0  0  0  0  0  0  0  0
    0.7468   -0.3707    0.0000 C   0  0  0  0  0  0  0  0  0  0  0  0
    0.0324    0.0418    0.0000 C   0  0  0  0  0  0  0  0  0  0  0  0
    0.0324    0.8668    0.0000 C   0  0  0  0  0  0  0  0  0  0  0  0
   -0.6821   -0.3707    0.0000 C   0  0  0  0  0  0  0  0  0  0  0  0
   -1.0946    0.3438    0.0000 C   0  0  0  0  0  0  0  0  0  0  0  0
   -0.2696   -1.0852    0.0000 C   0  0  0  0  0  0  0  0  0  0  0  0
   -1.3966   -0.7832    0.0000 N   0  0  0  0  0  0  0  0  0  0  0  0
   -1.3966   -1.6082    0.0000 C   0  0  0  0  0  0  0  0  0  0  0  0
   -1.3966   -2.4332    0.0000 O   0  0  0  0  0  0  0  0  0  0  0  0
   -0.0782    2.9293    0.0000 H   0  0  0  0  0  0  0  0  0  0  0  0
   -0.9032    2.1043    0.0000 H   0  0  0  0  0  0  0  0  0  0  0  0
   -0.0782    1.2793    0.0000 H   0  0  0  0  0  0  0  0  0  0  0  0
    1.5718    1.2793    0.0000 H   0  0  0  0  0  0  0  0  0  0  0  0
    2.3968    2.1043    0.0000 H   0  0  0  0  0  0  0  0  0  0  0  0
    1.5718    2.9293    0.0000 H   0  0  0  0  0  0  0  0  0  0  0  0
    2.2793    0.7591    0.0000 H   0  0  0  0  0  0  0  0  0  0  0  0
    2.1758   -0.3707    0.0000 H   0  0  0  0  0  0  0  0  0  0  0  0
    0.7468   -1.1957    0.0000 H   0  0  0  0  0  0  0  0  0  0  0  0
   -0.7856    0.7591    0.0000 H   0  0  0  0  0  0  0  0  0  0  0  0
   -1.4434    1.0914    0.0000 H   0  0  0  0  0  0  0  0  0  0  0  0
   -1.9182    0.3916    0.0000 H   0  0  0  0  0  0  0  0  0  0  0  0
   -1.5277   -0.3584    0.0000 H   0  0  0  0  0  0  0  0  0  0  0  0
   -0.9841   -1.4977    0.0000 H   0  0  0  0  0  0  0  0  0  0  0  0
    0.1429   -1.7997    0.0000 H   0  0  0  0  0  0  0  0  0  0  0  0
    0.4449   -0.6727    0.0000 H   0  0  0  0  0  0  0  0  0  0  0  0
  1  2  1  0  0  0  0
  2  3  1  0  0  0  0
  2  4  1  0  0  0  0
  4  5  2  0  0  0  0
  5  6  2  0  0  0  0
  2  7  1  0  0  0  0
  7  8  4  0  0  0  0
  8  9  4  0  0  0  0
  9 10  4  0  0  0  0
 10 11  4  0  0  0  0
 11 12  4  0  0  0  0
  7 12  4  0  0  0  0
 11 13  1  0  0  0  0
 13 14  1  0  0  0  0
 13 15  1  0  0  0  0
 13 16  1  0  0  0  0
 16 17  2  0  0  0  0
 17 18  2  0  0  0  0
  1 19  1  0  0  0  0
  1 20  1  0  0  0  0
  1 21  1  0  0  0  0
  3 22  1  0  0  0  0
  3 23  1  0  0  0  0
  3 24  1  0  0  0  0
  8 25  1  0  0  0  0
  9 26  1  0  0  0  0
 10 27  1  0  0  0  0
 12 28  1  0  0  0  0
 14 29  1  0  0  0  0
 14 30  1  0  0  0  0
 14 31  1  0  0  0  0
 15 32  1  0  0  0  0
 15 33  1  0  0  0  0
 15 34  1  0  0  0  0
M  END
>  <InChIKey>
AZYRZNIYJDKRHO-UHFFFAOYSA-N

>  <UN GHS>
2A

>  <CASRN>
2778-42-9

> <Outcome>
1

>  <Index>
29

>  <StandardizerResult>
Dearomatize (ID: Dearomatize)
Clear Stereo (ID: ClearStereo)
Wedge Clean (ID: WedgeClean)
Mesomerize (ID: Mesomerize)
Tautomerize (ID: Tautomerize)
Aromatize (ID: Aromatize)
Add Explicit Hydrogens (ID: AddExplicitH)
Neutralize (ID: Neutralize)
Clean 2D (ID: Clean2D)

> <knn Distance>


> <CpId>
29

$$$$
31
  Mrv1532301301811342D          

 48 47  0  0  0  0            999 V2000
    5.9969    4.2811    0.0000 C   0  0  0  0  0  0  0  0  0  0  0  0
    6.7114    4.6936    0.0000 C   0  0  0  0  0  0  0  0  0  0  0  0
    7.4258    4.2811    0.0000 C   0  0  0  0  0  0  0  0  0  0  0  0
    8.1403    4.6936    0.0000 C   0  0  0  0  0  0  0  0  0  0  0  0
    8.8548    4.2811    0.0000 C   0  0  0  0  0  0  0  0  0  0  0  0
    9.5693    4.6936    0.0000 C   0  0  0  0  0  0  0  0  0  0  0  0
   10.2837    4.2811    0.0000 C   0  0  0  0  0  0  0  0  0  0  0  0
   10.9982    4.6936    0.0000 C   0  0  0  0  0  0  0  0  0  0  0  0
   11.7127    4.2811    0.0000 C   0  0  0  0  0  0  0  0  0  0  0  0
   12.4271    4.6936    0.0000 C   0  0  0  0  0  0  0  0  0  0  0  0
   13.1416    4.2811    0.0000 C   0  0  0  0  0  0  0  0  0  0  0  0
   13.8561    4.6936    0.0000 C   0  0  0  0  0  0  0  0  0  0  0  0
   13.8561    5.5186    0.0000 O   0  0  0  0  0  0  0  0  0  0  0  0
   14.5706    4.2811    0.0000 N   0  0  0  0  0  0  0  0  0  0  0  0
   14.5706    3.4561    0.0000 C   0  0  0  0  0  0  0  0  0  0  0  0
   15.2850    4.6936    0.0000 C   0  0  0  0  0  0  0  0  0  0  0  0
   15.9995    4.2811    0.0000 C   0  0  0  0  0  0  0  0  0  0  0  0
   16.7140    4.6936    0.0000 O   0  0  0  0  0  0  0  0  0  0  0  0
   15.9995    3.4561    0.0000 O   0  0  0  0  0  0  0  0  0  0  0  0
    5.5844    4.9956    0.0000 H   0  0  0  0  0  0  0  0  0  0  0  0
    5.2824    3.8686    0.0000 H   0  0  0  0  0  0  0  0  0  0  0  0
    6.4094    3.5667    0.0000 H   0  0  0  0  0  0  0  0  0  0  0  0
    7.0816    5.4309    0.0000 H   0  0  0  0  0  0  0  0  0  0  0  0
    6.3411    5.4309    0.0000 H   0  0  0  0  0  0  0  0  0  0  0  0
    7.0556    3.5439    0.0000 H   0  0  0  0  0  0  0  0  0  0  0  0
    7.7961    3.5439    0.0000 H   0  0  0  0  0  0  0  0  0  0  0  0
    8.5106    5.4309    0.0000 H   0  0  0  0  0  0  0  0  0  0  0  0
    7.7701    5.4309    0.0000 H   0  0  0  0  0  0  0  0  0  0  0  0
    8.4845    3.5439    0.0000 H   0  0  0  0  0  0  0  0  0  0  0  0
    9.2250    3.5439    0.0000 H   0  0  0  0  0  0  0  0  0  0  0  0
    9.9395    5.4309    0.0000 H   0  0  0  0  0  0  0  0  0  0  0  0
    9.1990    5.4309    0.0000 H   0  0  0  0  0  0  0  0  0  0  0  0
    9.9135    3.5439    0.0000 H   0  0  0  0  0  0  0  0  0  0  0  0
   10.6540    3.5439    0.0000 H   0  0  0  0  0  0  0  0  0  0  0  0
   11.3685    5.4309    0.0000 H   0  0  0  0  0  0  0  0  0  0  0  0
   10.6279    5.4309    0.0000 H   0  0  0  0  0  0  0  0  0  0  0  0
   11.3424    3.5439    0.0000 H   0  0  0  0  0  0  0  0  0  0  0  0
   12.0829    3.5439    0.0000 H   0  0  0  0  0  0  0  0  0  0  0  0
   12.7974    5.4309    0.0000 H   0  0  0  0  0  0  0  0  0  0  0  0
   12.0569    5.4309    0.0000 H   0  0  0  0  0  0  0  0  0  0  0  0
   12.7714    3.5439    0.0000 H   0  0  0  0  0  0  0  0  0  0  0  0
   13.5119    3.5439    0.0000 H   0  0  0  0  0  0  0  0  0  0  0  0
   13.7456    3.4561    0.0000 H   0  0  0  0  0  0  0  0  0  0  0  0
   14.5706    2.6311    0.0000 H   0  0  0  0  0  0  0  0  0  0  0  0
   15.3956    3.4561    0.0000 H   0  0  0  0  0  0  0  0  0  0  0  0
   15.6553    5.4309    0.0000 H   0  0  0  0  0  0  0  0  0  0  0  0
   14.9148    5.4309    0.0000 H   0  0  0  0  0  0  0  0  0  0  0  0
   17.4284    4.2811    0.0000 H   0  0  0  0  0  0  0  0  0  0  0  0
  1  2  1  0  0  0  0
  2  3  1  0  0  0  0
  3  4  1  0  0  0  0
  4  5  1  0  0  0  0
  5  6  1  0  0  0  0
  6  7  1  0  0  0  0
  7  8  1  0  0  0  0
  8  9  1  0  0  0  0
  9 10  1  0  0  0  0
 10 11  1  0  0  0  0
 11 12  1  0  0  0  0
 12 13  2  0  0  0  0
 12 14  1  0  0  0  0
 14 15  1  0  0  0  0
 14 16  1  0  0  0  0
 16 17  1  0  0  0  0
 17 18  1  0  0  0  0
 17 19  2  0  0  0  0
  1 20  1  0  0  0  0
  1 21  1  0  0  0  0
  1 22  1  0  0  0  0
  2 23  1  0  0  0  0
  2 24  1  0  0  0  0
  3 25  1  0  0  0  0
  3 26  1  0  0  0  0
  4 27  1  0  0  0  0
  4 28  1  0  0  0  0
  5 29  1  0  0  0  0
  5 30  1  0  0  0  0
  6 31  1  0  0  0  0
  6 32  1  0  0  0  0
  7 33  1  0  0  0  0
  7 34  1  0  0  0  0
  8 35  1  0  0  0  0
  8 36  1  0  0  0  0
  9 37  1  0  0  0  0
  9 38  1  0  0  0  0
 10 39  1  0  0  0  0
 10 40  1  0  0  0  0
 11 41  1  0  0  0  0
 11 42  1  0  0  0  0
 15 43  1  0  0  0  0
 15 44  1  0  0  0  0
 15 45  1  0  0  0  0
 16 46  1  0  0  0  0
 16 47  1  0  0  0  0
 18 48  1  0  0  0  0
M  END
>  <InChIKey>
BACYUWVYYTXETD-UHFFFAOYSA-M

>  <UN GHS>
2A

>  <CASRN>
137-16-6

> <Outcome>
1

>  <Index>
31

>  <StandardizerResult>
Clear Stereo (ID: ClearStereo)
Wedge Clean (ID: WedgeClean)
Mesomerize (ID: Mesomerize)
Tautomerize (ID: Tautomerize)
Add Explicit Hydrogens (ID: AddExplicitH)
Neutralize (ID: Neutralize)
Clean 2D (ID: Clean2D)

> <knn Distance>


> <CpId>
31

$$$$
36
  Mrv1532301301811342D          

 19 18  0  0  0  0            999 V2000
    2.5338   -1.5023    0.0000 C   0  0  0  0  0  0  0  0  0  0  0  0
    1.7088   -1.5023    0.0000 S   0  0  0  0  0  0  0  0  0  0  0  0
    1.2963   -0.7878    0.0000 C   0  0  0  0  0  0  0  0  0  0  0  0
    2.0108   -0.3753    0.0000 C   0  0  0  0  0  0  0  0  0  0  0  0
    0.5819   -1.2003    0.0000 C   0  0  0  0  0  0  0  0  0  0  0  0
    0.8838   -0.0734    0.0000 S   0  0  0  0  0  0  0  0  0  0  0  0
    0.0588   -0.0734    0.0000 C   0  0  0  0  0  0  0  0  0  0  0  0
    2.5338   -2.3273    0.0000 H   0  0  0  0  0  0  0  0  0  0  0  0
    3.3588   -1.5023    0.0000 H   0  0  0  0  0  0  0  0  0  0  0  0
    2.5338   -0.6773    0.0000 H   0  0  0  0  0  0  0  0  0  0  0  0
    2.7253    0.0372    0.0000 H   0  0  0  0  0  0  0  0  0  0  0  0
    2.0108    0.4497    0.0000 H   0  0  0  0  0  0  0  0  0  0  0  0
    1.2963    0.0372    0.0000 H   0  0  0  0  0  0  0  0  0  0  0  0
    0.1694   -0.4859    0.0000 H   0  0  0  0  0  0  0  0  0  0  0  0
   -0.1326   -1.6128    0.0000 H   0  0  0  0  0  0  0  0  0  0  0  0
    0.9944   -1.9148    0.0000 H   0  0  0  0  0  0  0  0  0  0  0  0
    0.3240    0.7078    0.0000 H   0  0  0  0  0  0  0  0  0  0  0  0
   -0.5957    0.4289    0.0000 H   0  0  0  0  0  0  0  0  0  0  0  0
   -0.6271   -0.5317    0.0000 H   0  0  0  0  0  0  0  0  0  0  0  0
  1  2  1  0  0  0  0
  2  3  1  0  0  0  0
  3  4  1  0  0  0  0
  3  5  1  0  0  0  0
  3  6  1  0  0  0  0
  6  7  1  0  0  0  0
  1  8  1  0  0  0  0
  1  9  1  0  0  0  0
  1 10  1  0  0  0  0
  4 11  1  0  0  0  0
  4 12  1  0  0  0  0
  4 13  1  0  0  0  0
  5 14  1  0  0  0  0
  5 15  1  0  0  0  0
  5 16  1  0  0  0  0
  7 17  1  0  0  0  0
  7 18  1  0  0  0  0
  7 19  1  0  0  0  0
M  END
>  <InChIKey>
BBYNYNMPOUQKKS-UHFFFAOYSA-N

>  <UN GHS>
2A

> <Outcome>
1

>  <Index>
36

>  <StandardizerResult>
Clear Stereo (ID: ClearStereo)
Wedge Clean (ID: WedgeClean)
Mesomerize (ID: Mesomerize)
Tautomerize (ID: Tautomerize)
Add Explicit Hydrogens (ID: AddExplicitH)
Neutralize (ID: Neutralize)
Clean 2D (ID: Clean2D)

> <knn Distance>


> <CpId>
36

$$$$
37
  Mrv1532301301811342D          

 12 11  0  0  0  0            999 V2000
    2.0625   -0.7145    0.0000 C   0  0  0  0  0  0  0  0  0  0  0  0
    1.2375   -0.7145    0.0000 C   0  0  0  0  0  0  0  0  0  0  0  0
    0.8250   -0.0000    0.0000 C   0  0  0  0  0  0  0  0  0  0  0  0
    0.0000   -0.0000    0.0000 O   0  0  0  0  0  0  0  0  0  0  0  0
    2.0625   -1.5395    0.0000 H   0  0  0  0  0  0  0  0  0  0  0  0
    2.8875   -0.7145    0.0000 H   0  0  0  0  0  0  0  0  0  0  0  0
    2.0625    0.1105    0.0000 H   0  0  0  0  0  0  0  0  0  0  0  0
    0.5482   -1.1678    0.0000 H   0  0  0  0  0  0  0  0  0  0  0  0
    1.1895   -1.5381    0.0000 H   0  0  0  0  0  0  0  0  0  0  0  0
    1.5143    0.4533    0.0000 H   0  0  0  0  0  0  0  0  0  0  0  0
    0.8730    0.8236    0.0000 H   0  0  0  0  0  0  0  0  0  0  0  0
   -0.4125    0.7145    0.0000 H   0  0  0  0  0  0  0  0  0  0  0  0
  1  2  1  0  0  0  0
  2  3  1  0  0  0  0
  3  4  1  0  0  0  0
  1  5  1  0  0  0  0
  1  6  1  0  0  0  0
  1  7  1  0  0  0  0
  2  8  1  0  0  0  0
  2  9  1  0  0  0  0
  3 10  1  0  0  0  0
  3 11  1  0  0  0  0
  4 12  1  0  0  0  0
M  END
>  <InChIKey>
BDERNNFJNOPAEC-UHFFFAOYSA-N

>  <UN GHS>
1

>  <CASRN>
71-23-8

> <Outcome>
1

>  <Index>
37

>  <StandardizerResult>
Clear Stereo (ID: ClearStereo)
Wedge Clean (ID: WedgeClean)
Mesomerize (ID: Mesomerize)
Tautomerize (ID: Tautomerize)
Add Explicit Hydrogens (ID: AddExplicitH)
Neutralize (ID: Neutralize)
Clean 2D (ID: Clean2D)

> <knn Distance>


> <CpId>
37

$$$$
41
  Mrv1532301301811342D          

 24 24  0  0  0  0            999 V2000
    2.1841    1.8715    0.0000 C   0  0  0  0  0  0  0  0  0  0  0  0
    1.3716    2.0147    0.0000 C   0  0  0  0  0  0  0  0  0  0  0  0
    0.8413    1.3828    0.0000 C   0  0  0  0  0  0  0  0  0  0  0  0
    0.3110    2.0147    0.0000 C   0  0  0  0  0  0  0  0  0  0  0  0
   -0.5014    1.8715    0.0000 O   0  0  0  0  0  0  0  0  0  0  0  0
    1.5558    0.9703    0.0000 C   0  0  0  0  0  0  0  0  0  0  0  0
    1.5558    0.1453    0.0000 O   0  0  0  0  0  0  0  0  0  0  0  0
    0.8413   -0.2672    0.0000 C   0  0  0  0  0  0  0  0  0  0  0  0
    0.1269    0.1453    0.0000 O   0  0  0  0  0  0  0  0  0  0  0  0
    0.1269    0.9703    0.0000 C   0  0  0  0  0  0  0  0  0  0  0  0
    2.0408    1.0590    0.0000 H   0  0  0  0  0  0  0  0  0  0  0  0
    2.9966    1.7282    0.0000 H   0  0  0  0  0  0  0  0  0  0  0  0
    2.3274    2.6840    0.0000 H   0  0  0  0  0  0  0  0  0  0  0  0
    1.4674    2.8342    0.0000 H   0  0  0  0  0  0  0  0  0  0  0  0
    0.7716    2.5809    0.0000 H   0  0  0  0  0  0  0  0  0  0  0  0
   -0.1069    2.7261    0.0000 H   0  0  0  0  0  0  0  0  0  0  0  0
    0.0289    1.2395    0.0000 H   0  0  0  0  0  0  0  0  0  0  0  0
   -1.3192    1.7622    0.0000 H   0  0  0  0  0  0  0  0  0  0  0  0
    1.6964    1.7832    0.0000 H   0  0  0  0  0  0  0  0  0  0  0  0
    0.8413    0.5578    0.0000 H   0  0  0  0  0  0  0  0  0  0  0  0
    0.4711   -1.0045    0.0000 H   0  0  0  0  0  0  0  0  0  0  0  0
    1.2116   -1.0045    0.0000 H   0  0  0  0  0  0  0  0  0  0  0  0
   -0.6635    1.2069    0.0000 H   0  0  0  0  0  0  0  0  0  0  0  0
   -0.5349    0.4776    0.0000 H   0  0  0  0  0  0  0  0  0  0  0  0
  1  2  1  0  0  0  0
  2  3  1  0  0  0  0
  3  4  1  0  0  0  0
  4  5  1  0  0  0  0
  3  6  1  0  0  0  0
  6  7  1  0  0  0  0
  7  8  1  0  0  0  0
  8  9  1  0  0  0  0
  9 10  1  0  0  0  0
  3 10  1  0  0  0  0
  1 11  1  0  0  0  0
  1 12  1  0  0  0  0
  1 13  1  0  0  0  0
  2 14  1  0  0  0  0
  2 15  1  0  0  0  0
  4 16  1  0  0  0  0
  4 17  1  0  0  0  0
  5 18  1  0  0  0  0
  6 19  1  0  0  0  0
  6 20  1  0  0  0  0
  8 21  1  0  0  0  0
  8 22  1  0  0  0  0
 10 23  1  0  0  0  0
 10 24  1  0  0  0  0
M  END
>  <InChIKey>
BGFBWRWYROQISE-UHFFFAOYSA-N

>  <UN GHS>
2A

>  <CASRN>
5187-23-5

> <Outcome>
1

>  <Index>
41

>  <StandardizerResult>
Clear Stereo (ID: ClearStereo)
Wedge Clean (ID: WedgeClean)
Mesomerize (ID: Mesomerize)
Tautomerize (ID: Tautomerize)
Add Explicit Hydrogens (ID: AddExplicitH)
Neutralize (ID: Neutralize)
Clean 2D (ID: Clean2D)

> <knn Distance>


> <CpId>
41

$$$$
44
  Mrv1532301301811342D          

 14 14  0  0  0  0            999 V2000
    2.1104    0.8199    0.0000 O   0  0  0  0  0  0  0  0  0  0  0  0
    1.3258    0.5649    0.0000 C   0  0  0  0  0  0  0  0  0  0  0  0
    1.0709   -0.2197    0.0000 C   0  0  0  0  0  0  0  0  0  0  0  0
    0.2459   -0.2197    0.0000 C   0  0  0  0  0  0  0  0  0  0  0  0
   -0.0091    0.5649    0.0000 C   0  0  0  0  0  0  0  0  0  0  0  0
    0.6584    1.0499    0.0000 C   0  0  0  0  0  0  0  0  0  0  0  0
    1.1857   -1.0367    0.0000 H   0  0  0  0  0  0  0  0  0  0  0  0
    1.8124   -0.5813    0.0000 H   0  0  0  0  0  0  0  0  0  0  0  0
   -0.4956   -0.5813    0.0000 H   0  0  0  0  0  0  0  0  0  0  0  0
    0.1311   -1.0367    0.0000 H   0  0  0  0  0  0  0  0  0  0  0  0
   -0.5822    1.1584    0.0000 H   0  0  0  0  0  0  0  0  0  0  0  0
   -0.8215    0.4217    0.0000 H   0  0  0  0  0  0  0  0  0  0  0  0
    1.0457    1.7783    0.0000 H   0  0  0  0  0  0  0  0  0  0  0  0
    0.2711    1.7783    0.0000 H   0  0  0  0  0  0  0  0  0  0  0  0
  1  2  2  0  0  0  0
  2  3  1  0  0  0  0
  3  4  1  0  0  0  0
  4  5  1  0  0  0  0
  5  6  1  0  0  0  0
  2  6  1  0  0  0  0
  3  7  1  0  0  0  0
  3  8  1  0  0  0  0
  4  9  1  0  0  0  0
  4 10  1  0  0  0  0
  5 11  1  0  0  0  0
  5 12  1  0  0  0  0
  6 13  1  0  0  0  0
  6 14  1  0  0  0  0
M  END
>  <InChIKey>
BGTOWKSIORTVQH-UHFFFAOYSA-N

>  <UN GHS>
2A

>  <CASRN>
120-92-3

> <Outcome>
1

>  <Index>
44

>  <StandardizerResult>
Clear Stereo (ID: ClearStereo)
Wedge Clean (ID: WedgeClean)
Mesomerize (ID: Mesomerize)
Tautomerize (ID: Tautomerize)
Add Explicit Hydrogens (ID: AddExplicitH)
Neutralize (ID: Neutralize)
Clean 2D (ID: Clean2D)

> <knn Distance>


> <CpId>
44

$$$$
51
  Mrv1532301301811342D          

 54 54  0  0  0  0            999 V2000
    1.4289   -4.9500    0.0000 C   0  0  0  0  0  0  0  0  0  0  0  0
    2.1434   -5.3625    0.0000 C   0  0  0  0  0  0  0  0  0  0  0  0
    2.8579   -4.9500    0.0000 C   0  0  0  0  0  0  0  0  0  0  0  0
    3.5724   -5.3625    0.0000 C   0  0  0  0  0  0  0  0  0  0  0  0
    4.2868   -4.9500    0.0000 C   0  0  0  0  0  0  0  0  0  0  0  0
    5.0013   -5.3625    0.0000 C   0  0  0  0  0  0  0  0  0  0  0  0
    5.7158   -4.9500    0.0000 C   0  0  0  0  0  0  0  0  0  0  0  0
    6.4302   -5.3625    0.0000 C   0  0  0  0  0  0  0  0  0  0  0  0
    7.1447   -4.9500    0.0000 C   0  0  0  0  0  0  0  0  0  0  0  0
    7.8592   -5.3625    0.0000 C   0  0  0  0  0  0  0  0  0  0  0  0
    8.5737   -4.9500    0.0000 C   0  0  0  0  0  0  0  0  0  0  0  0
    9.2881   -5.3625    0.0000 C   0  0  0  0  0  0  0  0  0  0  0  0
    9.2881   -6.1875    0.0000 C   0  0  0  0  0  0  0  0  0  0  0  0
   10.0026   -6.6000    0.0000 O   0  0  0  0  0  0  0  0  0  0  0  0
   10.0026   -7.4250    0.0000 C   0  0  0  0  0  0  0  0  0  0  0  0
   10.7171   -7.8375    0.0000 C   0  0  0  0  0  0  0  0  0  0  0  0
   10.7171   -8.6625    0.0000 O   0  0  0  0  0  0  0  0  0  0  0  0
   11.4315   -9.0750    0.0000 C   0  0  0  0  0  0  0  0  0  0  0  0
   11.4315   -9.9000    0.0000 C   0  0  0  0  0  0  0  0  0  0  0  0
   12.1460  -10.3125    0.0000 O   0  0  0  0  0  0  0  0  0  0  0  0
    8.5737   -6.6000    0.0000 C   0  0  0  0  0  0  0  0  0  0  0  0
    7.8592   -6.1875    0.0000 C   0  0  0  0  0  0  0  0  0  0  0  0
    1.8414   -4.2355    0.0000 H   0  0  0  0  0  0  0  0  0  0  0  0
    0.7145   -4.5375    0.0000 H   0  0  0  0  0  0  0  0  0  0  0  0
    1.0164   -5.6645    0.0000 H   0  0  0  0  0  0  0  0  0  0  0  0
    1.7732   -6.0997    0.0000 H   0  0  0  0  0  0  0  0  0  0  0  0
    2.5137   -6.0997    0.0000 H   0  0  0  0  0  0  0  0  0  0  0  0
    3.2281   -4.2128    0.0000 H   0  0  0  0  0  0  0  0  0  0  0  0
    2.4876   -4.2128    0.0000 H   0  0  0  0  0  0  0  0  0  0  0  0
    3.2021   -6.0997    0.0000 H   0  0  0  0  0  0  0  0  0  0  0  0
    3.9426   -6.0997    0.0000 H   0  0  0  0  0  0  0  0  0  0  0  0
    4.6571   -4.2128    0.0000 H   0  0  0  0  0  0  0  0  0  0  0  0
    3.9166   -4.2128    0.0000 H   0  0  0  0  0  0  0  0  0  0  0  0
    4.6310   -6.0997    0.0000 H   0  0  0  0  0  0  0  0  0  0  0  0
    5.3716   -6.0997    0.0000 H   0  0  0  0  0  0  0  0  0  0  0  0
    6.0860   -4.2128    0.0000 H   0  0  0  0  0  0  0  0  0  0  0  0
    5.3455   -4.2128    0.0000 H   0  0  0  0  0  0  0  0  0  0  0  0
    6.0600   -6.0997    0.0000 H   0  0  0  0  0  0  0  0  0  0  0  0
    6.8005   -6.0997    0.0000 H   0  0  0  0  0  0  0  0  0  0  0  0
    7.5150   -4.2128    0.0000 H   0  0  0  0  0  0  0  0  0  0  0  0
    6.7745   -4.2128    0.0000 H   0  0  0  0  0  0  0  0  0  0  0  0
    8.5737   -4.1250    0.0000 H   0  0  0  0  0  0  0  0  0  0  0  0
   10.0026   -4.9500    0.0000 H   0  0  0  0  0  0  0  0  0  0  0  0
    9.1790   -7.4730    0.0000 H   0  0  0  0  0  0  0  0  0  0  0  0
    9.5493   -8.1143    0.0000 H   0  0  0  0  0  0  0  0  0  0  0  0
   11.5407   -7.7895    0.0000 H   0  0  0  0  0  0  0  0  0  0  0  0
   11.1704   -7.1482    0.0000 H   0  0  0  0  0  0  0  0  0  0  0  0
   12.2551   -9.0270    0.0000 H   0  0  0  0  0  0  0  0  0  0  0  0
   11.8849   -8.3857    0.0000 H   0  0  0  0  0  0  0  0  0  0  0  0
   10.6079   -9.9480    0.0000 H   0  0  0  0  0  0  0  0  0  0  0  0
   10.9782  -10.5893    0.0000 H   0  0  0  0  0  0  0  0  0  0  0  0
   12.1460  -11.1375    0.0000 H   0  0  0  0  0  0  0  0  0  0  0  0
    8.5737   -7.4250    0.0000 H   0  0  0  0  0  0  0  0  0  0  0  0
    7.1447   -6.6000    0.0000 H   0  0  0  0  0  0  0  0  0  0  0  0
  1  2  1  0  0  0  0
  2  3  1  0  0  0  0
  3  4  1  0  0  0  0
  4  5  1  0  0  0  0
  5  6  1  0  0  0  0
  6  7  1  0  0  0  0
  7  8  1  0  0  0  0
  8  9  1  0  0  0  0
  9 10  1  0  0  0  0
 10 11  4  0  0  0  0
 11 12  4  0  0  0  0
 12 13  4  0  0  0  0
 13 14  1  0  0  0  0
 14 15  1  0  0  0  0
 15 16  1  0  0  0  0
 16 17  1  0  0  0  0
 17 18  1  0  0  0  0
 18 19  1  0  0  0  0
 19 20  1  0  0  0  0
 13 21  4  0  0  0  0
 21 22  4  0  0  0  0
 10 22  4  0  0  0  0
  1 23  1  0  0  0  0
  1 24  1  0  0  0  0
  1 25  1  0  0  0  0
  2 26  1  0  0  0  0
  2 27  1  0  0  0  0
  3 28  1  0  0  0  0
  3 29  1  0  0  0  0
  4 30  1  0  0  0  0
  4 31  1  0  0  0  0
  5 32  1  0  0  0  0
  5 33  1  0  0  0  0
  6 34  1  0  0  0  0
  6 35  1  0  0  0  0
  7 36  1  0  0  0  0
  7 37  1  0  0  0  0
  8 38  1  0  0  0  0
  8 39  1  0  0  0  0
  9 40  1  0  0  0  0
  9 41  1  0  0  0  0
 11 42  1  0  0  0  0
 12 43  1  0  0  0  0
 15 44  1  0  0  0  0
 15 45  1  0  0  0  0
 16 46  1  0  0  0  0
 16 47  1  0  0  0  0
 18 48  1  0  0  0  0
 18 49  1  0  0  0  0
 19 50  1  0  0  0  0
 19 51  1  0  0  0  0
 20 52  1  0  0  0  0
 21 53  1  0  0  0  0
 22 54  1  0  0  0  0
M  END
>  <InChIKey>
BLXVTZPGEOGTGG-UHFFFAOYSA-N

>  <UN GHS>
2A

>  <CASRN>
68412-54-4

> <Outcome>
1

>  <Index>
51

>  <StandardizerResult>
Dearomatize (ID: Dearomatize)
Clear Stereo (ID: ClearStereo)
Wedge Clean (ID: WedgeClean)
Mesomerize (ID: Mesomerize)
Tautomerize (ID: Tautomerize)
Aromatize (ID: Aromatize)
Add Explicit Hydrogens (ID: AddExplicitH)
Neutralize (ID: Neutralize)
Clean 2D (ID: Clean2D)

> <knn Distance>


> <CpId>
51

$$$$
55
  Mrv1532301301811342D          

 35 35  0  0  0  0            999 V2000
   -2.6005    5.8093    0.0000 C   0  0  0  0  0  0  0  0  0  0  0  0
   -2.6005    4.9843    0.0000 O   0  0  0  0  0  0  0  0  0  0  0  0
   -1.8860    4.5718    0.0000 Si  0  0  0  0  0  0  0  0  0  0  0  0
   -1.1716    4.1593    0.0000 C   0  0  0  0  0  0  0  0  0  0  0  0
   -1.1716    3.3343    0.0000 C   0  0  0  0  0  0  0  0  0  0  0  0
   -0.4571    2.9218    0.0000 C   0  0  0  0  0  0  0  0  0  0  0  0
   -0.4571    2.0968    0.0000 O   0  0  0  0  0  0  0  0  0  0  0  0
    0.2574    1.6843    0.0000 C   0  0  0  0  0  0  0  0  0  0  0  0
    0.2574    0.8593    0.0000 C   0  0  0  0  0  0  0  0  0  0  0  0
    0.6699    0.1448    0.0000 C   0  0  0  0  0  0  0  0  0  0  0  0
   -0.1551    0.1448    0.0000 O   0  0  0  0  0  0  0  0  0  0  0  0
   -2.2985    3.8573    0.0000 O   0  0  0  0  0  0  0  0  0  0  0  0
   -1.8860    3.1428    0.0000 C   0  0  0  0  0  0  0  0  0  0  0  0
   -1.4735    5.2862    0.0000 O   0  0  0  0  0  0  0  0  0  0  0  0
   -0.6485    5.2862    0.0000 C   0  0  0  0  0  0  0  0  0  0  0  0
   -1.7755    5.8093    0.0000 H   0  0  0  0  0  0  0  0  0  0  0  0
   -2.6005    6.6343    0.0000 H   0  0  0  0  0  0  0  0  0  0  0  0
   -3.4255    5.8093    0.0000 H   0  0  0  0  0  0  0  0  0  0  0  0
   -0.3480    4.2072    0.0000 H   0  0  0  0  0  0  0  0  0  0  0  0
   -0.7182    4.8485    0.0000 H   0  0  0  0  0  0  0  0  0  0  0  0
   -1.2793    2.5163    0.0000 H   0  0  0  0  0  0  0  0  0  0  0  0
   -0.4571    3.7468    0.0000 H   0  0  0  0  0  0  0  0  0  0  0  0
    0.3181    2.6396    0.0000 H   0  0  0  0  0  0  0  0  0  0  0  0
    0.3181    3.2039    0.0000 H   0  0  0  0  0  0  0  0  0  0  0  0
    0.9629    1.2567    0.0000 H   0  0  0  0  0  0  0  0  0  0  0  0
    0.9887    2.0661    0.0000 H   0  0  0  0  0  0  0  0  0  0  0  0
   -0.5395    1.0728    0.0000 H   0  0  0  0  0  0  0  0  0  0  0  0
    1.0401   -0.5924    0.0000 H   0  0  0  0  0  0  0  0  0  0  0  0
    1.4935    0.1928    0.0000 H   0  0  0  0  0  0  0  0  0  0  0  0
   -2.6811    2.9227    0.0000 H   0  0  0  0  0  0  0  0  0  0  0  0
   -2.3158    2.4386    0.0000 H   0  0  0  0  0  0  0  0  0  0  0  0
   -1.5703    3.9050    0.0000 H   0  0  0  0  0  0  0  0  0  0  0  0
    0.0710    4.8827    0.0000 H   0  0  0  0  0  0  0  0  0  0  0  0
   -0.0210    5.8218    0.0000 H   0  0  0  0  0  0  0  0  0  0  0  0
   -0.9339    6.0603    0.0000 H   0  0  0  0  0  0  0  0  0  0  0  0
  1  2  1  0  0  0  0
  2  3  1  0  0  0  0
  3  4  1  0  0  0  0
  4  5  1  0  0  0  0
  5  6  1  0  0  0  0
  6  7  1  0  0  0  0
  7  8  1  0  0  0  0
  8  9  1  0  0  0  0
  9 10  1  0  0  0  0
 10 11  1  0  0  0  0
  9 11  1  0  0  0  0
  3 12  1  0  0  0  0
 12 13  1  0  0  0  0
  3 14  1  0  0  0  0
 14 15  1  0  0  0  0
  1 16  1  0  0  0  0
  1 17  1  0  0  0  0
  1 18  1  0  0  0  0
  4 19  1  0  0  0  0
  4 20  1  0  0  0  0
  5 21  1  0  0  0  0
  5 22  1  0  0  0  0
  6 23  1  0  0  0  0
  6 24  1  0  0  0  0
  8 25  1  0  0  0  0
  8 26  1  0  0  0  0
  9 27  1  0  0  0  0
 10 28  1  0  0  0  0
 10 29  1  0  0  0  0
 13 30  1  0  0  0  0
 13 31  1  0  0  0  0
 13 32  1  0  0  0  0
 15 33  1  0  0  0  0
 15 34  1  0  0  0  0
 15 35  1  0  0  0  0
M  END
>  <InChIKey>
BPSIOYPQMFLKFR-UHFFFAOYSA-N

>  <UN GHS>
2A

>  <CASRN>
2530-83-8

> <Outcome>
1

>  <Index>
55

>  <StandardizerResult>
Clear Stereo (ID: ClearStereo)
Wedge Clean (ID: WedgeClean)
Mesomerize (ID: Mesomerize)
Tautomerize (ID: Tautomerize)
Add Explicit Hydrogens (ID: AddExplicitH)
Neutralize (ID: Neutralize)
Clean 2D (ID: Clean2D)

> <knn Distance>


> <CpId>
55

$$$$
62
  Mrv1532301301811342D          

 13 13  0  0  0  0            999 V2000
    0.7145    2.0625    0.0000 O   0  0  0  0  0  0  0  0  0  0  0  0
    0.7145    1.2375    0.0000 C   0  0  0  0  0  0  0  0  0  0  0  0
    1.4289    0.8250    0.0000 C   0  0  0  0  0  0  0  0  0  0  0  0
    2.1434    1.2375    0.0000 Br  0  0  0  0  0  0  0  0  0  0  0  0
    1.4289    0.0000    0.0000 C   0  0  0  0  0  0  0  0  0  0  0  0
    0.7145   -0.4125    0.0000 C   0  0  0  0  0  0  0  0  0  0  0  0
    0.7145   -1.2375    0.0000 Br  0  0  0  0  0  0  0  0  0  0  0  0
   -0.0000    0.0000    0.0000 C   0  0  0  0  0  0  0  0  0  0  0  0
   -0.0000    0.8250    0.0000 C   0  0  0  0  0  0  0  0  0  0  0  0
   -0.7145    1.2375    0.0000 Br  0  0  0  0  0  0  0  0  0  0  0  0
    1.4289    2.4750    0.0000 H   0  0  0  0  0  0  0  0  0  0  0  0
    2.1434   -0.4125    0.0000 H   0  0  0  0  0  0  0  0  0  0  0  0
   -0.7145   -0.4125    0.0000 H   0  0  0  0  0  0  0  0  0  0  0  0
  1  2  1  0  0  0  0
  2  3  4  0  0  0  0
  3  4  1  0  0  0  0
  3  5  4  0  0  0  0
  5  6  4  0  0  0  0
  6  7  1  0  0  0  0
  6  8  4  0  0  0  0
  8  9  4  0  0  0  0
  2  9  4  0  0  0  0
  9 10  1  0  0  0  0
  1 11  1  0  0  0  0
  5 12  1  0  0  0  0
  8 13  1  0  0  0  0
M  END
>  <InChIKey>
BSWWXRFVMJHFBN-UHFFFAOYSA-N

>  <UN GHS>
2A

>  <CASRN>
118-79-6

> <Outcome>
1

>  <Index>
62

>  <StandardizerResult>
Dearomatize (ID: Dearomatize)
Clear Stereo (ID: ClearStereo)
Wedge Clean (ID: WedgeClean)
Mesomerize (ID: Mesomerize)
Tautomerize (ID: Tautomerize)
Aromatize (ID: Aromatize)
Add Explicit Hydrogens (ID: AddExplicitH)
Neutralize (ID: Neutralize)
Clean 2D (ID: Clean2D)

> <knn Distance>


> <CpId>
62

$$$$
68
  Mrv1532301301811342D          

 46 45  0  0  0  0            999 V2000
   -0.0784    5.7868    0.0000 C   0  0  0  0  0  0  0  0  0  0  0  0
    0.3341    5.0724    0.0000 C   0  0  0  0  0  0  0  0  0  0  0  0
    1.1591    5.0724    0.0000 C   0  0  0  0  0  0  0  0  0  0  0  0
   -0.0784    4.3579    0.0000 C   0  0  0  0  0  0  0  0  0  0  0  0
    0.3341    3.6434    0.0000 C   0  0  0  0  0  0  0  0  0  0  0  0
   -0.3804    3.2309    0.0000 C   0  0  0  0  0  0  0  0  0  0  0  0
    1.0486    4.0559    0.0000 O   0  0  0  0  0  0  0  0  0  0  0  0
    0.7466    2.9290    0.0000 C   0  0  0  0  0  0  0  0  0  0  0  0
    0.3341    2.2145    0.0000 C   0  0  0  0  0  0  0  0  0  0  0  0
    0.7466    1.5000    0.0000 C   0  0  0  0  0  0  0  0  0  0  0  0
    0.0321    1.0875    0.0000 C   0  0  0  0  0  0  0  0  0  0  0  0
    1.4611    1.9125    0.0000 O   0  0  0  0  0  0  0  0  0  0  0  0
    1.1591    0.7855    0.0000 C   0  0  0  0  0  0  0  0  0  0  0  0
    0.7466    0.0711    0.0000 C   0  0  0  0  0  0  0  0  0  0  0  0
    1.1591   -0.6434    0.0000 C   0  0  0  0  0  0  0  0  0  0  0  0
   -0.0784    0.0711    0.0000 C   0  0  0  0  0  0  0  0  0  0  0  0
    0.6361    6.1993    0.0000 H   0  0  0  0  0  0  0  0  0  0  0  0
   -0.4909    6.5013    0.0000 H   0  0  0  0  0  0  0  0  0  0  0  0
   -0.7929    5.3743    0.0000 H   0  0  0  0  0  0  0  0  0  0  0  0
    0.7466    5.7868    0.0000 H   0  0  0  0  0  0  0  0  0  0  0  0
    0.9456    4.2755    0.0000 H   0  0  0  0  0  0  0  0  0  0  0  0
    1.8736    4.6599    0.0000 H   0  0  0  0  0  0  0  0  0  0  0  0
    1.7425    5.6557    0.0000 H   0  0  0  0  0  0  0  0  0  0  0  0
   -0.8156    4.7282    0.0000 H   0  0  0  0  0  0  0  0  0  0  0  0
   -0.8156    3.9876    0.0000 H   0  0  0  0  0  0  0  0  0  0  0  0
   -1.1984    3.1242    0.0000 H   0  0  0  0  0  0  0  0  0  0  0  0
   -0.5945    2.4342    0.0000 H   0  0  0  0  0  0  0  0  0  0  0  0
    0.2740    2.7284    0.0000 H   0  0  0  0  0  0  0  0  0  0  0  0
    1.8357    3.8088    0.0000 H   0  0  0  0  0  0  0  0  0  0  0  0
    1.4839    2.5587    0.0000 H   0  0  0  0  0  0  0  0  0  0  0  0
    1.4839    3.2992    0.0000 H   0  0  0  0  0  0  0  0  0  0  0  0
   -0.1584    1.5526    0.0000 H   0  0  0  0  0  0  0  0  0  0  0  0
    1.1591    2.2145    0.0000 H   0  0  0  0  0  0  0  0  0  0  0  0
   -0.7925    1.0629    0.0000 H   0  0  0  0  0  0  0  0  0  0  0  0
   -0.2346    0.3068    0.0000 H   0  0  0  0  0  0  0  0  0  0  0  0
    0.6694    0.5635    0.0000 H   0  0  0  0  0  0  0  0  0  0  0  0
    2.1682    1.4875    0.0000 H   0  0  0  0  0  0  0  0  0  0  0  0
    1.8964    0.4153    0.0000 H   0  0  0  0  0  0  0  0  0  0  0  0
    1.8964    1.1558    0.0000 H   0  0  0  0  0  0  0  0  0  0  0  0
    1.5716    0.0711    0.0000 H   0  0  0  0  0  0  0  0  0  0  0  0
    0.3622   -0.8569    0.0000 H   0  0  0  0  0  0  0  0  0  0  0  0
    1.1591   -1.4684    0.0000 H   0  0  0  0  0  0  0  0  0  0  0  0
    1.9560   -0.8569    0.0000 H   0  0  0  0  0  0  0  0  0  0  0  0
   -0.9025    0.0330    0.0000 H   0  0  0  0  0  0  0  0  0  0  0  0
   -0.4687   -0.6557    0.0000 H   0  0  0  0  0  0  0  0  0  0  0  0
    0.3450   -0.6370    0.0000 H   0  0  0  0  0  0  0  0  0  0  0  0
  1  2  1  0  0  0  0
  2  3  1  0  0  0  0
  2  4  1  0  0  0  0
  4  5  1  0  0  0  0
  5  6  1  0  0  0  0
  5  7  1  0  0  0  0
  5  8  1  0  0  0  0
  8  9  1  0  0  0  0
  9 10  1  0  0  0  0
 10 11  1  0  0  0  0
 10 12  1  0  0  0  0
 10 13  1  0  0  0  0
 13 14  1  0  0  0  0
 14 15  1  0  0  0  0
 14 16  1  0  0  0  0
  1 17  1  0  0  0  0
  1 18  1  0  0  0  0
  1 19  1  0  0  0  0
  2 20  1  0  0  0  0
  3 21  1  0  0  0  0
  3 22  1  0  0  0  0
  3 23  1  0  0  0  0
  4 24  1  0  0  0  0
  4 25  1  0  0  0  0
  6 26  1  0  0  0  0
  6 27  1  0  0  0  0
  6 28  1  0  0  0  0
  7 29  1  0  0  0  0
  8 30  1  0  0  0  0
  8 31  1  0  0  0  0
  9 32  1  0  0  0  0
  9 33  1  0  0  0  0
 11 34  1  0  0  0  0
 11 35  1  0  0  0  0
 11 36  1  0  0  0  0
 12 37  1  0  0  0  0
 13 38  1  0  0  0  0
 13 39  1  0  0  0  0
 14 40  1  0  0  0  0
 15 41  1  0  0  0  0
 15 42  1  0  0  0  0
 15 43  1  0  0  0  0
 16 44  1  0  0  0  0
 16 45  1  0  0  0  0
 16 46  1  0  0  0  0
M  END
>  <InChIKey>
BTRWELPXUDWAGW-UHFFFAOYSA-N

>  <UN GHS>
2A

>  <CASRN>
17913-76-7

> <Outcome>
1

>  <Index>
68

>  <StandardizerResult>
Clear Stereo (ID: ClearStereo)
Wedge Clean (ID: WedgeClean)
Mesomerize (ID: Mesomerize)
Tautomerize (ID: Tautomerize)
Add Explicit Hydrogens (ID: AddExplicitH)
Neutralize (ID: Neutralize)
Clean 2D (ID: Clean2D)

> <knn Distance>


> <CpId>
68

$$$$
69
  Mrv1532301301811342D          

 14 14  0  0  0  0            999 V2000
    0.7145    1.2350    0.0000 C   0  0  0  0  0  0  0  0  0  0  0  0
    1.4289    0.8225    0.0000 C   0  0  0  0  0  0  0  0  0  0  0  0
    1.4289   -0.0025    0.0000 O   0  0  0  0  0  0  0  0  0  0  0  0
    0.7145   -0.4150    0.0000 C   0  0  0  0  0  0  0  0  0  0  0  0
    0.0000   -0.0025    0.0000 C   0  0  0  0  0  0  0  0  0  0  0  0
    0.0000    0.8225    0.0000 C   0  0  0  0  0  0  0  0  0  0  0  0
    1.0847    1.9722    0.0000 H   0  0  0  0  0  0  0  0  0  0  0  0
    0.3442    1.9722    0.0000 H   0  0  0  0  0  0  0  0  0  0  0  0
    2.2526    0.8704    0.0000 H   0  0  0  0  0  0  0  0  0  0  0  0
    1.8823    1.5118    0.0000 H   0  0  0  0  0  0  0  0  0  0  0  0
    0.7145   -1.2400    0.0000 H   0  0  0  0  0  0  0  0  0  0  0  0
   -0.7145   -0.4150    0.0000 H   0  0  0  0  0  0  0  0  0  0  0  0
   -0.4533    1.5118    0.0000 H   0  0  0  0  0  0  0  0  0  0  0  0
   -0.8236    0.8704    0.0000 H   0  0  0  0  0  0  0  0  0  0  0  0
  1  2  1  0  0  0  0
  2  3  1  0  0  0  0
  3  4  1  0  0  0  0
  4  5  2  0  0  0  0
  5  6  1  0  0  0  0
  1  6  1  0  0  0  0
  1  7  1  0  0  0  0
  1  8  1  0  0  0  0
  2  9  1  0  0  0  0
  2 10  1  0  0  0  0
  4 11  1  0  0  0  0
  5 12  1  0  0  0  0
  6 13  1  0  0  0  0
  6 14  1  0  0  0  0
M  END
>  <InChIKey>
BUDQDWGNQVEFAC-UHFFFAOYSA-N

>  <UN GHS>
2A

>  <CASRN>
110-87-2

> <Outcome>
1

>  <Index>
69

>  <StandardizerResult>
Clear Stereo (ID: ClearStereo)
Wedge Clean (ID: WedgeClean)
Mesomerize (ID: Mesomerize)
Tautomerize (ID: Tautomerize)
Add Explicit Hydrogens (ID: AddExplicitH)
Neutralize (ID: Neutralize)
Clean 2D (ID: Clean2D)

> <knn Distance>


> <CpId>
69

$$$$
80
  Mrv1532301301811342D          

 75 74  0  0  0  0            999 V2000
   11.6437    7.5634    0.0000 C   0  0  0  0  0  0  0  0  0  0  0  0
   12.3582    7.1509    0.0000 C   0  0  0  0  0  0  0  0  0  0  0  0
   13.0727    7.5634    0.0000 C   0  0  0  0  0  0  0  0  0  0  0  0
   13.7871    7.1509    0.0000 C   0  0  0  0  0  0  0  0  0  0  0  0
   14.5016    7.5634    0.0000 C   0  0  0  0  0  0  0  0  0  0  0  0
   15.2161    7.1509    0.0000 C   0  0  0  0  0  0  0  0  0  0  0  0
   15.9305    7.5634    0.0000 C   0  0  0  0  0  0  0  0  0  0  0  0
   16.6450    7.1509    0.0000 C   0  0  0  0  0  0  0  0  0  0  0  0
   17.3595    7.5634    0.0000 C   0  0  0  0  0  0  0  0  0  0  0  0
   18.0740    7.1509    0.0000 C   0  0  0  0  0  0  0  0  0  0  0  0
   18.7884    7.5634    0.0000 C   0  0  0  0  0  0  0  0  0  0  0  0
   19.5029    7.1509    0.0000 C   0  0  0  0  0  0  0  0  0  0  0  0
   20.2174    7.5634    0.0000 C   0  0  0  0  0  0  0  0  0  0  0  0
   20.2174    8.3884    0.0000 C   0  0  0  0  0  0  0  0  0  0  0  0
   20.9318    8.8009    0.0000 O   0  0  0  0  0  0  0  0  0  0  0  0
   20.9318    7.1509    0.0000 C   0  0  0  0  0  0  0  0  0  0  0  0
   21.6463    7.5634    0.0000 C   0  0  0  0  0  0  0  0  0  0  0  0
   22.3608    7.1509    0.0000 C   0  0  0  0  0  0  0  0  0  0  0  0
   23.0752    7.5634    0.0000 C   0  0  0  0  0  0  0  0  0  0  0  0
   23.7897    7.1509    0.0000 C   0  0  0  0  0  0  0  0  0  0  0  0
   24.5042    7.5634    0.0000 C   0  0  0  0  0  0  0  0  0  0  0  0
   25.2187    7.1509    0.0000 C   0  0  0  0  0  0  0  0  0  0  0  0
   25.9331    7.5634    0.0000 C   0  0  0  0  0  0  0  0  0  0  0  0
   26.6476    7.1509    0.0000 C   0  0  0  0  0  0  0  0  0  0  0  0
   27.3621    7.5634    0.0000 C   0  0  0  0  0  0  0  0  0  0  0  0
   12.0562    8.2778    0.0000 H   0  0  0  0  0  0  0  0  0  0  0  0
   10.9292    7.9759    0.0000 H   0  0  0  0  0  0  0  0  0  0  0  0
   11.2312    6.8489    0.0000 H   0  0  0  0  0  0  0  0  0  0  0  0
   11.9879    6.4136    0.0000 H   0  0  0  0  0  0  0  0  0  0  0  0
   12.7284    6.4136    0.0000 H   0  0  0  0  0  0  0  0  0  0  0  0
   13.4429    8.3006    0.0000 H   0  0  0  0  0  0  0  0  0  0  0  0
   12.7024    8.3006    0.0000 H   0  0  0  0  0  0  0  0  0  0  0  0
   13.4169    6.4136    0.0000 H   0  0  0  0  0  0  0  0  0  0  0  0
   14.1574    6.4136    0.0000 H   0  0  0  0  0  0  0  0  0  0  0  0
   14.8719    8.3006    0.0000 H   0  0  0  0  0  0  0  0  0  0  0  0
   14.1313    8.3006    0.0000 H   0  0  0  0  0  0  0  0  0  0  0  0
   14.8458    6.4136    0.0000 H   0  0  0  0  0  0  0  0  0  0  0  0
   15.5863    6.4136    0.0000 H   0  0  0  0  0  0  0  0  0  0  0  0
   16.3008    8.3006    0.0000 H   0  0  0  0  0  0  0  0  0  0  0  0
   15.5603    8.3006    0.0000 H   0  0  0  0  0  0  0  0  0  0  0  0
   16.2747    6.4136    0.0000 H   0  0  0  0  0  0  0  0  0  0  0  0
   17.0153    6.4136    0.0000 H   0  0  0  0  0  0  0  0  0  0  0  0
   17.7297    8.3006    0.0000 H   0  0  0  0  0  0  0  0  0  0  0  0
   16.9892    8.3006    0.0000 H   0  0  0  0  0  0  0  0  0  0  0  0
   17.7037    6.4136    0.0000 H   0  0  0  0  0  0  0  0  0  0  0  0
   18.4442    6.4136    0.0000 H   0  0  0  0  0  0  0  0  0  0  0  0
   19.1587    8.3006    0.0000 H   0  0  0  0  0  0  0  0  0  0  0  0
   18.4182    8.3006    0.0000 H   0  0  0  0  0  0  0  0  0  0  0  0
   19.1326    6.4136    0.0000 H   0  0  0  0  0  0  0  0  0  0  0  0
   19.8732    6.4136    0.0000 H   0  0  0  0  0  0  0  0  0  0  0  0
   19.5029    7.9759    0.0000 H   0  0  0  0  0  0  0  0  0  0  0  0
   20.0741    9.2008    0.0000 H   0  0  0  0  0  0  0  0  0  0  0  0
   19.5854    8.9187    0.0000 H   0  0  0  0  0  0  0  0  0  0  0  0
   21.7560    8.8369    0.0000 H   0  0  0  0  0  0  0  0  0  0  0  0
   20.5616    6.4136    0.0000 H   0  0  0  0  0  0  0  0  0  0  0  0
   21.3021    6.4136    0.0000 H   0  0  0  0  0  0  0  0  0  0  0  0
   22.0166    8.3006    0.0000 H   0  0  0  0  0  0  0  0  0  0  0  0
   21.2760    8.3006    0.0000 H   0  0  0  0  0  0  0  0  0  0  0  0
   21.9905    6.4136    0.0000 H   0  0  0  0  0  0  0  0  0  0  0  0
   22.7310    6.4136    0.0000 H   0  0  0  0  0  0  0  0  0  0  0  0
   23.4455    8.3006    0.0000 H   0  0  0  0  0  0  0  0  0  0  0  0
   22.7050    8.3006    0.0000 H   0  0  0  0  0  0  0  0  0  0  0  0
   23.4195    6.4136    0.0000 H   0  0  0  0  0  0  0  0  0  0  0  0
   24.1600    6.4136    0.0000 H   0  0  0  0  0  0  0  0  0  0  0  0
   24.8744    8.3006    0.0000 H   0  0  0  0  0  0  0  0  0  0  0  0
   24.1339    8.3006    0.0000 H   0  0  0  0  0  0  0  0  0  0  0  0
   24.8484    6.4136    0.0000 H   0  0  0  0  0  0  0  0  0  0  0  0
   25.5889    6.4136    0.0000 H   0  0  0  0  0  0  0  0  0  0  0  0
   26.3034    8.3006    0.0000 H   0  0  0  0  0  0  0  0  0  0  0  0
   25.5629    8.3006    0.0000 H   0  0  0  0  0  0  0  0  0  0  0  0
   26.2773    6.4136    0.0000 H   0  0  0  0  0  0  0  0  0  0  0  0
   27.0179    6.4136    0.0000 H   0  0  0  0  0  0  0  0  0  0  0  0
   27.7746    6.8489    0.0000 H   0  0  0  0  0  0  0  0  0  0  0  0
   28.0765    7.9759    0.0000 H   0  0  0  0  0  0  0  0  0  0  0  0
   26.9496    8.2778    0.0000 H   0  0  0  0  0  0  0  0  0  0  0  0
  1  2  1  0  0  0  0
  2  3  1  0  0  0  0
  3  4  1  0  0  0  0
  4  5  1  0  0  0  0
  5  6  1  0  0  0  0
  6  7  1  0  0  0  0
  7  8  1  0  0  0  0
  8  9  1  0  0  0  0
  9 10  1  0  0  0  0
 10 11  1  0  0  0  0
 11 12  1  0  0  0  0
 12 13  1  0  0  0  0
 13 14  1  0  0  0  0
 14 15  1  0  0  0  0
 13 16  1  0  0  0  0
 16 17  1  0  0  0  0
 17 18  1  0  0  0  0
 18 19  1  0  0  0  0
 19 20  1  0  0  0  0
 20 21  1  0  0  0  0
 21 22  1  0  0  0  0
 22 23  1  0  0  0  0
 23 24  1  0  0  0  0
 24 25  1  0  0  0  0
  1 26  1  0  0  0  0
  1 27  1  0  0  0  0
  1 28  1  0  0  0  0
  2 29  1  0  0  0  0
  2 30  1  0  0  0  0
  3 31  1  0  0  0  0
  3 32  1  0  0  0  0
  4 33  1  0  0  0  0
  4 34  1  0  0  0  0
  5 35  1  0  0  0  0
  5 36  1  0  0  0  0
  6 37  1  0  0  0  0
  6 38  1  0  0  0  0
  7 39  1  0  0  0  0
  7 40  1  0  0  0  0
  8 41  1  0  0  0  0
  8 42  1  0  0  0  0
  9 43  1  0  0  0  0
  9 44  1  0  0  0  0
 10 45  1  0  0  0  0
 10 46  1  0  0  0  0
 11 47  1  0  0  0  0
 11 48  1  0  0  0  0
 12 49  1  0  0  0  0
 12 50  1  0  0  0  0
 13 51  1  0  0  0  0
 14 52  1  0  0  0  0
 14 53  1  0  0  0  0
 15 54  1  0  0  0  0
 16 55  1  0  0  0  0
 16 56  1  0  0  0  0
 17 57  1  0  0  0  0
 17 58  1  0  0  0  0
 18 59  1  0  0  0  0
 18 60  1  0  0  0  0
 19 61  1  0  0  0  0
 19 62  1  0  0  0  0
 20 63  1  0  0  0  0
 20 64  1  0  0  0  0
 21 65  1  0  0  0  0
 21 66  1  0  0  0  0
 22 67  1  0  0  0  0
 22 68  1  0  0  0  0
 23 69  1  0  0  0  0
 23 70  1  0  0  0  0
 24 71  1  0  0  0  0
 24 72  1  0  0  0  0
 25 73  1  0  0  0  0
 25 74  1  0  0  0  0
 25 75  1  0  0  0  0
M  END
>  <InChIKey>
CAYHVMBQBLYQMT-UHFFFAOYSA-N

>  <UN GHS>
2B

>  <CASRN>
58670-89-6

> <Outcome>
1

>  <Index>
80

>  <StandardizerResult>
Clear Stereo (ID: ClearStereo)
Wedge Clean (ID: WedgeClean)
Mesomerize (ID: Mesomerize)
Tautomerize (ID: Tautomerize)
Add Explicit Hydrogens (ID: AddExplicitH)
Neutralize (ID: Neutralize)
Clean 2D (ID: Clean2D)

> <knn Distance>


> <CpId>
80

$$$$
83
  Mrv1532301301811342D          

 22 22  0  0  0  0            999 V2000
    0.0040    3.2928    0.0000 C   0  0  0  0  0  0  0  0  0  0  0  0
    0.0040    2.4678    0.0000 C   0  0  0  0  0  0  0  0  0  0  0  0
    0.7185    2.0553    0.0000 O   0  0  0  0  0  0  0  0  0  0  0  0
    0.7185    1.2303    0.0000 C   0  0  0  0  0  0  0  0  0  0  0  0
    1.4330    0.8178    0.0000 C   0  0  0  0  0  0  0  0  0  0  0  0
    1.4330   -0.0072    0.0000 C   0  0  0  0  0  0  0  0  0  0  0  0
    2.1474   -0.4197    0.0000 C   0  0  0  0  0  0  0  0  0  0  0  0
    2.8619   -0.0072    0.0000 O   0  0  0  0  0  0  0  0  0  0  0  0
    0.7185   -0.4197    0.0000 C   0  0  0  0  0  0  0  0  0  0  0  0
    0.0040   -0.0072    0.0000 C   0  0  0  0  0  0  0  0  0  0  0  0
    0.0040    0.8178    0.0000 C   0  0  0  0  0  0  0  0  0  0  0  0
   -0.7104    1.2303    0.0000 O   0  0  0  0  0  0  0  0  0  0  0  0
    0.8290    3.2928    0.0000 H   0  0  0  0  0  0  0  0  0  0  0  0
    0.0040    4.1178    0.0000 H   0  0  0  0  0  0  0  0  0  0  0  0
   -0.8210    3.2928    0.0000 H   0  0  0  0  0  0  0  0  0  0  0  0
   -0.8196    2.4198    0.0000 H   0  0  0  0  0  0  0  0  0  0  0  0
   -0.4493    1.7785    0.0000 H   0  0  0  0  0  0  0  0  0  0  0  0
    2.1474    1.2303    0.0000 H   0  0  0  0  0  0  0  0  0  0  0  0
    2.1474   -1.2447    0.0000 H   0  0  0  0  0  0  0  0  0  0  0  0
    0.7185   -1.2447    0.0000 H   0  0  0  0  0  0  0  0  0  0  0  0
   -0.7104   -0.4197    0.0000 H   0  0  0  0  0  0  0  0  0  0  0  0
   -1.4983    0.9854    0.0000 H   0  0  0  0  0  0  0  0  0  0  0  0
  1  2  1  0  0  0  0
  2  3  1  0  0  0  0
  3  4  1  0  0  0  0
  4  5  4  0  0  0  0
  5  6  4  0  0  0  0
  6  7  1  0  0  0  0
  7  8  2  0  0  0  0
  6  9  4  0  0  0  0
  9 10  4  0  0  0  0
 10 11  4  0  0  0  0
  4 11  4  0  0  0  0
 11 12  1  0  0  0  0
  1 13  1  0  0  0  0
  1 14  1  0  0  0  0
  1 15  1  0  0  0  0
  2 16  1  0  0  0  0
  2 17  1  0  0  0  0
  5 18  1  0  0  0  0
  7 19  1  0  0  0  0
  9 20  1  0  0  0  0
 10 21  1  0  0  0  0
 12 22  1  0  0  0  0
M  END
>  <InChIKey>
CBOQJANXLMLOSS-UHFFFAOYSA-N

>  <UN GHS>
2A

>  <CASRN>
121-32-4

> <Outcome>
1

>  <Index>
83

>  <StandardizerResult>
Dearomatize (ID: Dearomatize)
Clear Stereo (ID: ClearStereo)
Wedge Clean (ID: WedgeClean)
Mesomerize (ID: Mesomerize)
Tautomerize (ID: Tautomerize)
Aromatize (ID: Aromatize)
Add Explicit Hydrogens (ID: AddExplicitH)
Neutralize (ID: Neutralize)
Clean 2D (ID: Clean2D)

> <knn Distance>


> <CpId>
83

$$$$
85
  Mrv1532301301811342D          

 32 31  0  0  0  0            999 V2000
    0.5230   -1.1270    0.0000 C   0  0  0  0  0  0  0  0  0  0  0  0
    1.2375   -0.7145    0.0000 C   0  0  0  0  0  0  0  0  0  0  0  0
    1.9520   -0.3020    0.0000 C   0  0  0  0  0  0  0  0  0  0  0  0
    0.8250   -0.0000    0.0000 N   0  0  0  0  0  0  0  0  0  0  0  0
    0.0000   -0.0000    0.0000 N   0  0  0  0  0  0  0  0  0  0  0  0
   -0.4125    0.7145    0.0000 C   0  0  0  0  0  0  0  0  0  0  0  0
   -1.1270    0.3020    0.0000 C   0  0  0  0  0  0  0  0  0  0  0  0
    0.3020    1.1270    0.0000 C   0  0  0  0  0  0  0  0  0  0  0  0
   -0.8250    1.4289    0.0000 C   0  0  0  0  0  0  0  0  0  0  0  0
   -1.6500    1.4289    0.0000 N   0  0  0  0  0  0  0  0  0  0  0  0
   -0.4125    2.1434    0.0000 N   0  0  0  0  0  0  0  0  0  0  0  0
    1.6500   -1.4289    0.0000 C   0  0  0  0  0  0  0  0  0  0  0  0
    2.4750   -1.4289    0.0000 N   0  0  0  0  0  0  0  0  0  0  0  0
    1.2375   -2.1434    0.0000 N   0  0  0  0  0  0  0  0  0  0  0  0
    0.1105   -0.4125    0.0000 H   0  0  0  0  0  0  0  0  0  0  0  0
   -0.1914   -1.5395    0.0000 H   0  0  0  0  0  0  0  0  0  0  0  0
    0.9355   -1.8414    0.0000 H   0  0  0  0  0  0  0  0  0  0  0  0
    2.3645   -1.0164    0.0000 H   0  0  0  0  0  0  0  0  0  0  0  0
    2.6664    0.1105    0.0000 H   0  0  0  0  0  0  0  0  0  0  0  0
    1.5395    0.4125    0.0000 H   0  0  0  0  0  0  0  0  0  0  0  0
   -1.5395    1.0164    0.0000 H   0  0  0  0  0  0  0  0  0  0  0  0
   -1.8414   -0.1105    0.0000 H   0  0  0  0  0  0  0  0  0  0  0  0
   -0.7145   -0.4125    0.0000 H   0  0  0  0  0  0  0  0  0  0  0  0
    0.7145    0.4125    0.0000 H   0  0  0  0  0  0  0  0  0  0  0  0
    1.0164    1.5395    0.0000 H   0  0  0  0  0  0  0  0  0  0  0  0
   -0.1105    1.8414    0.0000 H   0  0  0  0  0  0  0  0  0  0  0  0
   -1.9434    2.2000    0.0000 H   0  0  0  0  0  0  0  0  0  0  0  0
   -2.4707    1.5128    0.0000 H   0  0  0  0  0  0  0  0  0  0  0  0
   -0.5202    2.9614    0.0000 H   0  0  0  0  0  0  0  0  0  0  0  0
    2.7684   -2.2000    0.0000 H   0  0  0  0  0  0  0  0  0  0  0  0
    3.2957   -1.5128    0.0000 H   0  0  0  0  0  0  0  0  0  0  0  0
    1.3452   -2.9614    0.0000 H   0  0  0  0  0  0  0  0  0  0  0  0
  1  2  1  0  0  0  0
  2  3  1  0  0  0  0
  4  2  1  4  0  0  0
  4  5  2  0  0  0  0
  5  6  1  0  0  0  0
  6  7  1  0  0  0  0
  6  8  1  0  0  0  0
  6  9  1  0  0  0  0
  9 10  1  0  0  0  0
  9 11  2  0  0  0  0
  2 12  1  0  0  0  0
 12 13  1  0  0  0  0
 12 14  2  0  0  0  0
  1 15  1  0  0  0  0
  1 16  1  0  0  0  0
  1 17  1  0  0  0  0
  3 18  1  0  0  0  0
  3 19  1  0  0  0  0
  3 20  1  0  0  0  0
  7 21  1  0  0  0  0
  7 22  1  0  0  0  0
  7 23  1  0  0  0  0
  8 24  1  0  0  0  0
  8 25  1  0  0  0  0
  8 26  1  0  0  0  0
 10 27  1  0  0  0  0
 10 28  1  0  0  0  0
 11 29  1  0  0  0  0
 13 30  1  0  0  0  0
 13 31  1  0  0  0  0
 14 32  1  0  0  0  0
M  END
>  <InChIKey>
CCTFAOUOYLVUFG-UHFFFAOYSA-N

>  <UN GHS>
2A

>  <CASRN>
2997-92-4

> <Outcome>
1

>  <Index>
85

>  <StandardizerResult>
Clear Stereo (ID: ClearStereo)
Wedge Clean (ID: WedgeClean)
Mesomerize (ID: Mesomerize)
Tautomerize (ID: Tautomerize)
Add Explicit Hydrogens (ID: AddExplicitH)
Neutralize (ID: Neutralize)
Clean 2D (ID: Clean2D)

> <knn Distance>


> <CpId>
85

$$$$
86
  Mrv1532301301811342D          

 58 59  0  0  0  0            999 V2000
   -1.8233   -1.2420    0.0000 C   0  0  0  0  0  0  0  0  0  0  0  0
   -0.9983   -1.2420    0.0000 O   0  0  0  0  0  0  0  0  0  0  0  0
   -0.5858   -0.5275    0.0000 C   0  0  0  0  0  0  0  0  0  0  0  0
   -0.9983    0.1870    0.0000 C   0  0  0  0  0  0  0  0  0  0  0  0
   -0.5858    0.9015    0.0000 C   0  0  0  0  0  0  0  0  0  0  0  0
    0.2392    0.9015    0.0000 C   0  0  0  0  0  0  0  0  0  0  0  0
    0.6517    1.6159    0.0000 C   0  0  0  0  0  0  0  0  0  0  0  0
    0.6517    0.1870    0.0000 C   0  0  0  0  0  0  0  0  0  0  0  0
    0.2392   -0.5275    0.0000 C   0  0  0  0  0  0  0  0  0  0  0  0
    0.6517   -1.2420    0.0000 C   0  0  0  0  0  0  0  0  0  0  0  0
    1.4767   -1.2420    0.0000 C   0  0  0  0  0  0  0  0  0  0  0  0
    1.8892   -1.9564    0.0000 C   0  0  0  0  0  0  0  0  0  0  0  0
    2.7142   -1.9564    0.0000 N   0  0  0  0  0  0  0  0  0  0  0  0
    3.1267   -2.6709    0.0000 C   0  0  0  0  0  0  0  0  0  0  0  0
    3.9517   -2.6709    0.0000 C   0  0  0  0  0  0  0  0  0  0  0  0
    2.7142   -3.3854    0.0000 C   0  0  0  0  0  0  0  0  0  0  0  0
    3.1267   -1.2420    0.0000 C   0  0  0  0  0  0  0  0  0  0  0  0
    2.7142   -0.5275    0.0000 C   0  0  0  0  0  0  0  0  0  0  0  0
    3.9517   -1.2420    0.0000 C   0  0  0  0  0  0  0  0  0  0  0  0
    0.2392   -1.9564    0.0000 C   0  0  0  0  0  0  0  0  0  0  0  0
    0.6517   -2.6709    0.0000 C   0  0  0  0  0  0  0  0  0  0  0  0
    0.2392   -3.3854    0.0000 C   0  0  0  0  0  0  0  0  0  0  0  0
   -0.5858   -3.3854    0.0000 C   0  0  0  0  0  0  0  0  0  0  0  0
   -0.9983   -2.6709    0.0000 C   0  0  0  0  0  0  0  0  0  0  0  0
   -0.5858   -1.9564    0.0000 C   0  0  0  0  0  0  0  0  0  0  0  0
   -1.8233   -0.4170    0.0000 H   0  0  0  0  0  0  0  0  0  0  0  0
   -2.6483   -1.2420    0.0000 H   0  0  0  0  0  0  0  0  0  0  0  0
   -1.8233   -2.0670    0.0000 H   0  0  0  0  0  0  0  0  0  0  0  0
   -1.8233    0.1870    0.0000 H   0  0  0  0  0  0  0  0  0  0  0  0
   -0.9983    1.6159    0.0000 H   0  0  0  0  0  0  0  0  0  0  0  0
    1.3661    1.2034    0.0000 H   0  0  0  0  0  0  0  0  0  0  0  0
    1.0642    2.3304    0.0000 H   0  0  0  0  0  0  0  0  0  0  0  0
   -0.0628    2.0284    0.0000 H   0  0  0  0  0  0  0  0  0  0  0  0
    1.4767    0.1870    0.0000 H   0  0  0  0  0  0  0  0  0  0  0  0
    1.0642   -0.5275    0.0000 H   0  0  0  0  0  0  0  0  0  0  0  0
    2.2891   -1.0987    0.0000 H   0  0  0  0  0  0  0  0  0  0  0  0
    2.0070   -0.6100    0.0000 H   0  0  0  0  0  0  0  0  0  0  0  0
    1.1999   -2.4098    0.0000 H   0  0  0  0  0  0  0  0  0  0  0  0
    1.8412   -2.7800    0.0000 H   0  0  0  0  0  0  0  0  0  0  0  0
    3.5392   -1.9564    0.0000 H   0  0  0  0  0  0  0  0  0  0  0  0
    3.7381   -3.4678    0.0000 H   0  0  0  0  0  0  0  0  0  0  0  0
    4.6661   -3.0834    0.0000 H   0  0  0  0  0  0  0  0  0  0  0  0
    4.5350   -2.0875    0.0000 H   0  0  0  0  0  0  0  0  0  0  0  0
    1.9997   -2.9729    0.0000 H   0  0  0  0  0  0  0  0  0  0  0  0
    2.3017   -4.0998    0.0000 H   0  0  0  0  0  0  0  0  0  0  0  0
    3.4286   -3.7979    0.0000 H   0  0  0  0  0  0  0  0  0  0  0  0
    3.5392   -0.5275    0.0000 H   0  0  0  0  0  0  0  0  0  0  0  0
    3.2803    0.0726    0.0000 H   0  0  0  0  0  0  0  0  0  0  0  0
    2.6663    0.2961    0.0000 H   0  0  0  0  0  0  0  0  0  0  0  0
    2.0823    0.0029    0.0000 H   0  0  0  0  0  0  0  0  0  0  0  0
    4.3642   -1.9564    0.0000 H   0  0  0  0  0  0  0  0  0  0  0  0
    4.7767   -1.2420    0.0000 H   0  0  0  0  0  0  0  0  0  0  0  0
    4.3642   -0.5275    0.0000 H   0  0  0  0  0  0  0  0  0  0  0  0
    1.2115   -3.2769    0.0000 H   0  0  0  0  0  0  0  0  0  0  0  0
    0.6517   -4.0998    0.0000 H   0  0  0  0  0  0  0  0  0  0  0  0
   -0.9983   -4.0998    0.0000 H   0  0  0  0  0  0  0  0  0  0  0  0
   -1.8233   -2.6709    0.0000 H   0  0  0  0  0  0  0  0  0  0  0  0
   -0.1733   -1.2420    0.0000 H   0  0  0  0  0  0  0  0  0  0  0  0
  1  2  1  0  0  0  0
  2  3  1  0  0  0  0
  3  4  4  0  0  0  0
  4  5  4  0  0  0  0
  5  6  4  0  0  0  0
  6  7  1  0  0  0  0
  6  8  4  0  0  0  0
  8  9  4  0  0  0  0
  3  9  4  0  0  0  0
  9 10  1  0  0  0  0
 10 11  1  0  0  0  0
 11 12  1  0  0  0  0
 12 13  1  0  0  0  0
 13 14  1  0  0  0  0
 14 15  1  0  0  0  0
 14 16  1  0  0  0  0
 13 17  1  0  0  0  0
 17 18  1  0  0  0  0
 17 19  1  0  0  0  0
 10 20  1  0  0  0  0
 20 21  4  0  0  0  0
 21 22  4  0  0  0  0
 22 23  4  0  0  0  0
 23 24  4  0  0  0  0
 24 25  4  0  0  0  0
 20 25  4  0  0  0  0
  1 26  1  0  0  0  0
  1 27  1  0  0  0  0
  1 28  1  0  0  0  0
  4 29  1  0  0  0  0
  5 30  1  0  0  0  0
  7 31  1  0  0  0  0
  7 32  1  0  0  0  0
  7 33  1  0  0  0  0
  8 34  1  0  0  0  0
 10 35  1  0  0  0  0
 11 36  1  0  0  0  0
 11 37  1  0  0  0  0
 12 38  1  0  0  0  0
 12 39  1  0  0  0  0
 14 40  1  0  0  0  0
 15 41  1  0  0  0  0
 15 42  1  0  0  0  0
 15 43  1  0  0  0  0
 16 44  1  0  0  0  0
 16 45  1  0  0  0  0
 16 46  1  0  0  0  0
 17 47  1  0  0  0  0
 18 48  1  0  0  0  0
 18 49  1  0  0  0  0
 18 50  1  0  0  0  0
 19 51  1  0  0  0  0
 19 52  1  0  0  0  0
 19 53  1  0  0  0  0
 21 54  1  0  0  0  0
 22 55  1  0  0  0  0
 23 56  1  0  0  0  0
 24 57  1  0  0  0  0
 25 58  1  0  0  0  0
M  END
>  <InChIKey>
CCXFTVHDCYNKJH-UHFFFAOYSA-N

>  <UN GHS>
1

>  <CASRN>
857288-56-3

> <Outcome>
1

>  <Index>
86

>  <StandardizerResult>
Dearomatize (ID: Dearomatize)
Clear Stereo (ID: ClearStereo)
Wedge Clean (ID: WedgeClean)
Mesomerize (ID: Mesomerize)
Tautomerize (ID: Tautomerize)
Aromatize (ID: Aromatize)
Add Explicit Hydrogens (ID: AddExplicitH)
Neutralize (ID: Neutralize)
Clean 2D (ID: Clean2D)

> <knn Distance>


> <CpId>
86

$$$$
88
  Mrv1532301301811342D          

 29 28  0  0  0  0            999 V2000
    1.3091    0.8300    0.0000 C   0  0  0  0  0  0  0  0  0  0  0  0
    0.8966    0.1155    0.0000 C   0  0  0  0  0  0  0  0  0  0  0  0
    1.3091   -0.5990    0.0000 C   0  0  0  0  0  0  0  0  0  0  0  0
    0.0716    0.1155    0.0000 C   0  0  0  0  0  0  0  0  0  0  0  0
   -0.3409   -0.5990    0.0000 C   0  0  0  0  0  0  0  0  0  0  0  0
    0.0716   -1.3134    0.0000 C   0  0  0  0  0  0  0  0  0  0  0  0
   -0.3409   -2.0279    0.0000 C   0  0  0  0  0  0  0  0  0  0  0  0
   -1.0553   -1.6154    0.0000 C   0  0  0  0  0  0  0  0  0  0  0  0
    0.3736   -2.4404    0.0000 O   0  0  0  0  0  0  0  0  0  0  0  0
   -0.7534   -2.7424    0.0000 C   0  0  0  0  0  0  0  0  0  0  0  0
   -0.3409   -3.4568    0.0000 C   0  0  0  0  0  0  0  0  0  0  0  0
    2.0236    0.4175    0.0000 H   0  0  0  0  0  0  0  0  0  0  0  0
    1.7216    1.5445    0.0000 H   0  0  0  0  0  0  0  0  0  0  0  0
    0.5947    1.2425    0.0000 H   0  0  0  0  0  0  0  0  0  0  0  0
    0.5947   -1.0115    0.0000 H   0  0  0  0  0  0  0  0  0  0  0  0
    1.7216   -1.3134    0.0000 H   0  0  0  0  0  0  0  0  0  0  0  0
    2.0236   -0.1865    0.0000 H   0  0  0  0  0  0  0  0  0  0  0  0
   -0.3409    0.8300    0.0000 H   0  0  0  0  0  0  0  0  0  0  0  0
   -1.0781   -0.2287    0.0000 H   0  0  0  0  0  0  0  0  0  0  0  0
   -1.0781   -0.9692    0.0000 H   0  0  0  0  0  0  0  0  0  0  0  0
    0.6550   -1.8968    0.0000 H   0  0  0  0  0  0  0  0  0  0  0  0
   -0.7534   -1.3134    0.0000 H   0  0  0  0  0  0  0  0  0  0  0  0
   -1.7804   -1.2219    0.0000 H   0  0  0  0  0  0  0  0  0  0  0  0
   -1.7624   -2.0404    0.0000 H   0  0  0  0  0  0  0  0  0  0  0  0
   -1.0481   -2.4404    0.0000 H   0  0  0  0  0  0  0  0  0  0  0  0
    0.6054   -3.2322    0.0000 H   0  0  0  0  0  0  0  0  0  0  0  0
   -1.4109   -3.2406    0.0000 H   0  0  0  0  0  0  0  0  0  0  0  0
   -0.7534   -4.1713    0.0000 H   0  0  0  0  0  0  0  0  0  0  0  0
    0.4841   -3.4568    0.0000 H   0  0  0  0  0  0  0  0  0  0  0  0
  1  2  1  0  0  0  0
  2  3  1  0  0  0  0
  2  4  2  0  0  0  0
  4  5  1  0  0  0  0
  5  6  1  0  0  0  0
  6  7  1  0  0  0  0
  7  8  1  0  0  0  0
  7  9  1  0  0  0  0
  7 10  1  0  0  0  0
 10 11  2  0  0  0  0
  1 12  1  0  0  0  0
  1 13  1  0  0  0  0
  1 14  1  0  0  0  0
  3 15  1  0  0  0  0
  3 16  1  0  0  0  0
  3 17  1  0  0  0  0
  4 18  1  0  0  0  0
  5 19  1  0  0  0  0
  5 20  1  0  0  0  0
  6 21  1  0  0  0  0
  6 22  1  0  0  0  0
  8 23  1  0  0  0  0
  8 24  1  0  0  0  0
  8 25  1  0  0  0  0
  9 26  1  0  0  0  0
 10 27  1  0  0  0  0
 11 28  1  0  0  0  0
 11 29  1  0  0  0  0
M  END
>  <InChIKey>
CDOSHBSSFJOMGT-UHFFFAOYSA-N

>  <UN GHS>
2A

>  <CASRN>
78-70-6

> <Outcome>
1

>  <Index>
88

>  <StandardizerResult>
Clear Stereo (ID: ClearStereo)
Wedge Clean (ID: WedgeClean)
Mesomerize (ID: Mesomerize)
Tautomerize (ID: Tautomerize)
Add Explicit Hydrogens (ID: AddExplicitH)
Neutralize (ID: Neutralize)
Clean 2D (ID: Clean2D)

> <knn Distance>


> <CpId>
88

$$$$
89
  Mrv1532301301811342D          

 35 36  0  0  0  0            999 V2000
   -4.2868    2.4755    0.0000 C   0  0  0  0  0  0  0  0  0  0  0  0
   -3.5724    2.0630    0.0000 C   0  0  0  0  0  0  0  0  0  0  0  0
   -2.8579    2.4755    0.0000 C   0  0  0  0  0  0  0  0  0  0  0  0
   -2.1434    2.0630    0.0000 C   0  0  0  0  0  0  0  0  0  0  0  0
   -1.4289    2.4755    0.0000 N   0  0  0  0  0  0  0  0  0  0  0  0
   -0.7145    2.0630    0.0000 C   0  0  0  0  0  0  0  0  0  0  0  0
    0.0000    2.4755    0.0000 C   0  0  0  0  0  0  0  0  0  0  0  0
    0.7145    2.0630    0.0000 C   0  0  0  0  0  0  0  0  0  0  0  0
    1.4289    2.4755    0.0000 N   0  0  0  0  0  0  0  0  0  0  0  0
    1.5152    3.2960    0.0000 C   0  0  0  0  0  0  0  0  0  0  0  0
    2.3222    3.4675    0.0000 C   0  0  0  0  0  0  0  0  0  0  0  0
    2.7347    2.7530    0.0000 N   0  0  0  0  0  0  0  0  0  0  0  0
    2.1826    2.1399    0.0000 C   0  0  0  0  0  0  0  0  0  0  0  0
   -2.1434    1.2380    0.0000 C   0  0  0  0  0  0  0  0  0  0  0  0
   -2.8579    0.8255    0.0000 C   0  0  0  0  0  0  0  0  0  0  0  0
   -3.5724    1.2380    0.0000 C   0  0  0  0  0  0  0  0  0  0  0  0
   -4.2868    0.8255    0.0000 N   0  0  0  0  0  0  0  0  0  0  0  0
   -3.8743    3.1900    0.0000 H   0  0  0  0  0  0  0  0  0  0  0  0
   -5.0013    2.8880    0.0000 H   0  0  0  0  0  0  0  0  0  0  0  0
   -4.6993    1.7610    0.0000 H   0  0  0  0  0  0  0  0  0  0  0  0
   -2.8579    3.3005    0.0000 H   0  0  0  0  0  0  0  0  0  0  0  0
   -1.4289    3.3005    0.0000 H   0  0  0  0  0  0  0  0  0  0  0  0
   -1.0847    1.3258    0.0000 H   0  0  0  0  0  0  0  0  0  0  0  0
   -0.3442    1.3258    0.0000 H   0  0  0  0  0  0  0  0  0  0  0  0
    0.3703    3.2127    0.0000 H   0  0  0  0  0  0  0  0  0  0  0  0
   -0.3703    3.2127    0.0000 H   0  0  0  0  0  0  0  0  0  0  0  0
    0.3442    1.3258    0.0000 H   0  0  0  0  0  0  0  0  0  0  0  0
    1.0847    1.3258    0.0000 H   0  0  0  0  0  0  0  0  0  0  0  0
    0.9021    3.8480    0.0000 H   0  0  0  0  0  0  0  0  0  0  0  0
    2.6577    4.2212    0.0000 H   0  0  0  0  0  0  0  0  0  0  0  0
    2.3541    1.3330    0.0000 H   0  0  0  0  0  0  0  0  0  0  0  0
   -1.4289    0.8255    0.0000 H   0  0  0  0  0  0  0  0  0  0  0  0
   -2.8579    0.0005    0.0000 H   0  0  0  0  0  0  0  0  0  0  0  0
   -5.0013    1.2380    0.0000 H   0  0  0  0  0  0  0  0  0  0  0  0
   -4.2868    0.0005    0.0000 H   0  0  0  0  0  0  0  0  0  0  0  0
  1  2  1  0  0  0  0
  2  3  4  0  0  0  0
  3  4  4  0  0  0  0
  4  5  1  0  0  0  0
  5  6  1  0  0  0  0
  6  7  1  0  0  0  0
  7  8  1  0  0  0  0
  8  9  1  0  0  0  0
  9 10  4  0  0  0  0
 10 11  4  0  0  0  0
 11 12  4  0  0  0  0
 12 13  4  0  0  0  0
  9 13  4  0  0  0  0
  4 14  4  0  0  0  0
 14 15  4  0  0  0  0
 15 16  4  0  0  0  0
  2 16  4  0  0  0  0
 16 17  1  0  0  0  0
  1 18  1  0  0  0  0
  1 19  1  0  0  0  0
  1 20  1  0  0  0  0
  3 21  1  0  0  0  0
  5 22  1  0  0  0  0
  6 23  1  0  0  0  0
  6 24  1  0  0  0  0
  7 25  1  0  0  0  0
  7 26  1  0  0  0  0
  8 27  1  0  0  0  0
  8 28  1  0  0  0  0
 10 29  1  0  0  0  0
 11 30  1  0  0  0  0
 13 31  1  0  0  0  0
 14 32  1  0  0  0  0
 15 33  1  0  0  0  0
 17 34  1  0  0  0  0
 17 35  1  0  0  0  0
M  END
>  <InChIKey>
CDUWBJWAFZKYOF-UHFFFAOYSA-N

>  <UN GHS>
1

>  <CASRN>
515851-08-8

> <Outcome>
1

>  <Index>
89

>  <StandardizerResult>
Dearomatize (ID: Dearomatize)
Clear Stereo (ID: ClearStereo)
Wedge Clean (ID: WedgeClean)
Mesomerize (ID: Mesomerize)
Tautomerize (ID: Tautomerize)
Aromatize (ID: Aromatize)
Add Explicit Hydrogens (ID: AddExplicitH)
Neutralize (ID: Neutralize)
Clean 2D (ID: Clean2D)

> <knn Distance>


> <CpId>
89

$$$$
92
  Mrv1532301301811342D          

 12 11  0  0  0  0            999 V2000
    0.8250    1.4289    0.0000 C   0  0  0  0  0  0  0  0  0  0  0  0
    1.2375    0.7145    0.0000 C   0  0  0  0  0  0  0  0  0  0  0  0
    2.0625    0.7145    0.0000 C   0  0  0  0  0  0  0  0  0  0  0  0
    0.8250   -0.0000    0.0000 C   0  0  0  0  0  0  0  0  0  0  0  0
    1.2375   -0.7145    0.0000 O   0  0  0  0  0  0  0  0  0  0  0  0
   -0.0000   -0.0000    0.0000 O   0  0  0  0  0  0  0  0  0  0  0  0
    1.5395    1.8414    0.0000 H   0  0  0  0  0  0  0  0  0  0  0  0
    0.4125    2.1434    0.0000 H   0  0  0  0  0  0  0  0  0  0  0  0
    0.1105    1.0164    0.0000 H   0  0  0  0  0  0  0  0  0  0  0  0
    2.4750   -0.0000    0.0000 H   0  0  0  0  0  0  0  0  0  0  0  0
    2.4750    1.4289    0.0000 H   0  0  0  0  0  0  0  0  0  0  0  0
    0.8250   -1.4290    0.0000 H   0  0  0  0  0  0  0  0  0  0  0  0
  1  2  1  0  0  0  0
  2  3  2  0  0  0  0
  2  4  1  0  0  0  0
  4  5  1  0  0  0  0
  4  6  2  0  0  0  0
  1  7  1  0  0  0  0
  1  8  1  0  0  0  0
  1  9  1  0  0  0  0
  3 10  1  0  0  0  0
  3 11  1  0  0  0  0
  5 12  1  0  0  0  0
M  END
>  <InChIKey>
CERQOIWHTDAKMF-UHFFFAOYSA-N

>  <UN GHS>
2A

>  <CASRN>
63451-47-8

> <Outcome>
1

>  <Index>
92

>  <StandardizerResult>
Clear Stereo (ID: ClearStereo)
Wedge Clean (ID: WedgeClean)
Mesomerize (ID: Mesomerize)
Tautomerize (ID: Tautomerize)
Add Explicit Hydrogens (ID: AddExplicitH)
Neutralize (ID: Neutralize)
Clean 2D (ID: Clean2D)

> <knn Distance>


> <CpId>
92

$$$$
95
  Mrv1532301301811342D          

 15 15  0  0  0  0            999 V2000
    1.2822    2.3518    0.0000 O   0  0  0  0  0  0  0  0  0  0  0  0
    0.5678    1.9393    0.0000 C   0  0  0  0  0  0  0  0  0  0  0  0
   -0.1467    2.3518    0.0000 O   0  0  0  0  0  0  0  0  0  0  0  0
    0.5678    1.1143    0.0000 C   0  0  0  0  0  0  0  0  0  0  0  0
    1.2352    0.6294    0.0000 C   0  0  0  0  0  0  0  0  0  0  0  0
    0.9803   -0.1553    0.0000 C   0  0  0  0  0  0  0  0  0  0  0  0
    0.1553   -0.1553    0.0000 C   0  0  0  0  0  0  0  0  0  0  0  0
   -0.0997    0.6294    0.0000 O   0  0  0  0  0  0  0  0  0  0  0  0
   -0.3296   -0.8227    0.0000 C   0  0  0  0  0  0  0  0  0  0  0  0
    0.0059   -1.5764    0.0000 O   0  0  0  0  0  0  0  0  0  0  0  0
   -1.1501   -0.7365    0.0000 O   0  0  0  0  0  0  0  0  0  0  0  0
    1.9967    1.9393    0.0000 H   0  0  0  0  0  0  0  0  0  0  0  0
    2.0198    0.8843    0.0000 H   0  0  0  0  0  0  0  0  0  0  0  0
    1.4652   -0.8227    0.0000 H   0  0  0  0  0  0  0  0  0  0  0  0
   -0.4790   -2.2438    0.0000 H   0  0  0  0  0  0  0  0  0  0  0  0
  1  2  1  0  0  0  0
  2  3  2  0  0  0  0
  2  4  1  0  0  0  0
  4  5  4  0  0  0  0
  5  6  4  0  0  0  0
  6  7  4  0  0  0  0
  7  8  4  0  0  0  0
  4  8  4  0  0  0  0
  7  9  1  0  0  0  0
  9 10  1  0  0  0  0
  9 11  2  0  0  0  0
  1 12  1  0  0  0  0
  5 13  1  0  0  0  0
  6 14  1  0  0  0  0
 10 15  1  0  0  0  0
M  END
>  <InChIKey>
CHTHALBTIRVDBM-UHFFFAOYSA-N

>  <UN GHS>
2A

>  <CASRN>
3238-40-2

> <Outcome>
1

>  <Index>
95

>  <StandardizerResult>
Dearomatize (ID: Dearomatize)
Clear Stereo (ID: ClearStereo)
Wedge Clean (ID: WedgeClean)
Mesomerize (ID: Mesomerize)
Tautomerize (ID: Tautomerize)
Aromatize (ID: Aromatize)
Add Explicit Hydrogens (ID: AddExplicitH)
Neutralize (ID: Neutralize)
Clean 2D (ID: Clean2D)

> <knn Distance>


> <CpId>
95

$$$$
98
  Mrv1532301301811342D          

 95 94  0  0  0  0            999 V2000
   -6.0102    3.9938    0.0000 C   0  0  0  0  0  0  0  0  0  0  0  0
   -5.2957    4.4063    0.0000 C   0  0  0  0  0  0  0  0  0  0  0  0
   -4.5813    3.9938    0.0000 C   0  0  0  0  0  0  0  0  0  0  0  0
   -3.8668    4.4063    0.0000 C   0  0  0  0  0  0  0  0  0  0  0  0
   -3.1523    3.9938    0.0000 C   0  0  0  0  0  0  0  0  0  0  0  0
   -2.4378    4.4063    0.0000 C   0  0  0  0  0  0  0  0  0  0  0  0
   -1.7234    3.9938    0.0000 C   0  0  0  0  0  0  0  0  0  0  0  0
   -1.0089    4.4063    0.0000 C   0  0  0  0  0  0  0  0  0  0  0  0
   -0.2944    3.9938    0.0000 C   0  0  0  0  0  0  0  0  0  0  0  0
    0.4200    4.4063    0.0000 C   0  0  0  0  0  0  0  0  0  0  0  0
    1.1345    3.9938    0.0000 C   0  0  0  0  0  0  0  0  0  0  0  0
    1.8490    4.4063    0.0000 C   0  0  0  0  0  0  0  0  0  0  0  0
    2.5635    3.9938    0.0000 C   0  0  0  0  0  0  0  0  0  0  0  0
    3.2779    4.4063    0.0000 C   0  0  0  0  0  0  0  0  0  0  0  0
    3.9924    3.9938    0.0000 N   0  3  0  0  0  0  0  0  0  0  0  0
    3.5799    3.2794    0.0000 C   0  0  0  0  0  0  0  0  0  0  0  0
    4.4049    4.7083    0.0000 C   0  0  0  0  0  0  0  0  0  0  0  0
    4.7069    3.5813    0.0000 C   0  0  0  0  0  0  0  0  0  0  0  0
    5.4213    3.9938    0.0000 C   0  0  0  0  0  0  0  0  0  0  0  0
    6.1358    3.5813    0.0000 C   0  0  0  0  0  0  0  0  0  0  0  0
    6.8503    3.9938    0.0000 C   0  0  0  0  0  0  0  0  0  0  0  0
    7.5648    3.5813    0.0000 C   0  0  0  0  0  0  0  0  0  0  0  0
    8.2792    3.9938    0.0000 C   0  0  0  0  0  0  0  0  0  0  0  0
    8.9937    3.5813    0.0000 C   0  0  0  0  0  0  0  0  0  0  0  0
    9.7082    3.9938    0.0000 C   0  0  0  0  0  0  0  0  0  0  0  0
   10.4226    3.5813    0.0000 C   0  0  0  0  0  0  0  0  0  0  0  0
   11.1371    3.9938    0.0000 C   0  0  0  0  0  0  0  0  0  0  0  0
   11.8516    3.5813    0.0000 C   0  0  0  0  0  0  0  0  0  0  0  0
   12.5660    3.9938    0.0000 C   0  0  0  0  0  0  0  0  0  0  0  0
   13.2805    3.5813    0.0000 C   0  0  0  0  0  0  0  0  0  0  0  0
   13.9950    3.9938    0.0000 C   0  0  0  0  0  0  0  0  0  0  0  0
   -6.4227    4.7083    0.0000 H   0  0  0  0  0  0  0  0  0  0  0  0
   -6.7247    3.5813    0.0000 H   0  0  0  0  0  0  0  0  0  0  0  0
   -5.5977    3.2794    0.0000 H   0  0  0  0  0  0  0  0  0  0  0  0
   -4.9255    5.1436    0.0000 H   0  0  0  0  0  0  0  0  0  0  0  0
   -5.6660    5.1436    0.0000 H   0  0  0  0  0  0  0  0  0  0  0  0
   -4.9515    3.2566    0.0000 H   0  0  0  0  0  0  0  0  0  0  0  0
   -4.2110    3.2566    0.0000 H   0  0  0  0  0  0  0  0  0  0  0  0
   -3.4965    5.1436    0.0000 H   0  0  0  0  0  0  0  0  0  0  0  0
   -4.2370    5.1436    0.0000 H   0  0  0  0  0  0  0  0  0  0  0  0
   -3.5226    3.2566    0.0000 H   0  0  0  0  0  0  0  0  0  0  0  0
   -2.7821    3.2566    0.0000 H   0  0  0  0  0  0  0  0  0  0  0  0
   -2.0676    5.1436    0.0000 H   0  0  0  0  0  0  0  0  0  0  0  0
   -2.8081    5.1436    0.0000 H   0  0  0  0  0  0  0  0  0  0  0  0
   -2.0936    3.2566    0.0000 H   0  0  0  0  0  0  0  0  0  0  0  0
   -1.3531    3.2566    0.0000 H   0  0  0  0  0  0  0  0  0  0  0  0
   -0.6386    5.1436    0.0000 H   0  0  0  0  0  0  0  0  0  0  0  0
   -1.3792    5.1436    0.0000 H   0  0  0  0  0  0  0  0  0  0  0  0
   -0.6647    3.2566    0.0000 H   0  0  0  0  0  0  0  0  0  0  0  0
    0.0758    3.2566    0.0000 H   0  0  0  0  0  0  0  0  0  0  0  0
    0.7903    5.1436    0.0000 H   0  0  0  0  0  0  0  0  0  0  0  0
    0.0498    5.1436    0.0000 H   0  0  0  0  0  0  0  0  0  0  0  0
    0.7643    3.2566    0.0000 H   0  0  0  0  0  0  0  0  0  0  0  0
    1.5048    3.2566    0.0000 H   0  0  0  0  0  0  0  0  0  0  0  0
    2.2192    5.1436    0.0000 H   0  0  0  0  0  0  0  0  0  0  0  0
    1.4787    5.1436    0.0000 H   0  0  0  0  0  0  0  0  0  0  0  0
    2.1932    3.2566    0.0000 H   0  0  0  0  0  0  0  0  0  0  0  0
    2.9337    3.2566    0.0000 H   0  0  0  0  0  0  0  0  0  0  0  0
    3.6482    5.1436    0.0000 H   0  0  0  0  0  0  0  0  0  0  0  0
    2.9077    5.1436    0.0000 H   0  0  0  0  0  0  0  0  0  0  0  0
    3.1864    2.5542    0.0000 H   0  0  0  0  0  0  0  0  0  0  0  0
    4.0049    2.5723    0.0000 H   0  0  0  0  0  0  0  0  0  0  0  0
    4.4049    3.2866    0.0000 H   0  0  0  0  0  0  0  0  0  0  0  0
    4.9074    4.0540    0.0000 H   0  0  0  0  0  0  0  0  0  0  0  0
    5.2016    4.9225    0.0000 H   0  0  0  0  0  0  0  0  0  0  0  0
    4.5116    5.5264    0.0000 H   0  0  0  0  0  0  0  0  0  0  0  0
    4.8435    2.7677    0.0000 H   0  0  0  0  0  0  0  0  0  0  0  0
    5.4531    3.2296    0.0000 H   0  0  0  0  0  0  0  0  0  0  0  0
    6.2203    4.1995    0.0000 H   0  0  0  0  0  0  0  0  0  0  0  0
    5.8478    4.7001    0.0000 H   0  0  0  0  0  0  0  0  0  0  0  0
    6.2552    2.7650    0.0000 H   0  0  0  0  0  0  0  0  0  0  0  0
    6.7578    3.0394    0.0000 H   0  0  0  0  0  0  0  0  0  0  0  0
    7.4374    4.5735    0.0000 H   0  0  0  0  0  0  0  0  0  0  0  0
    6.8894    4.8179    0.0000 H   0  0  0  0  0  0  0  0  0  0  0  0
    7.1945    2.8441    0.0000 H   0  0  0  0  0  0  0  0  0  0  0  0
    7.9350    2.8441    0.0000 H   0  0  0  0  0  0  0  0  0  0  0  0
    8.6495    4.7311    0.0000 H   0  0  0  0  0  0  0  0  0  0  0  0
    7.9090    4.7311    0.0000 H   0  0  0  0  0  0  0  0  0  0  0  0
    8.6234    2.8441    0.0000 H   0  0  0  0  0  0  0  0  0  0  0  0
    9.3640    2.8441    0.0000 H   0  0  0  0  0  0  0  0  0  0  0  0
   10.0784    4.7311    0.0000 H   0  0  0  0  0  0  0  0  0  0  0  0
    9.3379    4.7311    0.0000 H   0  0  0  0  0  0  0  0  0  0  0  0
   10.0524    2.8441    0.0000 H   0  0  0  0  0  0  0  0  0  0  0  0
   10.7929    2.8441    0.0000 H   0  0  0  0  0  0  0  0  0  0  0  0
   11.5074    4.7311    0.0000 H   0  0  0  0  0  0  0  0  0  0  0  0
   10.7668    4.7311    0.0000 H   0  0  0  0  0  0  0  0  0  0  0  0
   11.4813    2.8441    0.0000 H   0  0  0  0  0  0  0  0  0  0  0  0
   12.2218    2.8441    0.0000 H   0  0  0  0  0  0  0  0  0  0  0  0
   12.9363    4.7311    0.0000 H   0  0  0  0  0  0  0  0  0  0  0  0
   12.1958    4.7311    0.0000 H   0  0  0  0  0  0  0  0  0  0  0  0
   12.9103    2.8441    0.0000 H   0  0  0  0  0  0  0  0  0  0  0  0
   13.6508    2.8441    0.0000 H   0  0  0  0  0  0  0  0  0  0  0  0
   14.4075    3.2794    0.0000 H   0  0  0  0  0  0  0  0  0  0  0  0
   14.7095    4.4063    0.0000 H   0  0  0  0  0  0  0  0  0  0  0  0
   13.5825    4.7083    0.0000 H   0  0  0  0  0  0  0  0  0  0  0  0
  1  2  1  0  0  0  0
  2  3  1  0  0  0  0
  3  4  1  0  0  0  0
  4  5  1  0  0  0  0
  5  6  1  0  0  0  0
  6  7  1  0  0  0  0
  7  8  1  0  0  0  0
  8  9  1  0  0  0  0
  9 10  1  0  0  0  0
 10 11  1  0  0  0  0
 11 12  1  0  0  0  0
 12 13  1  0  0  0  0
 13 14  1  0  0  0  0
 14 15  1  0  0  0  0
 15 16  1  0  0  0  0
 15 17  1  0  0  0  0
 15 18  1  0  0  0  0
 18 19  1  0  0  0  0
 19 20  1  0  0  0  0
 20 21  1  0  0  0  0
 21 22  1  0  0  0  0
 22 23  1  0  0  0  0
 23 24  1  0  0  0  0
 24 25  1  0  0  0  0
 25 26  1  0  0  0  0
 26 27  1  0  0  0  0
 27 28  1  0  0  0  0
 28 29  1  0  0  0  0
 29 30  1  0  0  0  0
 30 31  1  0  0  0  0
  1 32  1  0  0  0  0
  1 33  1  0  0  0  0
  1 34  1  0  0  0  0
  2 35  1  0  0  0  0
  2 36  1  0  0  0  0
  3 37  1  0  0  0  0
  3 38  1  0  0  0  0
  4 39  1  0  0  0  0
  4 40  1  0  0  0  0
  5 41  1  0  0  0  0
  5 42  1  0  0  0  0
  6 43  1  0  0  0  0
  6 44  1  0  0  0  0
  7 45  1  0  0  0  0
  7 46  1  0  0  0  0
  8 47  1  0  0  0  0
  8 48  1  0  0  0  0
  9 49  1  0  0  0  0
  9 50  1  0  0  0  0
 10 51  1  0  0  0  0
 10 52  1  0  0  0  0
 11 53  1  0  0  0  0
 11 54  1  0  0  0  0
 12 55  1  0  0  0  0
 12 56  1  0  0  0  0
 13 57  1  0  0  0  0
 13 58  1  0  0  0  0
 14 59  1  0  0  0  0
 14 60  1  0  0  0  0
 16 61  1  0  0  0  0
 16 62  1  0  0  0  0
 16 63  1  0  0  0  0
 17 64  1  0  0  0  0
 17 65  1  0  0  0  0
 17 66  1  0  0  0  0
 18 67  1  0  0  0  0
 18 68  1  0  0  0  0
 19 69  1  0  0  0  0
 19 70  1  0  0  0  0
 20 71  1  0  0  0  0
 20 72  1  0  0  0  0
 21 73  1  0  0  0  0
 21 74  1  0  0  0  0
 22 75  1  0  0  0  0
 22 76  1  0  0  0  0
 23 77  1  0  0  0  0
 23 78  1  0  0  0  0
 24 79  1  0  0  0  0
 24 80  1  0  0  0  0
 25 81  1  0  0  0  0
 25 82  1  0  0  0  0
 26 83  1  0  0  0  0
 26 84  1  0  0  0  0
 27 85  1  0  0  0  0
 27 86  1  0  0  0  0
 28 87  1  0  0  0  0
 28 88  1  0  0  0  0
 29 89  1  0  0  0  0
 29 90  1  0  0  0  0
 30 91  1  0  0  0  0
 30 92  1  0  0  0  0
 31 93  1  0  0  0  0
 31 94  1  0  0  0  0
 31 95  1  0  0  0  0
M  CHG  1  15   1
M  END
>  <InChIKey>
CJBMLKNLJXFFGD-UHFFFAOYSA-N

>  <UN GHS>
1

>  <CASRN>
68391-05-9

> <Outcome>
1

>  <Index>
98

>  <StandardizerResult>
Clear Stereo (ID: ClearStereo)
Wedge Clean (ID: WedgeClean)
Mesomerize (ID: Mesomerize)
Tautomerize (ID: Tautomerize)
Add Explicit Hydrogens (ID: AddExplicitH)
Clean 2D (ID: Clean2D)

> <knn Distance>


> <CpId>
98

$$$$
99
  Mrv1532301301811342D          

 16 15  0  0  0  0            999 V2000
    1.9520    1.9531    0.0000 N   0  0  0  0  0  0  0  0  0  0  0  0
    1.9520    1.1281    0.0000 C   0  0  0  0  0  0  0  0  0  0  0  0
    1.2375    0.7156    0.0000 C   0  0  0  0  0  0  0  0  0  0  0  0
    0.5230    1.1281    0.0000 C   0  0  0  0  0  0  0  0  0  0  0  0
   -0.1914    0.7156    0.0000 O   0  0  0  0  0  0  0  0  0  0  0  0
    0.5230    1.9531    0.0000 O   0  0  0  0  0  0  0  0  0  0  0  0
    2.6664    0.7156    0.0000 C   0  0  0  0  0  0  0  0  0  0  0  0
    3.3809    1.1281    0.0000 O   0  0  0  0  0  0  0  0  0  0  0  0
    2.6664   -0.1094    0.0000 O   0  0  0  0  0  0  0  0  0  0  0  0
    2.6664    2.3656    0.0000 H   0  0  0  0  0  0  0  0  0  0  0  0
    1.2375    2.3656    0.0000 H   0  0  0  0  0  0  0  0  0  0  0  0
    1.2375    1.5406    0.0000 H   0  0  0  0  0  0  0  0  0  0  0  0
    0.8672   -0.0216    0.0000 H   0  0  0  0  0  0  0  0  0  0  0  0
    1.6078   -0.0216    0.0000 H   0  0  0  0  0  0  0  0  0  0  0  0
   -0.9059    1.1281    0.0000 H   0  0  0  0  0  0  0  0  0  0  0  0
    4.0954    0.7156    0.0000 H   0  0  0  0  0  0  0  0  0  0  0  0
  1  2  1  0  0  0  0
  2  3  1  0  0  0  0
  3  4  1  0  0  0  0
  4  5  1  0  0  0  0
  4  6  2  0  0  0  0
  2  7  1  0  0  0  0
  7  8  1  0  0  0  0
  7  9  2  0  0  0  0
  1 10  1  0  0  0  0
  1 11  1  0  0  0  0
  2 12  1  0  0  0  0
  3 13  1  0  0  0  0
  3 14  1  0  0  0  0
  5 15  1  0  0  0  0
  8 16  1  0  0  0  0
M  END
>  <InChIKey>
CKLJMWTZIZZHCS-UHFFFAOYSA-N

>  <UN GHS>
2B

>  <CASRN>
56-84-8

> <Outcome>
1

>  <Index>
99

>  <StandardizerResult>
Clear Stereo (ID: ClearStereo)
Wedge Clean (ID: WedgeClean)
Mesomerize (ID: Mesomerize)
Tautomerize (ID: Tautomerize)
Add Explicit Hydrogens (ID: AddExplicitH)
Neutralize (ID: Neutralize)
Clean 2D (ID: Clean2D)

> <knn Distance>


> <CpId>
99

$$$$
100
  Mrv1532301301811342D          

 54 53  0  0  0  0            999 V2000
   -0.1767   -3.0584    0.0000 C   0  0  0  0  0  0  0  0  0  0  0  0
    0.6334   -2.9025    0.0000 C   0  0  0  0  0  0  0  0  0  0  0  0
    0.9035   -2.1229    0.0000 C   0  0  0  0  0  0  0  0  0  0  0  0
    1.1735   -3.5261    0.0000 C   0  0  0  0  0  0  0  0  0  0  0  0
    1.9836   -3.3702    0.0000 C   0  0  0  0  0  0  0  0  0  0  0  0
    2.2537   -2.5906    0.0000 C   0  0  0  0  0  0  0  0  0  0  0  0
    2.5237   -3.9938    0.0000 O   0  0  0  0  0  0  0  0  0  0  0  0
    3.3339   -3.8379    0.0000 C   0  0  0  0  0  0  0  0  0  0  0  0
    3.6039   -3.0584    0.0000 O   0  0  0  0  0  0  0  0  0  0  0  0
    3.8739   -4.4616    0.0000 C   0  0  0  0  0  0  0  0  0  0  0  0
    4.6841   -4.3057    0.0000 C   0  0  0  0  0  0  0  0  0  0  0  0
    5.2242   -4.9293    0.0000 C   0  0  0  0  0  0  0  0  0  0  0  0
    4.9541   -5.7089    0.0000 O   0  0  0  0  0  0  0  0  0  0  0  0
    6.0343   -4.7734    0.0000 O   0  0  0  0  0  0  0  0  0  0  0  0
    6.5744   -5.3970    0.0000 C   0  0  0  0  0  0  0  0  0  0  0  0
    6.3043   -6.1766    0.0000 C   0  0  0  0  0  0  0  0  0  0  0  0
    7.3845   -5.2411    0.0000 C   0  0  0  0  0  0  0  0  0  0  0  0
    7.9246   -5.8648    0.0000 C   0  0  0  0  0  0  0  0  0  0  0  0
    8.7347   -5.7089    0.0000 C   0  0  0  0  0  0  0  0  0  0  0  0
    7.6546   -6.6443    0.0000 C   0  0  0  0  0  0  0  0  0  0  0  0
    4.9541   -3.5261    0.0000 S   0  0  0  0  0  0  0  0  0  0  0  0
    5.7337   -3.7962    0.0000 O   0  0  0  0  0  0  0  0  0  0  0  0
    4.1746   -3.2561    0.0000 O   0  0  0  0  0  0  0  0  0  0  0  0
    5.2242   -2.7466    0.0000 O   0  0  0  0  0  0  0  0  0  0  0  0
   -0.3326   -2.2482    0.0000 H   0  0  0  0  0  0  0  0  0  0  0  0
   -0.9869   -3.2143    0.0000 H   0  0  0  0  0  0  0  0  0  0  0  0
   -0.0208   -3.8685    0.0000 H   0  0  0  0  0  0  0  0  0  0  0  0
    0.0933   -2.2788    0.0000 H   0  0  0  0  0  0  0  0  0  0  0  0
    1.5865   -2.5855    0.0000 H   0  0  0  0  0  0  0  0  0  0  0  0
    1.5271   -1.5828    0.0000 H   0  0  0  0  0  0  0  0  0  0  0  0
    0.5432   -1.3807    0.0000 H   0  0  0  0  0  0  0  0  0  0  0  0
    0.5823   -4.1015    0.0000 H   0  0  0  0  0  0  0  0  0  0  0  0
    1.2820   -4.3439    0.0000 H   0  0  0  0  0  0  0  0  0  0  0  0
    2.7938   -3.2143    0.0000 H   0  0  0  0  0  0  0  0  0  0  0  0
    3.0705   -2.4750    0.0000 H   0  0  0  0  0  0  0  0  0  0  0  0
    2.5994   -1.8416    0.0000 H   0  0  0  0  0  0  0  0  0  0  0  0
    1.8117   -1.8940    0.0000 H   0  0  0  0  0  0  0  0  0  0  0  0
    3.2828   -5.0370    0.0000 H   0  0  0  0  0  0  0  0  0  0  0  0
    3.9825   -5.2794    0.0000 H   0  0  0  0  0  0  0  0  0  0  0  0
    4.4140   -5.0852    0.0000 H   0  0  0  0  0  0  0  0  0  0  0  0
    5.7643   -5.5529    0.0000 H   0  0  0  0  0  0  0  0  0  0  0  0
    5.5622   -6.5369    0.0000 H   0  0  0  0  0  0  0  0  0  0  0  0
    6.4603   -6.9867    0.0000 H   0  0  0  0  0  0  0  0  0  0  0  0
    7.1272   -6.2357    0.0000 H   0  0  0  0  0  0  0  0  0  0  0  0
    7.9757   -4.6657    0.0000 H   0  0  0  0  0  0  0  0  0  0  0  0
    7.2760   -4.4233    0.0000 H   0  0  0  0  0  0  0  0  0  0  0  0
    8.1947   -5.0852    0.0000 H   0  0  0  0  0  0  0  0  0  0  0  0
    8.6757   -6.5317    0.0000 H   0  0  0  0  0  0  0  0  0  0  0  0
    9.5143   -5.9789    0.0000 H   0  0  0  0  0  0  0  0  0  0  0  0
    9.1974   -5.0258    0.0000 H   0  0  0  0  0  0  0  0  0  0  0  0
    6.9738   -7.1103    0.0000 H   0  0  0  0  0  0  0  0  0  0  0  0
    7.8897   -7.4351    0.0000 H   0  0  0  0  0  0  0  0  0  0  0  0
    8.4794   -6.6626    0.0000 H   0  0  0  0  0  0  0  0  0  0  0  0
    5.8896   -4.6063    0.0000 H   0  0  0  0  0  0  0  0  0  0  0  0
  1  2  1  0  0  0  0
  2  3  1  0  0  0  0
  2  4  1  0  0  0  0
  4  5  1  0  0  0  0
  5  6  1  0  0  0  0
  5  7  1  0  0  0  0
  7  8  1  0  0  0  0
  8  9  2  0  0  0  0
  8 10  1  0  0  0  0
 10 11  1  0  0  0  0
 11 12  1  0  0  0  0
 12 13  2  0  0  0  0
 12 14  1  0  0  0  0
 14 15  1  0  0  0  0
 15 16  1  0  0  0  0
 15 17  1  0  0  0  0
 17 18  1  0  0  0  0
 18 19  1  0  0  0  0
 18 20  1  0  0  0  0
 11 21  1  0  0  0  0
 21 22  1  0  0  0  0
 21 23  2  0  0  0  0
 21 24  2  0  0  0  0
  1 25  1  0  0  0  0
  1 26  1  0  0  0  0
  1 27  1  0  0  0  0
  2 28  1  0  0  0  0
  3 29  1  0  0  0  0
  3 30  1  0  0  0  0
  3 31  1  0  0  0  0
  4 32  1  0  0  0  0
  4 33  1  0  0  0  0
  5 34  1  0  0  0  0
  6 35  1  0  0  0  0
  6 36  1  0  0  0  0
  6 37  1  0  0  0  0
 10 38  1  0  0  0  0
 10 39  1  0  0  0  0
 11 40  1  0  0  0  0
 15 41  1  0  0  0  0
 16 42  1  0  0  0  0
 16 43  1  0  0  0  0
 16 44  1  0  0  0  0
 17 45  1  0  0  0  0
 17 46  1  0  0  0  0
 18 47  1  0  0  0  0
 19 48  1  0  0  0  0
 19 49  1  0  0  0  0
 19 50  1  0  0  0  0
 20 51  1  0  0  0  0
 20 52  1  0  0  0  0
 20 53  1  0  0  0  0
 22 54  1  0  0  0  0
M  END
>  <InChIKey>
CLJDUFMUISGSEC-UHFFFAOYSA-M

>  <UN GHS>
2A

>  <CASRN>
2373-38-8

> <Outcome>
1

>  <Index>
100

>  <StandardizerResult>
Clear Stereo (ID: ClearStereo)
Wedge Clean (ID: WedgeClean)
Mesomerize (ID: Mesomerize)
Tautomerize (ID: Tautomerize)
Add Explicit Hydrogens (ID: AddExplicitH)
Neutralize (ID: Neutralize)
Clean 2D (ID: Clean2D)

> <knn Distance>


> <CpId>
100

$$$$
102
  Mrv1532301301811342D          

 17 18  0  0  0  0            999 V2000
    3.2789    2.0625    0.0000 C   0  0  0  0  0  0  0  0  0  0  0  0
    3.2789    1.2375    0.0000 C   0  0  0  0  0  0  0  0  0  0  0  0
    3.9934    0.8250    0.0000 C   0  0  0  0  0  0  0  0  0  0  0  0
    3.9934   -0.0000    0.0000 C   0  0  0  0  0  0  0  0  0  0  0  0
    3.2789   -0.4125    0.0000 C   0  0  0  0  0  0  0  0  0  0  0  0
    2.5644   -0.0000    0.0000 C   0  0  0  0  0  0  0  0  0  0  0  0
    1.7798   -0.2549    0.0000 N   0  0  0  0  0  0  0  0  0  0  0  0
    1.2949    0.4125    0.0000 N   0  0  0  0  0  0  0  0  0  0  0  0
    1.7798    1.0799    0.0000 N   0  0  0  0  0  0  0  0  0  0  0  0
    2.5644    0.8250    0.0000 C   0  0  0  0  0  0  0  0  0  0  0  0
    4.1039    2.0625    0.0000 H   0  0  0  0  0  0  0  0  0  0  0  0
    3.2789    2.8875    0.0000 H   0  0  0  0  0  0  0  0  0  0  0  0
    2.4539    2.0625    0.0000 H   0  0  0  0  0  0  0  0  0  0  0  0
    4.7079    1.2375    0.0000 H   0  0  0  0  0  0  0  0  0  0  0  0
    4.7079   -0.4125    0.0000 H   0  0  0  0  0  0  0  0  0  0  0  0
    3.2789   -1.2375    0.0000 H   0  0  0  0  0  0  0  0  0  0  0  0
    1.5249    1.8646    0.0000 H   0  0  0  0  0  0  0  0  0  0  0  0
  1  2  1  0  0  0  0
  2  3  4  0  0  0  0
  3  4  4  0  0  0  0
  4  5  4  0  0  0  0
  5  6  4  0  0  0  0
  6  7  4  0  0  0  0
  7  8  4  0  0  0  0
  8  9  4  0  0  0  0
  9 10  4  0  0  0  0
  2 10  4  0  0  0  0
  6 10  4  0  0  0  0
  1 11  1  0  0  0  0
  1 12  1  0  0  0  0
  1 13  1  0  0  0  0
  3 14  1  0  0  0  0
  4 15  1  0  0  0  0
  5 16  1  0  0  0  0
  9 17  1  0  0  0  0
M  END
>  <InChIKey>
CMGDVUCDZOBDNL-UHFFFAOYSA-N

>  <UN GHS>
2B

>  <CASRN>
29385-43-1

> <Outcome>
1

>  <Index>
102

>  <StandardizerResult>
Dearomatize (ID: Dearomatize)
Clear Stereo (ID: ClearStereo)
Wedge Clean (ID: WedgeClean)
Mesomerize (ID: Mesomerize)
Tautomerize (ID: Tautomerize)
Aromatize (ID: Aromatize)
Add Explicit Hydrogens (ID: AddExplicitH)
Neutralize (ID: Neutralize)
Clean 2D (ID: Clean2D)

> <knn Distance>


> <CpId>
102

$$$$
110
  Mrv1532301301811342D          

 16 15  0  0  0  0            999 V2000
    2.4750   -1.4289    0.0000 C   0  0  0  0  0  0  0  0  0  0  0  0
    2.0625   -0.7145    0.0000 C   0  0  0  0  0  0  0  0  0  0  0  0
    2.4750    0.0000    0.0000 C   0  0  0  0  0  0  0  0  0  0  0  0
    1.2375   -0.7145    0.0000 C   0  0  0  0  0  0  0  0  0  0  0  0
    0.8250    0.0000    0.0000 C   0  0  0  0  0  0  0  0  0  0  0  0
    0.0000    0.0000    0.0000 O   0  0  0  0  0  0  0  0  0  0  0  0
    1.7605   -1.8414    0.0000 H   0  0  0  0  0  0  0  0  0  0  0  0
    2.8875   -2.1434    0.0000 H   0  0  0  0  0  0  0  0  0  0  0  0
    3.1895   -1.0164    0.0000 H   0  0  0  0  0  0  0  0  0  0  0  0
    3.3000    0.0000    0.0000 H   0  0  0  0  0  0  0  0  0  0  0  0
    2.0625    0.7145    0.0000 H   0  0  0  0  0  0  0  0  0  0  0  0
    0.5482   -1.1678    0.0000 H   0  0  0  0  0  0  0  0  0  0  0  0
    1.1895   -1.5381    0.0000 H   0  0  0  0  0  0  0  0  0  0  0  0
    1.5143    0.4533    0.0000 H   0  0  0  0  0  0  0  0  0  0  0  0
    0.8730    0.8236    0.0000 H   0  0  0  0  0  0  0  0  0  0  0  0
   -0.4125    0.7145    0.0000 H   0  0  0  0  0  0  0  0  0  0  0  0
  1  2  1  0  0  0  0
  2  3  2  0  0  0  0
  2  4  1  0  0  0  0
  4  5  1  0  0  0  0
  5  6  1  0  0  0  0
  1  7  1  0  0  0  0
  1  8  1  0  0  0  0
  1  9  1  0  0  0  0
  3 10  1  0  0  0  0
  3 11  1  0  0  0  0
  4 12  1  0  0  0  0
  4 13  1  0  0  0  0
  5 14  1  0  0  0  0
  5 15  1  0  0  0  0
  6 16  1  0  0  0  0
M  END
>  <InChIKey>
CPJRRXSHAYUTGL-UHFFFAOYSA-N

>  <UN GHS>
1

>  <CASRN>
763-32-6

> <Outcome>
1

>  <Index>
110

>  <StandardizerResult>
Clear Stereo (ID: ClearStereo)
Wedge Clean (ID: WedgeClean)
Mesomerize (ID: Mesomerize)
Tautomerize (ID: Tautomerize)
Add Explicit Hydrogens (ID: AddExplicitH)
Neutralize (ID: Neutralize)
Clean 2D (ID: Clean2D)

> <knn Distance>


> <CpId>
110

$$$$
112
  Mrv1532301301811342D          

 37 37  0  0  0  0            999 V2000
   -0.4131    1.7331    0.0000 C   0  0  0  0  0  0  0  0  0  0  0  0
   -0.0006    2.4476    0.0000 N   0  3  0  0  0  0  0  0  0  0  0  0
    0.4119    3.1621    0.0000 C   0  0  0  0  0  0  0  0  0  0  0  0
   -0.7151    2.8601    0.0000 C   0  0  0  0  0  0  0  0  0  0  0  0
   -0.7151    3.6851    0.0000 C   0  0  0  0  0  0  0  0  0  0  0  0
   -1.4295    4.0976    0.0000 O   0  0  0  0  0  0  0  0  0  0  0  0
   -1.4295    4.9226    0.0000 C   0  0  0  0  0  0  0  0  0  0  0  0
   -0.7151    5.3351    0.0000 O   0  0  0  0  0  0  0  0  0  0  0  0
   -2.1440    5.3351    0.0000 C   0  0  0  0  0  0  0  0  0  0  0  0
   -2.1440    6.1601    0.0000 C   0  0  0  0  0  0  0  0  0  0  0  0
    0.7139    2.0351    0.0000 C   0  0  0  0  0  0  0  0  0  0  0  0
    0.7139    1.2101    0.0000 C   0  0  0  0  0  0  0  0  0  0  0  0
    1.4284    0.7976    0.0000 C   0  0  0  0  0  0  0  0  0  0  0  0
    1.4284   -0.0274    0.0000 C   0  0  0  0  0  0  0  0  0  0  0  0
    0.7139   -0.4399    0.0000 C   0  0  0  0  0  0  0  0  0  0  0  0
   -0.0006   -0.0274    0.0000 C   0  0  0  0  0  0  0  0  0  0  0  0
   -0.0006    0.7976    0.0000 C   0  0  0  0  0  0  0  0  0  0  0  0
   -1.1276    2.1456    0.0000 H   0  0  0  0  0  0  0  0  0  0  0  0
   -0.8256    1.0186    0.0000 H   0  0  0  0  0  0  0  0  0  0  0  0
    0.3014    1.3206    0.0000 H   0  0  0  0  0  0  0  0  0  0  0  0
    1.1264    2.7496    0.0000 H   0  0  0  0  0  0  0  0  0  0  0  0
    0.8244    3.8765    0.0000 H   0  0  0  0  0  0  0  0  0  0  0  0
   -0.3026    3.5746    0.0000 H   0  0  0  0  0  0  0  0  0  0  0  0
   -1.3470    3.3904    0.0000 H   0  0  0  0  0  0  0  0  0  0  0  0
   -1.5275    2.7168    0.0000 H   0  0  0  0  0  0  0  0  0  0  0  0
   -0.0831    4.2154    0.0000 H   0  0  0  0  0  0  0  0  0  0  0  0
   -0.7870    4.5069    0.0000 H   0  0  0  0  0  0  0  0  0  0  0  0
   -2.8585    4.9226    0.0000 H   0  0  0  0  0  0  0  0  0  0  0  0
   -1.4295    6.5726    0.0000 H   0  0  0  0  0  0  0  0  0  0  0  0
   -2.8585    6.5726    0.0000 H   0  0  0  0  0  0  0  0  0  0  0  0
    1.5108    1.8216    0.0000 H   0  0  0  0  0  0  0  0  0  0  0  0
    0.5004    2.8320    0.0000 H   0  0  0  0  0  0  0  0  0  0  0  0
    2.1428    1.2101    0.0000 H   0  0  0  0  0  0  0  0  0  0  0  0
    2.1428   -0.4399    0.0000 H   0  0  0  0  0  0  0  0  0  0  0  0
    0.7139   -1.2649    0.0000 H   0  0  0  0  0  0  0  0  0  0  0  0
   -0.7151   -0.4399    0.0000 H   0  0  0  0  0  0  0  0  0  0  0  0
    0.7139    0.3851    0.0000 H   0  0  0  0  0  0  0  0  0  0  0  0
  1  2  1  0  0  0  0
  2  3  1  0  0  0  0
  2  4  1  0  0  0  0
  4  5  1  0  0  0  0
  5  6  1  0  0  0  0
  6  7  1  0  0  0  0
  7  8  2  0  0  0  0
  7  9  1  0  0  0  0
  9 10  2  0  0  0  0
  2 11  1  0  0  0  0
 11 12  1  0  0  0  0
 12 13  4  0  0  0  0
 13 14  4  0  0  0  0
 14 15  4  0  0  0  0
 15 16  4  0  0  0  0
 16 17  4  0  0  0  0
 12 17  4  0  0  0  0
  1 18  1  0  0  0  0
  1 19  1  0  0  0  0
  1 20  1  0  0  0  0
  3 21  1  0  0  0  0
  3 22  1  0  0  0  0
  3 23  1  0  0  0  0
  4 24  1  0  0  0  0
  4 25  1  0  0  0  0
  5 26  1  0  0  0  0
  5 27  1  0  0  0  0
  9 28  1  0  0  0  0
 10 29  1  0  0  0  0
 10 30  1  0  0  0  0
 11 31  1  0  0  0  0
 11 32  1  0  0  0  0
 13 33  1  0  0  0  0
 14 34  1  0  0  0  0
 15 35  1  0  0  0  0
 16 36  1  0  0  0  0
 17 37  1  0  0  0  0
M  CHG  1   2   1
M  END
>  <InChIKey>
CQLNQGQDXMGDBC-UHFFFAOYSA-N

>  <UN GHS>
2A

>  <CASRN>
46830-22-2

> <Outcome>
1

>  <Index>
112

>  <StandardizerResult>
Dearomatize (ID: Dearomatize)
Clear Stereo (ID: ClearStereo)
Wedge Clean (ID: WedgeClean)
Mesomerize (ID: Mesomerize)
Tautomerize (ID: Tautomerize)
Aromatize (ID: Aromatize)
Add Explicit Hydrogens (ID: AddExplicitH)
Clean 2D (ID: Clean2D)

> <knn Distance>


> <CpId>
112

$$$$
115
  Mrv1532301301811342D          

 21 20  0  0  0  0            999 V2000
    3.8699    0.5370    0.0000 C   0  0  0  0  0  0  0  0  0  0  0  0
    3.8699    1.3620    0.0000 N   0  0  0  0  0  0  0  0  0  0  0  0
    3.1554    1.7745    0.0000 C   0  0  0  0  0  0  0  0  0  0  0  0
    2.4410    1.3620    0.0000 C   0  0  0  0  0  0  0  0  0  0  0  0
    1.7265    1.7745    0.0000 O   0  0  0  0  0  0  0  0  0  0  0  0
    4.5844    1.7745    0.0000 C   0  0  0  0  0  0  0  0  0  0  0  0
    5.2989    1.3620    0.0000 C   0  0  0  0  0  0  0  0  0  0  0  0
    6.0133    1.7745    0.0000 O   0  0  0  0  0  0  0  0  0  0  0  0
    3.0449    0.5370    0.0000 H   0  0  0  0  0  0  0  0  0  0  0  0
    3.8699   -0.2880    0.0000 H   0  0  0  0  0  0  0  0  0  0  0  0
    4.6949    0.5370    0.0000 H   0  0  0  0  0  0  0  0  0  0  0  0
    3.5257    2.5117    0.0000 H   0  0  0  0  0  0  0  0  0  0  0  0
    2.7852    2.5117    0.0000 H   0  0  0  0  0  0  0  0  0  0  0  0
    2.0707    0.6247    0.0000 H   0  0  0  0  0  0  0  0  0  0  0  0
    2.8112    0.6247    0.0000 H   0  0  0  0  0  0  0  0  0  0  0  0
    1.7265    2.5995    0.0000 H   0  0  0  0  0  0  0  0  0  0  0  0
    4.9546    2.5117    0.0000 H   0  0  0  0  0  0  0  0  0  0  0  0
    4.2141    2.5117    0.0000 H   0  0  0  0  0  0  0  0  0  0  0  0
    4.9286    0.6247    0.0000 H   0  0  0  0  0  0  0  0  0  0  0  0
    5.6691    0.6247    0.0000 H   0  0  0  0  0  0  0  0  0  0  0  0
    6.7278    1.3620    0.0000 H   0  0  0  0  0  0  0  0  0  0  0  0
  1  2  1  0  0  0  0
  2  3  1  0  0  0  0
  3  4  1  0  0  0  0
  4  5  1  0  0  0  0
  2  6  1  0  0  0  0
  6  7  1  0  0  0  0
  7  8  1  0  0  0  0
  1  9  1  0  0  0  0
  1 10  1  0  0  0  0
  1 11  1  0  0  0  0
  3 12  1  0  0  0  0
  3 13  1  0  0  0  0
  4 14  1  0  0  0  0
  4 15  1  0  0  0  0
  5 16  1  0  0  0  0
  6 17  1  0  0  0  0
  6 18  1  0  0  0  0
  7 19  1  0  0  0  0
  7 20  1  0  0  0  0
  8 21  1  0  0  0  0
M  END
>  <InChIKey>
CRVGTESFCCXCTH-UHFFFAOYSA-N

>  <UN GHS>
2A

>  <CASRN>
105-59-9

> <Outcome>
1

>  <Index>
115

>  <StandardizerResult>
Clear Stereo (ID: ClearStereo)
Wedge Clean (ID: WedgeClean)
Mesomerize (ID: Mesomerize)
Tautomerize (ID: Tautomerize)
Add Explicit Hydrogens (ID: AddExplicitH)
Neutralize (ID: Neutralize)
Clean 2D (ID: Clean2D)

> <knn Distance>


> <CpId>
115

$$$$
116
  Mrv1532301301811342D          

 21 20  0  0  0  0            999 V2000
   -0.4155   -0.1256    0.0000 O   0  0  0  0  0  0  0  0  0  0  0  0
   -0.0030   -0.8400    0.0000 C   0  0  0  0  0  0  0  0  0  0  0  0
   -0.4155   -1.5545    0.0000 O   0  0  0  0  0  0  0  0  0  0  0  0
    0.8220   -0.8400    0.0000 C   0  0  0  0  0  0  0  0  0  0  0  0
    0.8220   -1.6650    0.0000 F   0  0  0  0  0  0  0  0  0  0  0  0
    1.6470   -0.8400    0.0000 O   0  0  0  0  0  0  0  0  0  0  0  0
    2.0595   -1.5545    0.0000 C   0  0  0  0  0  0  0  0  0  0  0  0
    1.3450   -1.9670    0.0000 F   0  0  0  0  0  0  0  0  0  0  0  0
    2.7740   -1.1420    0.0000 F   0  0  0  0  0  0  0  0  0  0  0  0
    2.4720   -2.2690    0.0000 C   0  0  0  0  0  0  0  0  0  0  0  0
    1.7575   -2.6815    0.0000 F   0  0  0  0  0  0  0  0  0  0  0  0
    3.1865   -1.8565    0.0000 F   0  0  0  0  0  0  0  0  0  0  0  0
    2.8845   -2.9834    0.0000 C   0  0  0  0  0  0  0  0  0  0  0  0
    3.2970   -3.6979    0.0000 F   0  0  0  0  0  0  0  0  0  0  0  0
    2.1700   -3.3959    0.0000 F   0  0  0  0  0  0  0  0  0  0  0  0
    3.5990   -2.5709    0.0000 F   0  0  0  0  0  0  0  0  0  0  0  0
    0.8220   -0.0150    0.0000 C   0  0  0  0  0  0  0  0  0  0  0  0
    0.8220    0.8100    0.0000 F   0  0  0  0  0  0  0  0  0  0  0  0
    1.6470   -0.0150    0.0000 F   0  0  0  0  0  0  0  0  0  0  0  0
   -0.0030   -0.0150    0.0000 F   0  0  0  0  0  0  0  0  0  0  0  0
   -1.1777    0.1902    0.0000 H   0  0  0  0  0  0  0  0  0  0  0  0
  1  2  1  0  0  0  0
  2  3  2  0  0  0  0
  2  4  1  0  0  0  0
  4  5  1  0  0  0  0
  4  6  1  0  0  0  0
  6  7  1  0  0  0  0
  7  8  1  0  0  0  0
  7  9  1  0  0  0  0
  7 10  1  0  0  0  0
 10 11  1  0  0  0  0
 10 12  1  0  0  0  0
 10 13  1  0  0  0  0
 13 14  1  0  0  0  0
 13 15  1  0  0  0  0
 13 16  1  0  0  0  0
  4 17  1  0  0  0  0
 17 18  1  0  0  0  0
 17 19  1  0  0  0  0
 17 20  1  0  0  0  0
  1 21  1  0  0  0  0
M  END
>  <InChIKey>
CSEBNABAWMZWIF-UHFFFAOYSA-M

>  <UN GHS>
2A

>  <CASRN>
62037-80-3

> <Outcome>
1

>  <Index>
116

>  <StandardizerResult>
Clear Stereo (ID: ClearStereo)
Wedge Clean (ID: WedgeClean)
Mesomerize (ID: Mesomerize)
Tautomerize (ID: Tautomerize)
Add Explicit Hydrogens (ID: AddExplicitH)
Neutralize (ID: Neutralize)
Clean 2D (ID: Clean2D)

> <knn Distance>


> <CpId>
116

$$$$
122
  Mrv1532301301811342D          

  9  8  0  0  0  0            999 V2000
    2.0615   -0.7162    0.0000 O   0  0  0  0  0  0  0  0  0  0  0  0
    1.2365   -0.7162    0.0000 C   0  0  0  0  0  0  0  0  0  0  0  0
    0.8240   -1.4306    0.0000 O   0  0  0  0  0  0  0  0  0  0  0  0
    0.8240   -0.0017    0.0000 C   0  0  0  0  0  0  0  0  0  0  0  0
   -0.0010   -0.0017    0.0000 S   0  0  0  0  0  0  0  0  0  0  0  0
    2.4740   -1.4306    0.0000 H   0  0  0  0  0  0  0  0  0  0  0  0
    1.5133    0.4516    0.0000 H   0  0  0  0  0  0  0  0  0  0  0  0
    0.8720    0.8219    0.0000 H   0  0  0  0  0  0  0  0  0  0  0  0
   -0.4135    0.7128    0.0000 H   0  0  0  0  0  0  0  0  0  0  0  0
  1  2  1  0  0  0  0
  2  3  2  0  0  0  0
  2  4  1  0  0  0  0
  4  5  1  0  0  0  0
  1  6  1  0  0  0  0
  4  7  1  0  0  0  0
  4  8  1  0  0  0  0
  5  9  1  0  0  0  0
M  END
>  <InChIKey>
CWERGRDVMFNCDR-UHFFFAOYSA-L

>  <UN GHS>
2A

>  <CASRN>
29820-13-1

> <Outcome>
1

>  <Index>
122

>  <StandardizerResult>
Clear Stereo (ID: ClearStereo)
Wedge Clean (ID: WedgeClean)
Mesomerize (ID: Mesomerize)
Tautomerize (ID: Tautomerize)
Add Explicit Hydrogens (ID: AddExplicitH)
Neutralize (ID: Neutralize)
Clean 2D (ID: Clean2D)

> <knn Distance>


> <CpId>
122

$$$$
125
  Mrv1532301301811342D          

 18 18  0  0  0  0            999 V2000
   -0.4324   -0.7487    0.0000 C   0  0  0  0  0  0  0  0  0  0  0  0
    0.0525   -0.0812    0.0000 N   0  0  0  0  0  0  0  0  0  0  0  0
   -0.2024    0.7034    0.0000 C   0  0  0  0  0  0  0  0  0  0  0  0
    0.4650    1.1883    0.0000 C   0  0  0  0  0  0  0  0  0  0  0  0
    1.1324    0.7034    0.0000 N   0  0  0  0  0  0  0  0  0  0  0  0
    1.9171    0.9583    0.0000 C   0  0  0  0  0  0  0  0  0  0  0  0
    0.8775   -0.0812    0.0000 C   0  0  0  0  0  0  0  0  0  0  0  0
    1.3624   -0.7487    0.0000 O   0  0  0  0  0  0  0  0  0  0  0  0
   -1.0999   -0.2638    0.0000 H   0  0  0  0  0  0  0  0  0  0  0  0
   -0.9174   -1.4161    0.0000 H   0  0  0  0  0  0  0  0  0  0  0  0
    0.2350   -1.2336    0.0000 H   0  0  0  0  0  0  0  0  0  0  0  0
   -0.7755    1.2968    0.0000 H   0  0  0  0  0  0  0  0  0  0  0  0
   -1.0149    0.5601    0.0000 H   0  0  0  0  0  0  0  0  0  0  0  0
    0.8523    1.9167    0.0000 H   0  0  0  0  0  0  0  0  0  0  0  0
    0.0777    1.9167    0.0000 H   0  0  0  0  0  0  0  0  0  0  0  0
    2.1720    0.1737    0.0000 H   0  0  0  0  0  0  0  0  0  0  0  0
    2.7017    1.2133    0.0000 H   0  0  0  0  0  0  0  0  0  0  0  0
    1.6621    1.7429    0.0000 H   0  0  0  0  0  0  0  0  0  0  0  0
  1  2  1  0  0  0  0
  2  3  1  0  0  0  0
  3  4  1  0  0  0  0
  4  5  1  0  0  0  0
  5  6  1  0  0  0  0
  5  7  1  0  0  0  0
  2  7  1  0  0  0  0
  7  8  2  0  0  0  0
  1  9  1  0  0  0  0
  1 10  1  0  0  0  0
  1 11  1  0  0  0  0
  3 12  1  0  0  0  0
  3 13  1  0  0  0  0
  4 14  1  0  0  0  0
  4 15  1  0  0  0  0
  6 16  1  0  0  0  0
  6 17  1  0  0  0  0
  6 18  1  0  0  0  0
M  END
>  <InChIKey>
CYSGHNMQYZDMIA-UHFFFAOYSA-N

>  <UN GHS>
1

>  <CASRN>
80-73-9

> <Outcome>
1

>  <Index>
125

>  <StandardizerResult>
Clear Stereo (ID: ClearStereo)
Wedge Clean (ID: WedgeClean)
Mesomerize (ID: Mesomerize)
Tautomerize (ID: Tautomerize)
Add Explicit Hydrogens (ID: AddExplicitH)
Neutralize (ID: Neutralize)
Clean 2D (ID: Clean2D)

> <knn Distance>


> <CpId>
125

$$$$
132
  Mrv1532301301811342D          

 15 15  0  0  0  0            999 V2000
   -0.0000    2.4750    0.0000 N   0  0  0  0  0  0  0  0  0  0  0  0
    0.7145    2.0625    0.0000 C   0  0  0  0  0  0  0  0  0  0  0  0
    1.4289    2.4750    0.0000 O   0  0  0  0  0  0  0  0  0  0  0  0
    0.7145    1.2375    0.0000 C   0  0  0  0  0  0  0  0  0  0  0  0
    1.4289    0.8250    0.0000 C   0  0  0  0  0  0  0  0  0  0  0  0
    1.4289   -0.0000    0.0000 C   0  0  0  0  0  0  0  0  0  0  0  0
    0.7145   -0.4125    0.0000 C   0  0  0  0  0  0  0  0  0  0  0  0
   -0.0000   -0.0000    0.0000 N   0  0  0  0  0  0  0  0  0  0  0  0
   -0.0000    0.8250    0.0000 C   0  0  0  0  0  0  0  0  0  0  0  0
   -0.0000    3.3000    0.0000 H   0  0  0  0  0  0  0  0  0  0  0  0
   -0.7145    2.0625    0.0000 H   0  0  0  0  0  0  0  0  0  0  0  0
    2.1434    1.2375    0.0000 H   0  0  0  0  0  0  0  0  0  0  0  0
    2.1434   -0.4125    0.0000 H   0  0  0  0  0  0  0  0  0  0  0  0
    0.7145   -1.2375    0.0000 H   0  0  0  0  0  0  0  0  0  0  0  0
   -0.7145    1.2375    0.0000 H   0  0  0  0  0  0  0  0  0  0  0  0
  1  2  1  0  0  0  0
  2  3  2  0  0  0  0
  2  4  1  0  0  0  0
  4  5  4  0  0  0  0
  5  6  4  0  0  0  0
  6  7  4  0  0  0  0
  7  8  4  0  0  0  0
  8  9  4  0  0  0  0
  4  9  4  0  0  0  0
  1 10  1  0  0  0  0
  1 11  1  0  0  0  0
  5 12  1  0  0  0  0
  6 13  1  0  0  0  0
  7 14  1  0  0  0  0
  9 15  1  0  0  0  0
M  END
>  <InChIKey>
DFPAKSUCGFBDDF-UHFFFAOYSA-N

>  <UN GHS>
2A

>  <CASRN>
98-92-0

> <Outcome>
1

>  <Index>
132

>  <StandardizerResult>
Dearomatize (ID: Dearomatize)
Clear Stereo (ID: ClearStereo)
Wedge Clean (ID: WedgeClean)
Mesomerize (ID: Mesomerize)
Tautomerize (ID: Tautomerize)
Aromatize (ID: Aromatize)
Add Explicit Hydrogens (ID: AddExplicitH)
Neutralize (ID: Neutralize)
Clean 2D (ID: Clean2D)

> <knn Distance>


> <CpId>
132

$$$$
133
  Mrv1532301301811342D          

 13 12  0  0  0  0            999 V2000
    0.8050    1.4771    0.0000 C   0  0  0  0  0  0  0  0  0  0  0  0
    1.2175    0.7626    0.0000 C   0  0  0  0  0  0  0  0  0  0  0  0
    2.0425    0.7626    0.0000 C   0  0  0  0  0  0  0  0  0  0  0  0
    0.8050    0.0482    0.0000 C   0  0  0  0  0  0  0  0  0  0  0  0
    1.2175   -0.6663    0.0000 Cl  0  0  0  0  0  0  0  0  0  0  0  0
   -0.0200    0.0482    0.0000 O   0  0  0  0  0  0  0  0  0  0  0  0
    1.5195    1.8896    0.0000 H   0  0  0  0  0  0  0  0  0  0  0  0
    0.3925    2.1916    0.0000 H   0  0  0  0  0  0  0  0  0  0  0  0
    0.0906    1.0646    0.0000 H   0  0  0  0  0  0  0  0  0  0  0  0
    1.6300    1.4771    0.0000 H   0  0  0  0  0  0  0  0  0  0  0  0
    1.8290   -0.0343    0.0000 H   0  0  0  0  0  0  0  0  0  0  0  0
    2.7570    0.3501    0.0000 H   0  0  0  0  0  0  0  0  0  0  0  0
    2.6259    1.3460    0.0000 H   0  0  0  0  0  0  0  0  0  0  0  0
  1  2  1  0  0  0  0
  2  3  1  0  0  0  0
  2  4  1  0  0  0  0
  4  5  1  0  0  0  0
  4  6  2  0  0  0  0
  1  7  1  0  0  0  0
  1  8  1  0  0  0  0
  1  9  1  0  0  0  0
  2 10  1  0  0  0  0
  3 11  1  0  0  0  0
  3 12  1  0  0  0  0
  3 13  1  0  0  0  0
M  END
>  <InChIKey>
DGMOBVGABMBZSB-UHFFFAOYSA-N

>  <UN GHS>
1

>  <CASRN>
79-30-1

> <Outcome>
1

>  <Index>
133

>  <StandardizerResult>
Clear Stereo (ID: ClearStereo)
Wedge Clean (ID: WedgeClean)
Mesomerize (ID: Mesomerize)
Tautomerize (ID: Tautomerize)
Add Explicit Hydrogens (ID: AddExplicitH)
Neutralize (ID: Neutralize)
Clean 2D (ID: Clean2D)

> <knn Distance>


> <CpId>
133

$$$$
137
  Mrv1532301301811342D          

  8  7  0  0  0  0            999 V2000
    0.8250   -0.8250    0.0000 O   0  0  0  0  0  0  0  0  0  0  0  0
    0.8250    0.0000    0.0000 As  0  0  0  0  0  0  0  0  0  0  0  0
    0.8250    0.8250    0.0000 O   0  0  0  0  0  0  0  0  0  0  0  0
    1.6500   -0.0000    0.0000 O   0  0  0  0  0  0  0  0  0  0  0  0
    0.0000    0.0000    0.0000 O   0  0  0  0  0  0  0  0  0  0  0  0
    0.1105   -1.2375    0.0000 H   0  0  0  0  0  0  0  0  0  0  0  0
    1.5395    1.2375    0.0000 H   0  0  0  0  0  0  0  0  0  0  0  0
    2.0625   -0.7145    0.0000 H   0  0  0  0  0  0  0  0  0  0  0  0
  1  2  1  0  0  0  0
  2  3  1  0  0  0  0
  2  4  1  0  0  0  0
  2  5  2  0  0  0  0
  1  6  1  0  0  0  0
  3  7  1  0  0  0  0
  4  8  1  0  0  0  0
M  END
>  <InChIKey>
DJHGAFSJWGLOIV-UHFFFAOYSA-N

>  <UN GHS>
1

>  <CASRN>
7778-39-4

> <Outcome>
1

>  <Index>
137

>  <StandardizerResult>
Clear Stereo (ID: ClearStereo)
Wedge Clean (ID: WedgeClean)
Mesomerize (ID: Mesomerize)
Tautomerize (ID: Tautomerize)
Add Explicit Hydrogens (ID: AddExplicitH)
Neutralize (ID: Neutralize)
Clean 2D (ID: Clean2D)

> <knn Distance>


> <CpId>
137

$$$$
139
  Mrv1532301301811342D          

 12 11  0  0  0  0            999 V2000
    2.4750   -1.4289    0.0000 O   0  0  0  0  0  0  0  0  0  0  0  0
    2.0625   -0.7145    0.0000 C   0  0  0  0  0  0  0  0  0  0  0  0
    2.4750   -0.0000    0.0000 O   0  0  0  0  0  0  0  0  0  0  0  0
    1.2375   -0.7145    0.0000 C   0  0  0  0  0  0  0  0  0  0  0  0
    0.8250   -0.0000    0.0000 C   0  0  0  0  0  0  0  0  0  0  0  0
    0.0000   -0.0000    0.0000 S   0  0  0  0  0  0  0  0  0  0  0  0
    2.0625   -2.1434    0.0000 H   0  0  0  0  0  0  0  0  0  0  0  0
    0.5482   -1.1678    0.0000 H   0  0  0  0  0  0  0  0  0  0  0  0
    1.1895   -1.5381    0.0000 H   0  0  0  0  0  0  0  0  0  0  0  0
    1.5143    0.4533    0.0000 H   0  0  0  0  0  0  0  0  0  0  0  0
    0.8730    0.8236    0.0000 H   0  0  0  0  0  0  0  0  0  0  0  0
   -0.4125    0.7145    0.0000 H   0  0  0  0  0  0  0  0  0  0  0  0
  1  2  1  0  0  0  0
  2  3  2  0  0  0  0
  2  4  1  0  0  0  0
  4  5  1  0  0  0  0
  5  6  1  0  0  0  0
  1  7  1  0  0  0  0
  4  8  1  0  0  0  0
  4  9  1  0  0  0  0
  5 10  1  0  0  0  0
  5 11  1  0  0  0  0
  6 12  1  0  0  0  0
M  END
>  <InChIKey>
DKIDEFUBRARXTE-UHFFFAOYSA-N

>  <UN GHS>
1

>  <CASRN>
107-96-0

> <Outcome>
1

>  <Index>
139

>  <StandardizerResult>
Clear Stereo (ID: ClearStereo)
Wedge Clean (ID: WedgeClean)
Mesomerize (ID: Mesomerize)
Tautomerize (ID: Tautomerize)
Add Explicit Hydrogens (ID: AddExplicitH)
Neutralize (ID: Neutralize)
Clean 2D (ID: Clean2D)

> <knn Distance>


> <CpId>
139

$$$$
146
  Mrv1532301301811342D          

 27 26  0  0  0  0            999 V2000
    1.7711    1.8282    0.0000 C   0  0  0  0  0  0  0  0  0  0  0  0
    2.4855    1.4157    0.0000 N   0  0  0  0  0  0  0  0  0  0  0  0
    2.4855    0.5907    0.0000 C   0  0  0  0  0  0  0  0  0  0  0  0
    3.2000    1.8282    0.0000 C   0  0  0  0  0  0  0  0  0  0  0  0
    3.9145    1.4157    0.0000 C   0  0  0  0  0  0  0  0  0  0  0  0
    4.6289    1.8282    0.0000 C   0  0  0  0  0  0  0  0  0  0  0  0
    5.3434    1.4157    0.0000 N   0  0  0  0  0  0  0  0  0  0  0  0
    6.0579    1.8282    0.0000 C   0  0  0  0  0  0  0  0  0  0  0  0
    5.3434    0.5907    0.0000 C   0  0  0  0  0  0  0  0  0  0  0  0
    2.1836    2.5427    0.0000 H   0  0  0  0  0  0  0  0  0  0  0  0
    1.0566    2.2407    0.0000 H   0  0  0  0  0  0  0  0  0  0  0  0
    1.3586    1.1137    0.0000 H   0  0  0  0  0  0  0  0  0  0  0  0
    1.6605    0.5907    0.0000 H   0  0  0  0  0  0  0  0  0  0  0  0
    2.4855   -0.2343    0.0000 H   0  0  0  0  0  0  0  0  0  0  0  0
    3.3105    0.5907    0.0000 H   0  0  0  0  0  0  0  0  0  0  0  0
    3.5703    2.5654    0.0000 H   0  0  0  0  0  0  0  0  0  0  0  0
    2.8297    2.5654    0.0000 H   0  0  0  0  0  0  0  0  0  0  0  0
    3.5442    0.6784    0.0000 H   0  0  0  0  0  0  0  0  0  0  0  0
    4.2847    0.6784    0.0000 H   0  0  0  0  0  0  0  0  0  0  0  0
    4.9992    2.5654    0.0000 H   0  0  0  0  0  0  0  0  0  0  0  0
    4.2587    2.5654    0.0000 H   0  0  0  0  0  0  0  0  0  0  0  0
    6.4704    1.1137    0.0000 H   0  0  0  0  0  0  0  0  0  0  0  0
    6.7724    2.2407    0.0000 H   0  0  0  0  0  0  0  0  0  0  0  0
    5.6454    2.5427    0.0000 H   0  0  0  0  0  0  0  0  0  0  0  0
    4.5184    0.5907    0.0000 H   0  0  0  0  0  0  0  0  0  0  0  0
    5.3434   -0.2343    0.0000 H   0  0  0  0  0  0  0  0  0  0  0  0
    6.1684    0.5907    0.0000 H   0  0  0  0  0  0  0  0  0  0  0  0
  1  2  1  0  0  0  0
  2  3  1  0  0  0  0
  2  4  1  0  0  0  0
  4  5  1  0  0  0  0
  5  6  1  0  0  0  0
  6  7  1  0  0  0  0
  7  8  1  0  0  0  0
  7  9  1  0  0  0  0
  1 10  1  0  0  0  0
  1 11  1  0  0  0  0
  1 12  1  0  0  0  0
  3 13  1  0  0  0  0
  3 14  1  0  0  0  0
  3 15  1  0  0  0  0
  4 16  1  0  0  0  0
  4 17  1  0  0  0  0
  5 18  1  0  0  0  0
  5 19  1  0  0  0  0
  6 20  1  0  0  0  0
  6 21  1  0  0  0  0
  8 22  1  0  0  0  0
  8 23  1  0  0  0  0
  8 24  1  0  0  0  0
  9 25  1  0  0  0  0
  9 26  1  0  0  0  0
  9 27  1  0  0  0  0
M  END
>  <InChIKey>
DMQSHEKGGUOYJS-UHFFFAOYSA-N

>  <UN GHS>
1

>  <CASRN>
110-95-2

> <Outcome>
1

>  <Index>
146

>  <StandardizerResult>
Clear Stereo (ID: ClearStereo)
Wedge Clean (ID: WedgeClean)
Mesomerize (ID: Mesomerize)
Tautomerize (ID: Tautomerize)
Add Explicit Hydrogens (ID: AddExplicitH)
Neutralize (ID: Neutralize)
Clean 2D (ID: Clean2D)

> <knn Distance>


> <CpId>
146

$$$$
147
  Mrv1532301301811342D          

 62 61  0  0  0  0            999 V2000
    9.1487    6.1353    0.0000 C   0  0  0  0  0  0  0  0  0  0  0  0
    9.8631    5.7228    0.0000 C   0  0  0  0  0  0  0  0  0  0  0  0
   10.5776    6.1353    0.0000 C   0  0  0  0  0  0  0  0  0  0  0  0
   10.5776    6.9603    0.0000 O   0  0  0  0  0  0  0  0  0  0  0  0
   11.2921    5.7228    0.0000 O   0  0  0  0  0  0  0  0  0  0  0  0
   12.0066    6.1353    0.0000 C   0  0  0  0  0  0  0  0  0  0  0  0
   12.7210    5.7228    0.0000 C   0  0  0  0  0  0  0  0  0  0  0  0
   13.4355    6.1353    0.0000 C   0  0  0  0  0  0  0  0  0  0  0  0
   14.1500    5.7228    0.0000 O   0  0  0  0  0  0  0  0  0  0  0  0
   14.8644    6.1353    0.0000 C   0  0  0  0  0  0  0  0  0  0  0  0
   15.5789    5.7228    0.0000 C   0  0  0  0  0  0  0  0  0  0  0  0
   16.2934    6.1353    0.0000 C   0  0  0  0  0  0  0  0  0  0  0  0
   17.0079    5.7228    0.0000 O   0  0  0  0  0  0  0  0  0  0  0  0
   17.7223    6.1353    0.0000 C   0  0  0  0  0  0  0  0  0  0  0  0
   18.4368    5.7228    0.0000 C   0  0  0  0  0  0  0  0  0  0  0  0
   19.1513    6.1353    0.0000 C   0  0  0  0  0  0  0  0  0  0  0  0
   19.8657    5.7228    0.0000 O   0  0  0  0  0  0  0  0  0  0  0  0
   20.5802    6.1353    0.0000 C   0  0  0  0  0  0  0  0  0  0  0  0
   20.5802    6.9603    0.0000 O   0  0  0  0  0  0  0  0  0  0  0  0
   21.2947    5.7228    0.0000 C   0  0  0  0  0  0  0  0  0  0  0  0
   22.0091    6.1353    0.0000 C   0  0  0  0  0  0  0  0  0  0  0  0
   15.5789    4.8978    0.0000 O   0  0  0  0  0  0  0  0  0  0  0  0
   14.8644    4.4853    0.0000 C   0  0  0  0  0  0  0  0  0  0  0  0
   14.8644    3.6603    0.0000 C   0  0  0  0  0  0  0  0  0  0  0  0
   14.1500    3.2478    0.0000 C   0  0  0  0  0  0  0  0  0  0  0  0
   14.1500    2.4228    0.0000 O   0  0  0  0  0  0  0  0  0  0  0  0
   13.4355    2.0103    0.0000 C   0  0  0  0  0  0  0  0  0  0  0  0
   12.7210    2.4228    0.0000 O   0  0  0  0  0  0  0  0  0  0  0  0
   13.4355    1.1853    0.0000 C   0  0  0  0  0  0  0  0  0  0  0  0
   12.7210    0.7728    0.0000 C   0  0  0  0  0  0  0  0  0  0  0  0
    9.1487    6.9603    0.0000 H   0  0  0  0  0  0  0  0  0  0  0  0
    8.4342    5.7228    0.0000 H   0  0  0  0  0  0  0  0  0  0  0  0
    9.8631    4.8978    0.0000 H   0  0  0  0  0  0  0  0  0  0  0  0
   12.3768    6.8725    0.0000 H   0  0  0  0  0  0  0  0  0  0  0  0
   11.6363    6.8725    0.0000 H   0  0  0  0  0  0  0  0  0  0  0  0
   12.3508    4.9855    0.0000 H   0  0  0  0  0  0  0  0  0  0  0  0
   13.0913    4.9855    0.0000 H   0  0  0  0  0  0  0  0  0  0  0  0
   13.8058    6.8725    0.0000 H   0  0  0  0  0  0  0  0  0  0  0  0
   13.0652    6.8725    0.0000 H   0  0  0  0  0  0  0  0  0  0  0  0
   15.2347    6.8725    0.0000 H   0  0  0  0  0  0  0  0  0  0  0  0
   14.4942    6.8725    0.0000 H   0  0  0  0  0  0  0  0  0  0  0  0
   15.5789    6.5478    0.0000 H   0  0  0  0  0  0  0  0  0  0  0  0
   16.9254    6.6656    0.0000 H   0  0  0  0  0  0  0  0  0  0  0  0
   16.4366    6.9478    0.0000 H   0  0  0  0  0  0  0  0  0  0  0  0
   18.4454    6.5326    0.0000 H   0  0  0  0  0  0  0  0  0  0  0  0
   17.7573    6.9596    0.0000 H   0  0  0  0  0  0  0  0  0  0  0  0
   18.0665    4.9855    0.0000 H   0  0  0  0  0  0  0  0  0  0  0  0
   18.8071    4.9855    0.0000 H   0  0  0  0  0  0  0  0  0  0  0  0
   19.7810    6.6683    0.0000 H   0  0  0  0  0  0  0  0  0  0  0  0
   19.2891    6.9487    0.0000 H   0  0  0  0  0  0  0  0  0  0  0  0
   21.2947    4.8978    0.0000 H   0  0  0  0  0  0  0  0  0  0  0  0
   22.7236    5.7228    0.0000 H   0  0  0  0  0  0  0  0  0  0  0  0
   22.0091    6.9603    0.0000 H   0  0  0  0  0  0  0  0  0  0  0  0
   14.4111    5.1746    0.0000 H   0  0  0  0  0  0  0  0  0  0  0  0
   14.0408    4.5333    0.0000 H   0  0  0  0  0  0  0  0  0  0  0  0
   15.3178    2.9710    0.0000 H   0  0  0  0  0  0  0  0  0  0  0  0
   15.6880    3.6123    0.0000 H   0  0  0  0  0  0  0  0  0  0  0  0
   13.6966    3.9371    0.0000 H   0  0  0  0  0  0  0  0  0  0  0  0
   13.3264    3.2958    0.0000 H   0  0  0  0  0  0  0  0  0  0  0  0
   14.1500    0.7728    0.0000 H   0  0  0  0  0  0  0  0  0  0  0  0
   12.0066    1.1853    0.0000 H   0  0  0  0  0  0  0  0  0  0  0  0
   12.7210   -0.0522    0.0000 H   0  0  0  0  0  0  0  0  0  0  0  0
  1  2  2  0  0  0  0
  2  3  1  0  0  0  0
  3  4  2  0  0  0  0
  3  5  1  0  0  0  0
  5  6  1  0  0  0  0
  6  7  1  0  0  0  0
  7  8  1  0  0  0  0
  8  9  1  0  0  0  0
  9 10  1  0  0  0  0
 10 11  1  0  0  0  0
 11 12  1  0  0  0  0
 12 13  1  0  0  0  0
 13 14  1  0  0  0  0
 14 15  1  0  0  0  0
 15 16  1  0  0  0  0
 16 17  1  0  0  0  0
 17 18  1  0  0  0  0
 18 19  2  0  0  0  0
 18 20  1  0  0  0  0
 20 21  2  0  0  0  0
 11 22  1  0  0  0  0
 22 23  1  0  0  0  0
 23 24  1  0  0  0  0
 24 25  1  0  0  0  0
 25 26  1  0  0  0  0
 26 27  1  0  0  0  0
 27 28  2  0  0  0  0
 27 29  1  0  0  0  0
 29 30  2  0  0  0  0
  1 31  1  0  0  0  0
  1 32  1  0  0  0  0
  2 33  1  0  0  0  0
  6 34  1  0  0  0  0
  6 35  1  0  0  0  0
  7 36  1  0  0  0  0
  7 37  1  0  0  0  0
  8 38  1  0  0  0  0
  8 39  1  0  0  0  0
 10 40  1  0  0  0  0
 10 41  1  0  0  0  0
 11 42  1  0  0  0  0
 12 43  1  0  0  0  0
 12 44  1  0  0  0  0
 14 45  1  0  0  0  0
 14 46  1  0  0  0  0
 15 47  1  0  0  0  0
 15 48  1  0  0  0  0
 16 49  1  0  0  0  0
 16 50  1  0  0  0  0
 20 51  1  0  0  0  0
 21 52  1  0  0  0  0
 21 53  1  0  0  0  0
 23 54  1  0  0  0  0
 23 55  1  0  0  0  0
 24 56  1  0  0  0  0
 24 57  1  0  0  0  0
 25 58  1  0  0  0  0
 25 59  1  0  0  0  0
 29 60  1  0  0  0  0
 30 61  1  0  0  0  0
 30 62  1  0  0  0  0
M  END
>  <InChIKey>
DMQYPVOQAARSNF-UHFFFAOYSA-N

>  <UN GHS>
2A

>  <CASRN>
52408-84-1

> <Outcome>
1

>  <Index>
147

>  <StandardizerResult>
Clear Stereo (ID: ClearStereo)
Wedge Clean (ID: WedgeClean)
Mesomerize (ID: Mesomerize)
Tautomerize (ID: Tautomerize)
Add Explicit Hydrogens (ID: AddExplicitH)
Neutralize (ID: Neutralize)
Clean 2D (ID: Clean2D)

> <knn Distance>


> <CpId>
147

$$$$
148
  Mrv1532301301811342D          

 47 48  0  0  0  0            999 V2000
    0.7131   -0.3809    0.0000 C   0  0  0  0  0  0  0  0  0  0  0  0
    0.7131   -1.2059    0.0000 C   0  0  0  0  0  0  0  0  0  0  0  0
   -0.1119   -1.2059    0.0000 C   0  0  0  0  0  0  0  0  0  0  0  0
    1.5381   -1.2059    0.0000 C   0  0  0  0  0  0  0  0  0  0  0  0
    0.7131   -2.0309    0.0000 C   0  0  0  0  0  0  0  0  0  0  0  0
    1.4275   -2.4434    0.0000 C   0  0  0  0  0  0  0  0  0  0  0  0
    1.4275   -3.2684    0.0000 C   0  0  0  0  0  0  0  0  0  0  0  0
    0.7131   -3.6809    0.0000 C   0  0  0  0  0  0  0  0  0  0  0  0
   -0.0014   -3.2684    0.0000 C   0  0  0  0  0  0  0  0  0  0  0  0
   -0.0014   -2.4434    0.0000 C   0  0  0  0  0  0  0  0  0  0  0  0
    0.7131   -4.5059    0.0000 I   0  2  0  0  0  0  0  0  0  0  0  0
    0.7131   -5.3309    0.0000 C   0  0  0  0  0  0  0  0  0  0  0  0
    1.4275   -5.7434    0.0000 C   0  0  0  0  0  0  0  0  0  0  0  0
    1.4275   -6.5684    0.0000 C   0  0  0  0  0  0  0  0  0  0  0  0
    0.7131   -6.9809    0.0000 C   0  5  0  0  0  0  0  0  0  0  0  0
   -0.0014   -6.5684    0.0000 C   0  0  0  0  0  0  0  0  0  0  0  0
   -0.0014   -5.7434    0.0000 C   0  0  0  0  0  0  0  0  0  0  0  0
    0.7131   -7.8059    0.0000 C   0  0  0  0  0  0  0  0  0  0  0  0
    0.7131   -8.6309    0.0000 C   0  0  0  0  0  0  0  0  0  0  0  0
   -0.1119   -7.8059    0.0000 C   0  0  0  0  0  0  0  0  0  0  0  0
    1.5381   -7.8059    0.0000 C   0  0  0  0  0  0  0  0  0  0  0  0
    1.5381   -0.3809    0.0000 H   0  0  0  0  0  0  0  0  0  0  0  0
    0.7131    0.4441    0.0000 H   0  0  0  0  0  0  0  0  0  0  0  0
   -0.1119   -0.3809    0.0000 H   0  0  0  0  0  0  0  0  0  0  0  0
   -0.8741   -0.8901    0.0000 H   0  0  0  0  0  0  0  0  0  0  0  0
   -0.6953   -1.7892    0.0000 H   0  0  0  0  0  0  0  0  0  0  0  0
    0.2038   -1.9681    0.0000 H   0  0  0  0  0  0  0  0  0  0  0  0
    1.2224   -1.9681    0.0000 H   0  0  0  0  0  0  0  0  0  0  0  0
    2.1214   -1.7892    0.0000 H   0  0  0  0  0  0  0  0  0  0  0  0
    2.3003   -0.8901    0.0000 H   0  0  0  0  0  0  0  0  0  0  0  0
    2.1850   -2.7703    0.0000 H   0  0  0  0  0  0  0  0  0  0  0  0
    1.8606   -3.9706    0.0000 H   0  0  0  0  0  0  0  0  0  0  0  0
   -0.7159   -3.6809    0.0000 H   0  0  0  0  0  0  0  0  0  0  0  0
   -0.7589   -2.7703    0.0000 H   0  0  0  0  0  0  0  0  0  0  0  0
    2.1420   -5.3309    0.0000 H   0  0  0  0  0  0  0  0  0  0  0  0
    2.1420   -6.9809    0.0000 H   0  0  0  0  0  0  0  0  0  0  0  0
   -0.7159   -6.9809    0.0000 H   0  0  0  0  0  0  0  0  0  0  0  0
   -0.7159   -5.3309    0.0000 H   0  0  0  0  0  0  0  0  0  0  0  0
   -0.1119   -8.6309    0.0000 H   0  0  0  0  0  0  0  0  0  0  0  0
    0.7131   -9.4559    0.0000 H   0  0  0  0  0  0  0  0  0  0  0  0
    1.5381   -8.6309    0.0000 H   0  0  0  0  0  0  0  0  0  0  0  0
    0.2038   -7.0437    0.0000 H   0  0  0  0  0  0  0  0  0  0  0  0
   -0.6953   -7.2225    0.0000 H   0  0  0  0  0  0  0  0  0  0  0  0
   -0.8741   -8.1216    0.0000 H   0  0  0  0  0  0  0  0  0  0  0  0
    2.3003   -8.1216    0.0000 H   0  0  0  0  0  0  0  0  0  0  0  0
    2.1214   -7.2225    0.0000 H   0  0  0  0  0  0  0  0  0  0  0  0
    1.2224   -7.0437    0.0000 H   0  0  0  0  0  0  0  0  0  0  0  0
  1  2  1  0  0  0  0
  2  3  1  0  0  0  0
  2  4  1  0  0  0  0
  2  5  1  0  0  0  0
  5  6  4  0  0  0  0
  6  7  4  0  0  0  0
  7  8  4  0  0  0  0
  8  9  4  0  0  0  0
  9 10  4  0  0  0  0
  5 10  4  0  0  0  0
 11  8  1  4  0  0  0
 11 12  2  0  0  0  0
 12 13  1  0  0  0  0
 13 14  2  0  0  0  0
 14 15  1  0  0  0  0
 15 16  1  0  0  0  0
 16 17  2  0  0  0  0
 12 17  1  0  0  0  0
 15 18  1  0  0  0  0
 18 19  1  0  0  0  0
 18 20  1  0  0  0  0
 18 21  1  0  0  0  0
  1 22  1  0  0  0  0
  1 23  1  0  0  0  0
  1 24  1  0  0  0  0
  3 25  1  0  0  0  0
  3 26  1  0  0  0  0
  3 27  1  0  0  0  0
  4 28  1  0  0  0  0
  4 29  1  0  0  0  0
  4 30  1  0  0  0  0
  6 31  1  0  0  0  0
  7 32  1  0  0  0  0
  9 33  1  0  0  0  0
 10 34  1  0  0  0  0
 13 35  1  0  0  0  0
 14 36  1  0  0  0  0
 16 37  1  0  0  0  0
 17 38  1  0  0  0  0
 19 39  1  0  0  0  0
 19 40  1  0  0  0  0
 19 41  1  0  0  0  0
 20 42  1  0  0  0  0
 20 43  1  0  0  0  0
 20 44  1  0  0  0  0
 21 45  1  0  0  0  0
 21 46  1  0  0  0  0
 21 47  1  0  0  0  0
M  CHG  2  11   2  15  -1
M  END
>  <InChIKey>
DNFSNYQTQMVTOK-UHFFFAOYSA-N

>  <UN GHS>
1

>  <CASRN>
61358-25-6

> <Outcome>
1

>  <Index>
148

>  <StandardizerResult>
Dearomatize (ID: Dearomatize)
Clear Stereo (ID: ClearStereo)
Wedge Clean (ID: WedgeClean)
Mesomerize (ID: Mesomerize)
Aromatize (ID: Aromatize)
Add Explicit Hydrogens (ID: AddExplicitH)
Clean 2D (ID: Clean2D)

> <knn Distance>


> <CpId>
148

$$$$
151
  Mrv1532301301811342D          

 24 24  0  0  0  0            999 V2000
    2.1434    1.2375    0.0000 C   0  0  0  0  0  0  0  0  0  0  0  0
    1.4289    0.8250    0.0000 N   0  0  0  0  0  0  0  0  0  0  0  0
    1.4289    0.0000    0.0000 C   0  0  0  0  0  0  0  0  0  0  0  0
    0.7145   -0.4125    0.0000 N   0  0  0  0  0  0  0  0  0  0  0  0
    0.7145   -1.2375    0.0000 C   0  0  0  0  0  0  0  0  0  0  0  0
   -0.0000    0.0000    0.0000 C   0  0  0  0  0  0  0  0  0  0  0  0
   -0.0000    0.8250    0.0000 N   0  0  0  0  0  0  0  0  0  0  0  0
   -0.7145    1.2375    0.0000 C   0  0  0  0  0  0  0  0  0  0  0  0
    0.7145    1.2375    0.0000 C   0  0  0  0  0  0  0  0  0  0  0  0
    2.5559    0.5230    0.0000 H   0  0  0  0  0  0  0  0  0  0  0  0
    2.8579    1.6500    0.0000 H   0  0  0  0  0  0  0  0  0  0  0  0
    1.7309    1.9520    0.0000 H   0  0  0  0  0  0  0  0  0  0  0  0
    1.8823   -0.6893    0.0000 H   0  0  0  0  0  0  0  0  0  0  0  0
    2.2525   -0.0480    0.0000 H   0  0  0  0  0  0  0  0  0  0  0  0
   -0.1105   -1.2375    0.0000 H   0  0  0  0  0  0  0  0  0  0  0  0
    0.7145   -2.0625    0.0000 H   0  0  0  0  0  0  0  0  0  0  0  0
    1.5395   -1.2375    0.0000 H   0  0  0  0  0  0  0  0  0  0  0  0
   -0.8236   -0.0480    0.0000 H   0  0  0  0  0  0  0  0  0  0  0  0
   -0.4533   -0.6893    0.0000 H   0  0  0  0  0  0  0  0  0  0  0  0
   -0.3020    1.9520    0.0000 H   0  0  0  0  0  0  0  0  0  0  0  0
   -1.4289    1.6500    0.0000 H   0  0  0  0  0  0  0  0  0  0  0  0
   -1.1270    0.5230    0.0000 H   0  0  0  0  0  0  0  0  0  0  0  0
    1.0847    1.9747    0.0000 H   0  0  0  0  0  0  0  0  0  0  0  0
    0.3442    1.9747    0.0000 H   0  0  0  0  0  0  0  0  0  0  0  0
  1  2  1  0  0  0  0
  2  3  1  0  0  0  0
  3  4  1  0  0  0  0
  4  5  1  0  0  0  0
  4  6  1  0  0  0  0
  6  7  1  0  0  0  0
  7  8  1  0  0  0  0
  7  9  1  0  0  0  0
  2  9  1  0  0  0  0
  1 10  1  0  0  0  0
  1 11  1  0  0  0  0
  1 12  1  0  0  0  0
  3 13  1  0  0  0  0
  3 14  1  0  0  0  0
  5 15  1  0  0  0  0
  5 16  1  0  0  0  0
  5 17  1  0  0  0  0
  6 18  1  0  0  0  0
  6 19  1  0  0  0  0
  8 20  1  0  0  0  0
  8 21  1  0  0  0  0
  8 22  1  0  0  0  0
  9 23  1  0  0  0  0
  9 24  1  0  0  0  0
M  END
>  <InChIKey>
DPMZXMBOYHBELT-UHFFFAOYSA-N

>  <UN GHS>
1

>  <CASRN>
108-74-7

> <Outcome>
1

>  <Index>
151

>  <StandardizerResult>
Clear Stereo (ID: ClearStereo)
Wedge Clean (ID: WedgeClean)
Mesomerize (ID: Mesomerize)
Tautomerize (ID: Tautomerize)
Add Explicit Hydrogens (ID: AddExplicitH)
Neutralize (ID: Neutralize)
Clean 2D (ID: Clean2D)

> <knn Distance>


> <CpId>
151

$$$$
152
  Mrv1532301301811342D          

 26 25  0  0  0  0            999 V2000
    2.9309    1.8672    0.0000 C   0  0  0  0  0  0  0  0  0  0  0  0
    2.2164    1.4547    0.0000 C   0  0  0  0  0  0  0  0  0  0  0  0
    1.5019    1.8672    0.0000 O   0  0  0  0  0  0  0  0  0  0  0  0
    0.7875    1.4547    0.0000 P   0  0  0  0  0  0  0  0  0  0  0  0
    0.3750    2.1692    0.0000 O   0  0  0  0  0  0  0  0  0  0  0  0
    0.0730    1.0422    0.0000 O   0  0  0  0  0  0  0  0  0  0  0  0
   -0.6415    1.4547    0.0000 C   0  0  0  0  0  0  0  0  0  0  0  0
   -1.3559    1.0422    0.0000 C   0  0  0  0  0  0  0  0  0  0  0  0
    1.2000    0.7402    0.0000 O   0  0  0  0  0  0  0  0  0  0  0  0
    0.7875    0.0257    0.0000 C   0  0  0  0  0  0  0  0  0  0  0  0
   -0.0375    0.0257    0.0000 C   0  0  0  0  0  0  0  0  0  0  0  0
    3.3434    1.1527    0.0000 H   0  0  0  0  0  0  0  0  0  0  0  0
    3.6453    2.2797    0.0000 H   0  0  0  0  0  0  0  0  0  0  0  0
    2.5184    2.5817    0.0000 H   0  0  0  0  0  0  0  0  0  0  0  0
    1.8461    0.7174    0.0000 H   0  0  0  0  0  0  0  0  0  0  0  0
    2.5867    0.7174    0.0000 H   0  0  0  0  0  0  0  0  0  0  0  0
   -0.2712    2.1919    0.0000 H   0  0  0  0  0  0  0  0  0  0  0  0
   -1.0117    2.1919    0.0000 H   0  0  0  0  0  0  0  0  0  0  0  0
   -1.7684    1.7567    0.0000 H   0  0  0  0  0  0  0  0  0  0  0  0
   -2.0704    0.6297    0.0000 H   0  0  0  0  0  0  0  0  0  0  0  0
   -0.9434    0.3277    0.0000 H   0  0  0  0  0  0  0  0  0  0  0  0
    0.8354   -0.7979    0.0000 H   0  0  0  0  0  0  0  0  0  0  0  0
    1.4767   -0.4276    0.0000 H   0  0  0  0  0  0  0  0  0  0  0  0
   -0.4657   -0.6794    0.0000 H   0  0  0  0  0  0  0  0  0  0  0  0
    0.1457   -0.7787    0.0000 H   0  0  0  0  0  0  0  0  0  0  0  0
    0.0946    0.8401    0.0000 H   0  0  0  0  0  0  0  0  0  0  0  0
  1  2  1  0  0  0  0
  2  3  1  0  0  0  0
  3  4  1  0  0  0  0
  4  5  2  0  0  0  0
  4  6  1  0  0  0  0
  6  7  1  0  0  0  0
  7  8  1  0  0  0  0
  4  9  1  0  0  0  0
  9 10  1  0  0  0  0
 10 11  1  0  0  0  0
  1 12  1  0  0  0  0
  1 13  1  0  0  0  0
  1 14  1  0  0  0  0
  2 15  1  0  0  0  0
  2 16  1  0  0  0  0
  7 17  1  0  0  0  0
  7 18  1  0  0  0  0
  8 19  1  0  0  0  0
  8 20  1  0  0  0  0
  8 21  1  0  0  0  0
 10 22  1  0  0  0  0
 10 23  1  0  0  0  0
 11 24  1  0  0  0  0
 11 25  1  0  0  0  0
 11 26  1  0  0  0  0
M  END
>  <InChIKey>
DQWPFSLDHJDLRL-UHFFFAOYSA-N

>  <UN GHS>
2A

>  <CASRN>
78-40-0

> <Outcome>
1

>  <Index>
152

>  <StandardizerResult>
Clear Stereo (ID: ClearStereo)
Wedge Clean (ID: WedgeClean)
Mesomerize (ID: Mesomerize)
Tautomerize (ID: Tautomerize)
Add Explicit Hydrogens (ID: AddExplicitH)
Neutralize (ID: Neutralize)
Clean 2D (ID: Clean2D)

> <knn Distance>


> <CpId>
152

$$$$
155
  Mrv1532301301811342D          

 23 22  0  0  0  0            999 V2000
    1.7437    1.8408    0.0000 C   0  0  0  0  0  0  0  0  0  0  0  0
    2.4581    1.4283    0.0000 C   0  0  0  0  0  0  0  0  0  0  0  0
    2.4581    0.6033    0.0000 O   0  0  0  0  0  0  0  0  0  0  0  0
    3.1726    1.8408    0.0000 C   0  0  0  0  0  0  0  0  0  0  0  0
    3.8871    1.4283    0.0000 O   0  0  0  0  0  0  0  0  0  0  0  0
    4.6015    1.8408    0.0000 C   0  0  0  0  0  0  0  0  0  0  0  0
    4.6015    2.6658    0.0000 C   0  0  0  0  0  0  0  0  0  0  0  0
    5.3160    1.4283    0.0000 C   0  0  0  0  0  0  0  0  0  0  0  0
    6.0305    1.8408    0.0000 O   0  0  0  0  0  0  0  0  0  0  0  0
    2.1562    2.5553    0.0000 H   0  0  0  0  0  0  0  0  0  0  0  0
    1.0292    2.2533    0.0000 H   0  0  0  0  0  0  0  0  0  0  0  0
    1.3312    1.1263    0.0000 H   0  0  0  0  0  0  0  0  0  0  0  0
    1.7437    1.0158    0.0000 H   0  0  0  0  0  0  0  0  0  0  0  0
    2.8706   -0.1112    0.0000 H   0  0  0  0  0  0  0  0  0  0  0  0
    3.5429    2.5780    0.0000 H   0  0  0  0  0  0  0  0  0  0  0  0
    2.8023    2.5780    0.0000 H   0  0  0  0  0  0  0  0  0  0  0  0
    3.8871    2.2533    0.0000 H   0  0  0  0  0  0  0  0  0  0  0  0
    5.3984    2.4523    0.0000 H   0  0  0  0  0  0  0  0  0  0  0  0
    5.0140    3.3803    0.0000 H   0  0  0  0  0  0  0  0  0  0  0  0
    4.0182    3.2492    0.0000 H   0  0  0  0  0  0  0  0  0  0  0  0
    4.9458    0.6910    0.0000 H   0  0  0  0  0  0  0  0  0  0  0  0
    5.6863    0.6910    0.0000 H   0  0  0  0  0  0  0  0  0  0  0  0
    6.8493    1.7399    0.0000 H   0  0  0  0  0  0  0  0  0  0  0  0
  1  2  1  0  0  0  0
  2  3  1  0  0  0  0
  2  4  1  0  0  0  0
  4  5  1  0  0  0  0
  5  6  1  0  0  0  0
  6  7  1  0  0  0  0
  6  8  1  0  0  0  0
  8  9  1  0  0  0  0
  1 10  1  0  0  0  0
  1 11  1  0  0  0  0
  1 12  1  0  0  0  0
  2 13  1  0  0  0  0
  3 14  1  0  0  0  0
  4 15  1  0  0  0  0
  4 16  1  0  0  0  0
  6 17  1  0  0  0  0
  7 18  1  0  0  0  0
  7 19  1  0  0  0  0
  7 20  1  0  0  0  0
  8 21  1  0  0  0  0
  8 22  1  0  0  0  0
  9 23  1  0  0  0  0
M  END
>  <InChIKey>
DUFKCOQISQKSAV-UHFFFAOYSA-N

>  <UN GHS>
2B

>  <CASRN>
25322-69-4

> <Outcome>
1

>  <Index>
155

>  <StandardizerResult>
Clear Stereo (ID: ClearStereo)
Wedge Clean (ID: WedgeClean)
Mesomerize (ID: Mesomerize)
Tautomerize (ID: Tautomerize)
Add Explicit Hydrogens (ID: AddExplicitH)
Neutralize (ID: Neutralize)
Clean 2D (ID: Clean2D)

> <knn Distance>


> <CpId>
155

$$$$
160
  Mrv1532301301811342D          

 13 12  0  0  0  0            999 V2000
    1.2375    2.1434    0.0000 C   0  0  0  0  0  0  0  0  0  0  0  0
    0.8250    1.4289    0.0000 C   0  0  0  0  0  0  0  0  0  0  0  0
    1.2375    0.7145    0.0000 C   0  0  0  0  0  0  0  0  0  0  0  0
    0.8250   -0.0000    0.0000 C   0  0  0  0  0  0  0  0  0  0  0  0
    1.2375   -0.7145    0.0000 Cl  0  0  0  0  0  0  0  0  0  0  0  0
   -0.0000   -0.0000    0.0000 O   0  0  0  0  0  0  0  0  0  0  0  0
    1.9520    1.7309    0.0000 H   0  0  0  0  0  0  0  0  0  0  0  0
    1.6500    2.8579    0.0000 H   0  0  0  0  0  0  0  0  0  0  0  0
    0.5230    2.5559    0.0000 H   0  0  0  0  0  0  0  0  0  0  0  0
    0.0878    1.7992    0.0000 H   0  0  0  0  0  0  0  0  0  0  0  0
    0.0878    1.0587    0.0000 H   0  0  0  0  0  0  0  0  0  0  0  0
    1.9747    0.3442    0.0000 H   0  0  0  0  0  0  0  0  0  0  0  0
    1.9747    1.0847    0.0000 H   0  0  0  0  0  0  0  0  0  0  0  0
  1  2  1  0  0  0  0
  2  3  1  0  0  0  0
  3  4  1  0  0  0  0
  4  5  1  0  0  0  0
  4  6  2  0  0  0  0
  1  7  1  0  0  0  0
  1  8  1  0  0  0  0
  1  9  1  0  0  0  0
  2 10  1  0  0  0  0
  2 11  1  0  0  0  0
  3 12  1  0  0  0  0
  3 13  1  0  0  0  0
M  END
>  <InChIKey>
DVECBJCOGJRVPX-UHFFFAOYSA-N

>  <UN GHS>
1

>  <CASRN>
141-75-3

> <Outcome>
1

>  <Index>
160

>  <StandardizerResult>
Clear Stereo (ID: ClearStereo)
Wedge Clean (ID: WedgeClean)
Mesomerize (ID: Mesomerize)
Tautomerize (ID: Tautomerize)
Add Explicit Hydrogens (ID: AddExplicitH)
Neutralize (ID: Neutralize)
Clean 2D (ID: Clean2D)

> <knn Distance>


> <CpId>
160

$$$$
163
  Mrv1532301301811342D          

 41 40  0  0  0  0            999 V2000
    6.7105    4.6989    0.0000 O   0  0  0  0  0  0  0  0  0  0  0  0
    7.4250    4.2864    0.0000 C   0  0  0  0  0  0  0  0  0  0  0  0
    7.4250    3.4614    0.0000 O   0  0  0  0  0  0  0  0  0  0  0  0
    8.1395    4.6989    0.0000 C   0  0  0  0  0  0  0  0  0  0  0  0
    8.8539    4.2864    0.0000 C   0  0  0  0  0  0  0  0  0  0  0  0
    9.5684    4.6989    0.0000 C   0  0  0  0  0  0  0  0  0  0  0  0
   10.2829    4.2864    0.0000 C   0  0  0  0  0  0  0  0  0  0  0  0
   10.9974    4.6989    0.0000 C   0  0  0  0  0  0  0  0  0  0  0  0
   11.7118    4.2864    0.0000 C   0  0  0  0  0  0  0  0  0  0  0  0
   12.4263    4.6989    0.0000 C   0  0  0  0  0  0  0  0  0  0  0  0
   13.1408    4.2864    0.0000 C   0  0  0  0  0  0  0  0  0  0  0  0
   13.8552    4.6989    0.0000 C   0  0  0  0  0  0  0  0  0  0  0  0
   14.5697    4.2864    0.0000 C   0  0  0  0  0  0  0  0  0  0  0  0
   15.2842    4.6989    0.0000 C   0  0  0  0  0  0  0  0  0  0  0  0
   15.9987    4.2864    0.0000 C   0  0  0  0  0  0  0  0  0  0  0  0
   16.7131    4.6989    0.0000 O   0  0  0  0  0  0  0  0  0  0  0  0
   15.9987    3.4614    0.0000 O   0  0  0  0  0  0  0  0  0  0  0  0
    6.7105    5.5239    0.0000 H   0  0  0  0  0  0  0  0  0  0  0  0
    8.5097    5.4361    0.0000 H   0  0  0  0  0  0  0  0  0  0  0  0
    7.7692    5.4361    0.0000 H   0  0  0  0  0  0  0  0  0  0  0  0
    8.4837    3.5491    0.0000 H   0  0  0  0  0  0  0  0  0  0  0  0
    9.2242    3.5491    0.0000 H   0  0  0  0  0  0  0  0  0  0  0  0
    9.9387    5.4361    0.0000 H   0  0  0  0  0  0  0  0  0  0  0  0
    9.1982    5.4361    0.0000 H   0  0  0  0  0  0  0  0  0  0  0  0
    9.9126    3.5491    0.0000 H   0  0  0  0  0  0  0  0  0  0  0  0
   10.6531    3.5491    0.0000 H   0  0  0  0  0  0  0  0  0  0  0  0
   11.3676    5.4361    0.0000 H   0  0  0  0  0  0  0  0  0  0  0  0
   10.6271    5.4361    0.0000 H   0  0  0  0  0  0  0  0  0  0  0  0
   11.3416    3.5491    0.0000 H   0  0  0  0  0  0  0  0  0  0  0  0
   12.0821    3.5491    0.0000 H   0  0  0  0  0  0  0  0  0  0  0  0
   12.7966    5.4361    0.0000 H   0  0  0  0  0  0  0  0  0  0  0  0
   12.0560    5.4361    0.0000 H   0  0  0  0  0  0  0  0  0  0  0  0
   12.7705    3.5491    0.0000 H   0  0  0  0  0  0  0  0  0  0  0  0
   13.5110    3.5491    0.0000 H   0  0  0  0  0  0  0  0  0  0  0  0
   14.2255    5.4361    0.0000 H   0  0  0  0  0  0  0  0  0  0  0  0
   13.4850    5.4361    0.0000 H   0  0  0  0  0  0  0  0  0  0  0  0
   14.1995    3.5491    0.0000 H   0  0  0  0  0  0  0  0  0  0  0  0
   14.9400    3.5491    0.0000 H   0  0  0  0  0  0  0  0  0  0  0  0
   15.6544    5.4361    0.0000 H   0  0  0  0  0  0  0  0  0  0  0  0
   14.9139    5.4361    0.0000 H   0  0  0  0  0  0  0  0  0  0  0  0
   17.4276    4.2864    0.0000 H   0  0  0  0  0  0  0  0  0  0  0  0
  1  2  1  0  0  0  0
  2  3  2  0  0  0  0
  2  4  1  0  0  0  0
  4  5  1  0  0  0  0
  5  6  1  0  0  0  0
  6  7  1  0  0  0  0
  7  8  1  0  0  0  0
  8  9  1  0  0  0  0
  9 10  1  0  0  0  0
 10 11  1  0  0  0  0
 11 12  1  0  0  0  0
 12 13  1  0  0  0  0
 13 14  1  0  0  0  0
 14 15  1  0  0  0  0
 15 16  1  0  0  0  0
 15 17  2  0  0  0  0
  1 18  1  0  0  0  0
  4 19  1  0  0  0  0
  4 20  1  0  0  0  0
  5 21  1  0  0  0  0
  5 22  1  0  0  0  0
  6 23  1  0  0  0  0
  6 24  1  0  0  0  0
  7 25  1  0  0  0  0
  7 26  1  0  0  0  0
  8 27  1  0  0  0  0
  8 28  1  0  0  0  0
  9 29  1  0  0  0  0
  9 30  1  0  0  0  0
 10 31  1  0  0  0  0
 10 32  1  0  0  0  0
 11 33  1  0  0  0  0
 11 34  1  0  0  0  0
 12 35  1  0  0  0  0
 12 36  1  0  0  0  0
 13 37  1  0  0  0  0
 13 38  1  0  0  0  0
 14 39  1  0  0  0  0
 14 40  1  0  0  0  0
 16 41  1  0  0  0  0
M  END
>  <InChIKey>
DXNCZXXFRKPEPY-UHFFFAOYSA-N

>  <UN GHS>
2A

>  <CASRN>
505-52-2

> <Outcome>
1

>  <Index>
163

>  <StandardizerResult>
Clear Stereo (ID: ClearStereo)
Wedge Clean (ID: WedgeClean)
Mesomerize (ID: Mesomerize)
Tautomerize (ID: Tautomerize)
Add Explicit Hydrogens (ID: AddExplicitH)
Neutralize (ID: Neutralize)
Clean 2D (ID: Clean2D)

> <knn Distance>


> <CpId>
163

$$$$
164
  Mrv1532301301811342D          

 41 42  0  0  0  0            999 V2000
    2.1611   -0.3949    0.0000 N   0  0  0  0  0  0  0  0  0  0  0  0
    2.1611   -1.2199    0.0000 C   0  0  0  0  0  0  0  0  0  0  0  0
    2.8756   -1.6324    0.0000 C   0  0  0  0  0  0  0  0  0  0  0  0
    2.8756   -2.4574    0.0000 C   0  0  0  0  0  0  0  0  0  0  0  0
    2.1611   -2.8699    0.0000 C   0  0  0  0  0  0  0  0  0  0  0  0
    2.1611   -3.6949    0.0000 C   0  0  0  0  0  0  0  0  0  0  0  0
    1.4466   -4.1074    0.0000 C   0  0  0  0  0  0  0  0  0  0  0  0
    1.4466   -4.9324    0.0000 C   0  0  0  0  0  0  0  0  0  0  0  0
    0.7322   -5.3449    0.0000 C   0  0  0  0  0  0  0  0  0  0  0  0
    0.0177   -4.9324    0.0000 C   0  0  0  0  0  0  0  0  0  0  0  0
   -0.6968   -5.3449    0.0000 N   0  0  0  0  0  0  0  0  0  0  0  0
    0.0177   -4.1074    0.0000 C   0  0  0  0  0  0  0  0  0  0  0  0
    0.7322   -3.6949    0.0000 C   0  0  0  0  0  0  0  0  0  0  0  0
    1.4466   -2.4574    0.0000 C   0  0  0  0  0  0  0  0  0  0  0  0
    1.4466   -1.6324    0.0000 C   0  0  0  0  0  0  0  0  0  0  0  0
    2.8756    0.0176    0.0000 H   0  0  0  0  0  0  0  0  0  0  0  0
    1.4466    0.0176    0.0000 H   0  0  0  0  0  0  0  0  0  0  0  0
    1.4466   -0.8074    0.0000 H   0  0  0  0  0  0  0  0  0  0  0  0
    3.6992   -1.5845    0.0000 H   0  0  0  0  0  0  0  0  0  0  0  0
    3.3289   -0.9432    0.0000 H   0  0  0  0  0  0  0  0  0  0  0  0
    3.3289   -3.1467    0.0000 H   0  0  0  0  0  0  0  0  0  0  0  0
    3.6992   -2.5054    0.0000 H   0  0  0  0  0  0  0  0  0  0  0  0
    1.4466   -3.2824    0.0000 H   0  0  0  0  0  0  0  0  0  0  0  0
    2.6145   -4.3842    0.0000 H   0  0  0  0  0  0  0  0  0  0  0  0
    2.9847   -3.7429    0.0000 H   0  0  0  0  0  0  0  0  0  0  0  0
    2.1611   -4.5199    0.0000 H   0  0  0  0  0  0  0  0  0  0  0  0
    1.5899   -5.7449    0.0000 H   0  0  0  0  0  0  0  0  0  0  0  0
    2.0786   -5.4627    0.0000 H   0  0  0  0  0  0  0  0  0  0  0  0
    0.1185   -5.8964    0.0000 H   0  0  0  0  0  0  0  0  0  0  0  0
    0.6324   -6.1639    0.0000 H   0  0  0  0  0  0  0  0  0  0  0  0
   -0.6968   -4.5199    0.0000 H   0  0  0  0  0  0  0  0  0  0  0  0
   -1.4340   -5.7152    0.0000 H   0  0  0  0  0  0  0  0  0  0  0  0
   -0.6488   -6.1686    0.0000 H   0  0  0  0  0  0  0  0  0  0  0  0
   -0.1256   -3.2950    0.0000 H   0  0  0  0  0  0  0  0  0  0  0  0
   -0.6143   -3.5771    0.0000 H   0  0  0  0  0  0  0  0  0  0  0  0
    0.6962   -2.8707    0.0000 H   0  0  0  0  0  0  0  0  0  0  0  0
    0.7322   -4.5199    0.0000 H   0  0  0  0  0  0  0  0  0  0  0  0
    0.7364   -2.0377    0.0000 H   0  0  0  0  0  0  0  0  0  0  0  0
    2.1611   -2.0449    0.0000 H   0  0  0  0  0  0  0  0  0  0  0  0
    0.9174   -0.9996    0.0000 H   0  0  0  0  0  0  0  0  0  0  0  0
    0.6347   -1.4865    0.0000 H   0  0  0  0  0  0  0  0  0  0  0  0
  1  2  1  0  0  0  0
  2  3  1  0  0  0  0
  3  4  1  0  0  0  0
  4  5  1  0  0  0  0
  5  6  1  0  0  0  0
  6  7  1  0  0  0  0
  7  8  1  0  0  0  0
  8  9  1  0  0  0  0
  9 10  1  0  0  0  0
 10 11  1  0  0  0  0
 10 12  1  0  0  0  0
 12 13  1  0  0  0  0
  7 13  1  0  0  0  0
  5 14  1  0  0  0  0
 14 15  1  0  0  0  0
  2 15  1  0  0  0  0
  1 16  1  0  0  0  0
  1 17  1  0  0  0  0
  2 18  1  0  0  0  0
  3 19  1  0  0  0  0
  3 20  1  0  0  0  0
  4 21  1  0  0  0  0
  4 22  1  0  0  0  0
  5 23  1  0  0  0  0
  6 24  1  0  0  0  0
  6 25  1  0  0  0  0
  7 26  1  0  0  0  0
  8 27  1  0  0  0  0
  8 28  1  0  0  0  0
  9 29  1  0  0  0  0
  9 30  1  0  0  0  0
 10 31  1  0  0  0  0
 11 32  1  0  0  0  0
 11 33  1  0  0  0  0
 12 34  1  0  0  0  0
 12 35  1  0  0  0  0
 13 36  1  0  0  0  0
 13 37  1  0  0  0  0
 14 38  1  0  0  0  0
 14 39  1  0  0  0  0
 15 40  1  0  0  0  0
 15 41  1  0  0  0  0
M  END
>  <InChIKey>
DZIHTWJGPDVSGE-UHFFFAOYSA-N

>  <UN GHS>
1

>  <CASRN>
1761-71-3

> <Outcome>
1

>  <Index>
164

>  <StandardizerResult>
Clear Stereo (ID: ClearStereo)
Wedge Clean (ID: WedgeClean)
Mesomerize (ID: Mesomerize)
Tautomerize (ID: Tautomerize)
Add Explicit Hydrogens (ID: AddExplicitH)
Neutralize (ID: Neutralize)
Clean 2D (ID: Clean2D)

> <knn Distance>


> <CpId>
164

$$$$
166
  Mrv1532301301811342D          

 53 52  0  0  0  0            999 V2000
   -1.4523    3.9842    0.0000 C   0  0  0  0  0  0  0  0  0  0  0  0
   -0.7378    3.5717    0.0000 C   0  0  0  0  0  0  0  0  0  0  0  0
   -0.7378    2.7467    0.0000 C   0  0  0  0  0  0  0  0  0  0  0  0
   -0.0234    2.3342    0.0000 C   0  0  0  0  0  0  0  0  0  0  0  0
   -0.0234    1.5092    0.0000 N   0  3  0  0  0  0  0  0  0  0  0  0
   -0.0234    0.6842    0.0000 C   0  0  0  0  0  0  0  0  0  0  0  0
   -0.7378    0.2717    0.0000 C   0  0  0  0  0  0  0  0  0  0  0  0
   -0.7378   -0.5533    0.0000 C   0  0  0  0  0  0  0  0  0  0  0  0
   -0.0234   -0.9658    0.0000 C   0  0  0  0  0  0  0  0  0  0  0  0
   -0.8484    1.5092    0.0000 C   0  0  0  0  0  0  0  0  0  0  0  0
   -1.2609    0.7947    0.0000 C   0  0  0  0  0  0  0  0  0  0  0  0
   -2.0859    0.7947    0.0000 C   0  0  0  0  0  0  0  0  0  0  0  0
   -2.4984    1.5092    0.0000 C   0  0  0  0  0  0  0  0  0  0  0  0
    0.8016    1.5092    0.0000 C   0  0  0  0  0  0  0  0  0  0  0  0
    1.2141    0.7947    0.0000 C   0  0  0  0  0  0  0  0  0  0  0  0
    0.8016    0.0802    0.0000 C   0  0  0  0  0  0  0  0  0  0  0  0
   -0.0234    0.0802    0.0000 C   0  0  0  0  0  0  0  0  0  0  0  0
   -1.0398    4.6986    0.0000 H   0  0  0  0  0  0  0  0  0  0  0  0
   -2.1668    4.3967    0.0000 H   0  0  0  0  0  0  0  0  0  0  0  0
   -1.8648    3.2697    0.0000 H   0  0  0  0  0  0  0  0  0  0  0  0
    0.0858    3.6196    0.0000 H   0  0  0  0  0  0  0  0  0  0  0  0
   -0.2845    4.2609    0.0000 H   0  0  0  0  0  0  0  0  0  0  0  0
   -1.5614    2.6987    0.0000 H   0  0  0  0  0  0  0  0  0  0  0  0
   -1.1912    2.0574    0.0000 H   0  0  0  0  0  0  0  0  0  0  0  0
    0.8002    2.3821    0.0000 H   0  0  0  0  0  0  0  0  0  0  0  0
    0.4300    3.0234    0.0000 H   0  0  0  0  0  0  0  0  0  0  0  0
    0.7519    0.4020    0.0000 H   0  0  0  0  0  0  0  0  0  0  0  0
    0.7519    0.9663    0.0000 H   0  0  0  0  0  0  0  0  0  0  0  0
   -1.5000   -0.0441    0.0000 H   0  0  0  0  0  0  0  0  0  0  0  0
   -0.6302    1.0896    0.0000 H   0  0  0  0  0  0  0  0  0  0  0  0
   -1.3905   -1.0580    0.0000 H   0  0  0  0  0  0  0  0  0  0  0  0
   -0.9017   -1.3619    0.0000 H   0  0  0  0  0  0  0  0  0  0  0  0
    0.1299   -1.7765    0.0000 H   0  0  0  0  0  0  0  0  0  0  0  0
    0.8006   -1.0071    0.0000 H   0  0  0  0  0  0  0  0  0  0  0  0
    0.2100   -0.1745    0.0000 H   0  0  0  0  0  0  0  0  0  0  0  0
   -0.4485    2.2308    0.0000 H   0  0  0  0  0  0  0  0  0  0  0  0
   -1.6732    1.4946    0.0000 H   0  0  0  0  0  0  0  0  0  0  0  0
   -1.9194    0.2977    0.0000 H   0  0  0  0  0  0  0  0  0  0  0  0
   -1.9771    1.2040    0.0000 H   0  0  0  0  0  0  0  0  0  0  0  0
   -2.9090    0.8497    0.0000 H   0  0  0  0  0  0  0  0  0  0  0  0
   -2.5898    0.1415    0.0000 H   0  0  0  0  0  0  0  0  0  0  0  0
   -2.0706    2.2146    0.0000 H   0  0  0  0  0  0  0  0  0  0  0  0
   -2.8925    2.2339    0.0000 H   0  0  0  0  0  0  0  0  0  0  0  0
   -3.3230    1.5334    0.0000 H   0  0  0  0  0  0  0  0  0  0  0  0
    1.6142    1.3663    0.0000 H   0  0  0  0  0  0  0  0  0  0  0  0
    1.4331    2.0401    0.0000 H   0  0  0  0  0  0  0  0  0  0  0  0
    1.6057    0.0686    0.0000 H   0  0  0  0  0  0  0  0  0  0  0  0
    2.0377    0.7469    0.0000 H   0  0  0  0  0  0  0  0  0  0  0  0
    0.5916   -0.7176    0.0000 H   0  0  0  0  0  0  0  0  0  0  0  0
    1.3006   -0.5768    0.0000 H   0  0  0  0  0  0  0  0  0  0  0  0
   -0.3812   -0.6632    0.0000 H   0  0  0  0  0  0  0  0  0  0  0  0
   -0.0661   -0.7437    0.0000 H   0  0  0  0  0  0  0  0  0  0  0  0
    0.2556   -0.6962    0.0000 H   0  0  0  0  0  0  0  0  0  0  0  0
  1  2  1  0  0  0  0
  2  3  1  0  0  0  0
  3  4  1  0  0  0  0
  4  5  1  0  0  0  0
  5  6  1  0  0  0  0
  6  7  1  0  0  0  0
  7  8  1  0  0  0  0
  8  9  1  0  0  0  0
  5 10  1  0  0  0  0
 10 11  1  0  0  0  0
 11 12  1  0  0  0  0
 12 13  1  0  0  0  0
  5 14  1  0  0  0  0
 14 15  1  0  0  0  0
 15 16  1  0  0  0  0
 16 17  1  0  0  0  0
  1 18  1  0  0  0  0
  1 19  1  0  0  0  0
  1 20  1  0  0  0  0
  2 21  1  0  0  0  0
  2 22  1  0  0  0  0
  3 23  1  0  0  0  0
  3 24  1  0  0  0  0
  4 25  1  0  0  0  0
  4 26  1  0  0  0  0
  6 27  1  0  0  0  0
  6 28  1  0  0  0  0
  7 29  1  0  0  0  0
  7 30  1  0  0  0  0
  8 31  1  0  0  0  0
  8 32  1  0  0  0  0
  9 33  1  0  0  0  0
  9 34  1  0  0  0  0
  9 35  1  0  0  0  0
 10 36  1  0  0  0  0
 10 37  1  0  0  0  0
 11 38  1  0  0  0  0
 11 39  1  0  0  0  0
 12 40  1  0  0  0  0
 12 41  1  0  0  0  0
 13 42  1  0  0  0  0
 13 43  1  0  0  0  0
 13 44  1  0  0  0  0
 14 45  1  0  0  0  0
 14 46  1  0  0  0  0
 15 47  1  0  0  0  0
 15 48  1  0  0  0  0
 16 49  1  0  0  0  0
 16 50  1  0  0  0  0
 17 51  1  0  0  0  0
 17 52  1  0  0  0  0
 17 53  1  0  0  0  0
M  CHG  1   5   1
M  END
>  <InChIKey>
DZLFLBLQUQXARW-UHFFFAOYSA-N

>  <UN GHS>
2A

>  <CASRN>
1643-19-2

> <Outcome>
1

>  <Index>
166

>  <StandardizerResult>
Clear Stereo (ID: ClearStereo)
Wedge Clean (ID: WedgeClean)
Mesomerize (ID: Mesomerize)
Tautomerize (ID: Tautomerize)
Add Explicit Hydrogens (ID: AddExplicitH)
Clean 2D (ID: Clean2D)

> <knn Distance>


> <CpId>
166

$$$$
167
  Mrv1532301301811342D          

 17 16  0  0  0  0            999 V2000
   -0.1914    0.7155    0.0000 C   0  0  0  0  0  0  0  0  0  0  0  0
    0.5230    1.1280    0.0000 O   0  0  0  0  0  0  0  0  0  0  0  0
    1.2375    0.7155    0.0000 C   0  0  0  0  0  0  0  0  0  0  0  0
    1.9520    1.1280    0.0000 C   0  0  0  0  0  0  0  0  0  0  0  0
    2.6664    0.7155    0.0000 C   0  0  0  0  0  0  0  0  0  0  0  0
    3.3809    1.1280    0.0000 N   0  0  0  0  0  0  0  0  0  0  0  0
   -0.6039    1.4300    0.0000 H   0  0  0  0  0  0  0  0  0  0  0  0
   -0.9059    0.3030    0.0000 H   0  0  0  0  0  0  0  0  0  0  0  0
    0.2211    0.0011    0.0000 H   0  0  0  0  0  0  0  0  0  0  0  0
    0.8672   -0.0217    0.0000 H   0  0  0  0  0  0  0  0  0  0  0  0
    1.6078   -0.0217    0.0000 H   0  0  0  0  0  0  0  0  0  0  0  0
    2.3222    1.8653    0.0000 H   0  0  0  0  0  0  0  0  0  0  0  0
    1.5817    1.8653    0.0000 H   0  0  0  0  0  0  0  0  0  0  0  0
    2.2962   -0.0217    0.0000 H   0  0  0  0  0  0  0  0  0  0  0  0
    3.0367   -0.0217    0.0000 H   0  0  0  0  0  0  0  0  0  0  0  0
    4.0954    0.7155    0.0000 H   0  0  0  0  0  0  0  0  0  0  0  0
    3.3809    1.9530    0.0000 H   0  0  0  0  0  0  0  0  0  0  0  0
  1  2  1  0  0  0  0
  2  3  1  0  0  0  0
  3  4  1  0  0  0  0
  4  5  1  0  0  0  0
  5  6  1  0  0  0  0
  1  7  1  0  0  0  0
  1  8  1  0  0  0  0
  1  9  1  0  0  0  0
  3 10  1  0  0  0  0
  3 11  1  0  0  0  0
  4 12  1  0  0  0  0
  4 13  1  0  0  0  0
  5 14  1  0  0  0  0
  5 15  1  0  0  0  0
  6 16  1  0  0  0  0
  6 17  1  0  0  0  0
M  END
>  <InChIKey>
FAXDZWQIWUSWJH-UHFFFAOYSA-N

>  <UN GHS>
1

>  <CASRN>
5332-73-0

> <Outcome>
1

>  <Index>
167

>  <StandardizerResult>
Clear Stereo (ID: ClearStereo)
Wedge Clean (ID: WedgeClean)
Mesomerize (ID: Mesomerize)
Tautomerize (ID: Tautomerize)
Add Explicit Hydrogens (ID: AddExplicitH)
Neutralize (ID: Neutralize)
Clean 2D (ID: Clean2D)

> <knn Distance>


> <CpId>
167

$$$$
169
  Mrv1532301301811342D          

 28 29  0  0  0  0            999 V2000
    4.2868   -1.6500    0.0000 S   0  0  0  0  0  0  0  0  0  0  0  0
    3.5724   -1.2375    0.0000 C   0  0  0  0  0  0  0  0  0  0  0  0
    2.8579   -1.6500    0.0000 N   0  0  0  0  0  0  0  0  0  0  0  0
    2.8579   -2.4750    0.0000 C   0  0  0  0  0  0  0  0  0  0  0  0
    3.5724   -2.8875    0.0000 C   0  0  0  0  0  0  0  0  0  0  0  0
    3.5724   -3.7125    0.0000 C   0  0  0  0  0  0  0  0  0  0  0  0
    2.8579   -4.1250    0.0000 C   0  0  0  0  0  0  0  0  0  0  0  0
    2.1434   -3.7125    0.0000 C   0  0  0  0  0  0  0  0  0  0  0  0
    2.1434   -2.8875    0.0000 C   0  0  0  0  0  0  0  0  0  0  0  0
    3.5724   -0.4125    0.0000 N   0  0  0  0  0  0  0  0  0  0  0  0
    4.2868   -0.0000    0.0000 C   0  0  0  0  0  0  0  0  0  0  0  0
    4.2868    0.8250    0.0000 C   0  0  0  0  0  0  0  0  0  0  0  0
    5.0013    1.2375    0.0000 C   0  0  0  0  0  0  0  0  0  0  0  0
    5.7158    0.8250    0.0000 C   0  0  0  0  0  0  0  0  0  0  0  0
    5.7158   -0.0000    0.0000 C   0  0  0  0  0  0  0  0  0  0  0  0
    5.0013   -0.4125    0.0000 C   0  0  0  0  0  0  0  0  0  0  0  0
    2.1434   -1.2375    0.0000 H   0  0  0  0  0  0  0  0  0  0  0  0
    4.2868   -2.4750    0.0000 H   0  0  0  0  0  0  0  0  0  0  0  0
    4.2868   -4.1250    0.0000 H   0  0  0  0  0  0  0  0  0  0  0  0
    2.8579   -4.9500    0.0000 H   0  0  0  0  0  0  0  0  0  0  0  0
    1.4290   -4.1250    0.0000 H   0  0  0  0  0  0  0  0  0  0  0  0
    1.4290   -2.4750    0.0000 H   0  0  0  0  0  0  0  0  0  0  0  0
    2.8579   -0.0000    0.0000 H   0  0  0  0  0  0  0  0  0  0  0  0
    3.5724    1.2375    0.0000 H   0  0  0  0  0  0  0  0  0  0  0  0
    5.0013    2.0625    0.0000 H   0  0  0  0  0  0  0  0  0  0  0  0
    6.4303    1.2375    0.0000 H   0  0  0  0  0  0  0  0  0  0  0  0
    6.4303   -0.4125    0.0000 H   0  0  0  0  0  0  0  0  0  0  0  0
    5.0013   -1.2375    0.0000 H   0  0  0  0  0  0  0  0  0  0  0  0
  1  2  2  0  0  0  0
  2  3  1  0  0  0  0
  3  4  1  0  0  0  0
  4  5  4  0  0  0  0
  5  6  4  0  0  0  0
  6  7  4  0  0  0  0
  7  8  4  0  0  0  0
  8  9  4  0  0  0  0
  4  9  4  0  0  0  0
  2 10  1  0  0  0  0
 10 11  1  0  0  0  0
 11 12  4  0  0  0  0
 12 13  4  0  0  0  0
 13 14  4  0  0  0  0
 14 15  4  0  0  0  0
 15 16  4  0  0  0  0
 11 16  4  0  0  0  0
  3 17  1  0  0  0  0
  5 18  1  0  0  0  0
  6 19  1  0  0  0  0
  7 20  1  0  0  0  0
  8 21  1  0  0  0  0
  9 22  1  0  0  0  0
 10 23  1  0  0  0  0
 12 24  1  0  0  0  0
 13 25  1  0  0  0  0
 14 26  1  0  0  0  0
 15 27  1  0  0  0  0
 16 28  1  0  0  0  0
M  END
>  <InChIKey>
FCSHMCFRCYZTRQ-UHFFFAOYSA-N

>  <UN GHS>
2B

>  <CASRN>
102-08-9

> <Outcome>
1

>  <Index>
169

>  <StandardizerResult>
Dearomatize (ID: Dearomatize)
Clear Stereo (ID: ClearStereo)
Wedge Clean (ID: WedgeClean)
Mesomerize (ID: Mesomerize)
Tautomerize (ID: Tautomerize)
Aromatize (ID: Aromatize)
Add Explicit Hydrogens (ID: AddExplicitH)
Neutralize (ID: Neutralize)
Clean 2D (ID: Clean2D)

> <knn Distance>


> <CpId>
169

$$$$
174
  Mrv1532301301811342D          

 16 15  0  0  0  0            999 V2000
    2.4739   -1.4308    0.0000 C   0  0  0  0  0  0  0  0  0  0  0  0
    2.0614   -0.7164    0.0000 C   0  0  0  0  0  0  0  0  0  0  0  0
    1.2364   -0.7164    0.0000 C   0  0  0  0  0  0  0  0  0  0  0  0
    0.8239   -1.4308    0.0000 O   0  0  0  0  0  0  0  0  0  0  0  0
    0.8239   -0.0019    0.0000 C   0  0  0  0  0  0  0  0  0  0  0  0
   -0.0011   -0.0019    0.0000 C   0  0  0  0  0  0  0  0  0  0  0  0
    1.7594   -1.8433    0.0000 H   0  0  0  0  0  0  0  0  0  0  0  0
    2.8864   -2.1453    0.0000 H   0  0  0  0  0  0  0  0  0  0  0  0
    3.1884   -1.0183    0.0000 H   0  0  0  0  0  0  0  0  0  0  0  0
    2.7507   -0.2630    0.0000 H   0  0  0  0  0  0  0  0  0  0  0  0
    2.1094    0.1072    0.0000 H   0  0  0  0  0  0  0  0  0  0  0  0
    1.5132    0.4514    0.0000 H   0  0  0  0  0  0  0  0  0  0  0  0
    0.8719    0.8217    0.0000 H   0  0  0  0  0  0  0  0  0  0  0  0
   -0.0011    0.8231    0.0000 H   0  0  0  0  0  0  0  0  0  0  0  0
   -0.8261   -0.0019    0.0000 H   0  0  0  0  0  0  0  0  0  0  0  0
   -0.0011   -0.8269    0.0000 H   0  0  0  0  0  0  0  0  0  0  0  0
  1  2  1  0  0  0  0
  2  3  1  0  0  0  0
  3  4  2  0  0  0  0
  3  5  1  0  0  0  0
  5  6  1  0  0  0  0
  1  7  1  0  0  0  0
  1  8  1  0  0  0  0
  1  9  1  0  0  0  0
  2 10  1  0  0  0  0
  2 11  1  0  0  0  0
  5 12  1  0  0  0  0
  5 13  1  0  0  0  0
  6 14  1  0  0  0  0
  6 15  1  0  0  0  0
  6 16  1  0  0  0  0
M  END
>  <InChIKey>
FDPIMTJIUBPUKL-UHFFFAOYSA-N

>  <UN GHS>
2A

>  <CASRN>
96-22-0

> <Outcome>
1

>  <Index>
174

>  <StandardizerResult>
Clear Stereo (ID: ClearStereo)
Wedge Clean (ID: WedgeClean)
Mesomerize (ID: Mesomerize)
Tautomerize (ID: Tautomerize)
Add Explicit Hydrogens (ID: AddExplicitH)
Neutralize (ID: Neutralize)
Clean 2D (ID: Clean2D)

> <knn Distance>


> <CpId>
174

$$$$
175
  Mrv1532301301811342D          

 36 35  0  0  0  0            999 V2000
    2.2822    2.1539    0.0000 C   0  0  0  0  0  0  0  0  0  0  0  0
    2.9967    2.5664    0.0000 C   0  0  0  0  0  0  0  0  0  0  0  0
    3.7112    2.1539    0.0000 C   0  0  0  0  0  0  0  0  0  0  0  0
    4.4257    2.5664    0.0000 C   0  0  0  0  0  0  0  0  0  0  0  0
    5.1401    2.1539    0.0000 C   0  0  0  0  0  0  0  0  0  0  0  0
    5.1401    1.3289    0.0000 C   0  0  0  0  0  0  0  0  0  0  0  0
    5.8546    0.9164    0.0000 C   0  0  0  0  0  0  0  0  0  0  0  0
    5.8546    2.5664    0.0000 C   0  0  0  0  0  0  0  0  0  0  0  0
    6.5691    2.1539    0.0000 O   0  0  0  0  0  0  0  0  0  0  0  0
    7.2835    2.5664    0.0000 C   0  0  0  0  0  0  0  0  0  0  0  0
    7.2835    3.3914    0.0000 O   0  0  0  0  0  0  0  0  0  0  0  0
    7.9980    2.1539    0.0000 C   0  0  0  0  0  0  0  0  0  0  0  0
    8.7125    2.5664    0.0000 C   0  0  0  0  0  0  0  0  0  0  0  0
    7.9980    1.3289    0.0000 O   0  0  0  0  0  0  0  0  0  0  0  0
    1.8697    2.8684    0.0000 H   0  0  0  0  0  0  0  0  0  0  0  0
    1.5678    1.7414    0.0000 H   0  0  0  0  0  0  0  0  0  0  0  0
    2.6947    1.4395    0.0000 H   0  0  0  0  0  0  0  0  0  0  0  0
    3.3670    3.3037    0.0000 H   0  0  0  0  0  0  0  0  0  0  0  0
    2.6265    3.3037    0.0000 H   0  0  0  0  0  0  0  0  0  0  0  0
    3.3409    1.4167    0.0000 H   0  0  0  0  0  0  0  0  0  0  0  0
    4.0814    1.4167    0.0000 H   0  0  0  0  0  0  0  0  0  0  0  0
    4.7959    3.3037    0.0000 H   0  0  0  0  0  0  0  0  0  0  0  0
    4.0554    3.3037    0.0000 H   0  0  0  0  0  0  0  0  0  0  0  0
    4.4257    1.7414    0.0000 H   0  0  0  0  0  0  0  0  0  0  0  0
    4.5081    0.7986    0.0000 H   0  0  0  0  0  0  0  0  0  0  0  0
    4.9969    0.5165    0.0000 H   0  0  0  0  0  0  0  0  0  0  0  0
    6.0155    0.1073    0.0000 H   0  0  0  0  0  0  0  0  0  0  0  0
    6.6788    0.8804    0.0000 H   0  0  0  0  0  0  0  0  0  0  0  0
    6.0855    1.7085    0.0000 H   0  0  0  0  0  0  0  0  0  0  0  0
    6.2249    3.3037    0.0000 H   0  0  0  0  0  0  0  0  0  0  0  0
    5.4843    3.3037    0.0000 H   0  0  0  0  0  0  0  0  0  0  0  0
    7.9980    2.9789    0.0000 H   0  0  0  0  0  0  0  0  0  0  0  0
    8.9260    1.7695    0.0000 H   0  0  0  0  0  0  0  0  0  0  0  0
    9.5375    2.5664    0.0000 H   0  0  0  0  0  0  0  0  0  0  0  0
    8.9260    3.3633    0.0000 H   0  0  0  0  0  0  0  0  0  0  0  0
    7.2835    0.9164    0.0000 H   0  0  0  0  0  0  0  0  0  0  0  0
  1  2  1  0  0  0  0
  2  3  1  0  0  0  0
  3  4  1  0  0  0  0
  4  5  1  0  0  0  0
  5  6  1  0  0  0  0
  6  7  1  0  0  0  0
  5  8  1  0  0  0  0
  8  9  1  0  0  0  0
  9 10  1  0  0  0  0
 10 11  2  0  0  0  0
 10 12  1  0  0  0  0
 12 13  1  0  0  0  0
 12 14  1  0  0  0  0
  1 15  1  0  0  0  0
  1 16  1  0  0  0  0
  1 17  1  0  0  0  0
  2 18  1  0  0  0  0
  2 19  1  0  0  0  0
  3 20  1  0  0  0  0
  3 21  1  0  0  0  0
  4 22  1  0  0  0  0
  4 23  1  0  0  0  0
  5 24  1  0  0  0  0
  6 25  1  0  0  0  0
  6 26  1  0  0  0  0
  7 27  1  0  0  0  0
  7 28  1  0  0  0  0
  7 29  1  0  0  0  0
  8 30  1  0  0  0  0
  8 31  1  0  0  0  0
 12 32  1  0  0  0  0
 13 33  1  0  0  0  0
 13 34  1  0  0  0  0
 13 35  1  0  0  0  0
 14 36  1  0  0  0  0
M  END
>  <InChIKey>
FECDACOUYKFOOP-RGURZIINSA-N

>  <UN GHS>
2A

>  <CASRN>
186817-80-1

> <Outcome>
1

>  <Index>
175

>  <StandardizerResult>
Clear Stereo (ID: ClearStereo)
Wedge Clean (ID: WedgeClean)
Mesomerize (ID: Mesomerize)
Tautomerize (ID: Tautomerize)
Add Explicit Hydrogens (ID: AddExplicitH)
Neutralize (ID: Neutralize)
Clean 2D (ID: Clean2D)

> <knn Distance>


> <CpId>
175

$$$$
176
  Mrv1532301301811342D          

 22 21  0  0  0  0            999 V2000
    1.7361    1.8593    0.0000 C   0  0  0  0  0  0  0  0  0  0  0  0
    2.4506    1.4468    0.0000 C   0  0  0  0  0  0  0  0  0  0  0  0
    3.1650    1.8593    0.0000 C   0  0  0  0  0  0  0  0  0  0  0  0
    3.8795    1.4468    0.0000 O   0  0  0  0  0  0  0  0  0  0  0  0
    4.5940    1.8593    0.0000 C   0  0  0  0  0  0  0  0  0  0  0  0
    5.3085    1.4468    0.0000 C   0  0  0  0  0  0  0  0  0  0  0  0
    6.0229    1.8593    0.0000 C   0  0  0  0  0  0  0  0  0  0  0  0
    5.3085    0.6218    0.0000 O   0  0  0  0  0  0  0  0  0  0  0  0
    2.1486    2.5738    0.0000 H   0  0  0  0  0  0  0  0  0  0  0  0
    1.0216    2.2718    0.0000 H   0  0  0  0  0  0  0  0  0  0  0  0
    1.3236    1.1449    0.0000 H   0  0  0  0  0  0  0  0  0  0  0  0
    2.0803    0.7096    0.0000 H   0  0  0  0  0  0  0  0  0  0  0  0
    2.8208    0.7096    0.0000 H   0  0  0  0  0  0  0  0  0  0  0  0
    3.5353    2.5966    0.0000 H   0  0  0  0  0  0  0  0  0  0  0  0
    2.7948    2.5966    0.0000 H   0  0  0  0  0  0  0  0  0  0  0  0
    4.9642    2.5966    0.0000 H   0  0  0  0  0  0  0  0  0  0  0  0
    4.2237    2.5966    0.0000 H   0  0  0  0  0  0  0  0  0  0  0  0
    5.3085    2.2718    0.0000 H   0  0  0  0  0  0  0  0  0  0  0  0
    6.2365    1.0625    0.0000 H   0  0  0  0  0  0  0  0  0  0  0  0
    6.8479    1.8593    0.0000 H   0  0  0  0  0  0  0  0  0  0  0  0
    6.2365    2.6562    0.0000 H   0  0  0  0  0  0  0  0  0  0  0  0
    4.5940    0.2093    0.0000 H   0  0  0  0  0  0  0  0  0  0  0  0
  1  2  1  0  0  0  0
  2  3  1  0  0  0  0
  3  4  1  0  0  0  0
  4  5  1  0  0  0  0
  5  6  1  0  0  0  0
  6  7  1  0  0  0  0
  6  8  1  0  0  0  0
  1  9  1  0  0  0  0
  1 10  1  0  0  0  0
  1 11  1  0  0  0  0
  2 12  1  0  0  0  0
  2 13  1  0  0  0  0
  3 14  1  0  0  0  0
  3 15  1  0  0  0  0
  5 16  1  0  0  0  0
  5 17  1  0  0  0  0
  6 18  1  0  0  0  0
  7 19  1  0  0  0  0
  7 20  1  0  0  0  0
  7 21  1  0  0  0  0
  8 22  1  0  0  0  0
M  END
>  <InChIKey>
FENFUOGYJVOCRY-UHFFFAOYSA-N

>  <UN GHS>
2A

>  <CASRN>
1569-01-3

> <Outcome>
1

>  <Index>
176

>  <StandardizerResult>
Clear Stereo (ID: ClearStereo)
Wedge Clean (ID: WedgeClean)
Mesomerize (ID: Mesomerize)
Tautomerize (ID: Tautomerize)
Add Explicit Hydrogens (ID: AddExplicitH)
Neutralize (ID: Neutralize)
Clean 2D (ID: Clean2D)

> <knn Distance>


> <CpId>
176

$$$$
177
  Mrv1532301301811342D          

 41 40  0  0  0  0            999 V2000
    2.9640   -5.0571    0.0000 C   0  0  0  0  0  0  0  0  0  0  0  0
    2.5515   -4.3426    0.0000 C   0  0  0  0  0  0  0  0  0  0  0  0
    2.9640   -3.6281    0.0000 O   0  0  0  0  0  0  0  0  0  0  0  0
    1.7265   -4.3426    0.0000 C   0  0  0  0  0  0  0  0  0  0  0  0
    1.3140   -3.6281    0.0000 N   0  0  0  0  0  0  0  0  0  0  0  0
    0.4890   -3.6281    0.0000 C   0  0  0  0  0  0  0  0  0  0  0  0
    0.0765   -2.9137    0.0000 C   0  0  0  0  0  0  0  0  0  0  0  0
   -0.7485   -2.9137    0.0000 C   0  0  0  0  0  0  0  0  0  0  0  0
   -1.1610   -2.1992    0.0000 N   0  0  0  0  0  0  0  0  0  0  0  0
   -1.9860   -2.1992    0.0000 C   0  0  0  0  0  0  0  0  0  0  0  0
   -0.7485   -1.4847    0.0000 C   0  0  0  0  0  0  0  0  0  0  0  0
    1.7265   -2.9137    0.0000 C   0  0  0  0  0  0  0  0  0  0  0  0
    1.3140   -2.1992    0.0000 C   0  0  0  0  0  0  0  0  0  0  0  0
    0.4890   -2.1992    0.0000 C   0  0  0  0  0  0  0  0  0  0  0  0
    1.7265   -1.4847    0.0000 O   0  0  0  0  0  0  0  0  0  0  0  0
    2.2495   -5.4696    0.0000 H   0  0  0  0  0  0  0  0  0  0  0  0
    3.3765   -5.7715    0.0000 H   0  0  0  0  0  0  0  0  0  0  0  0
    3.6785   -4.6446    0.0000 H   0  0  0  0  0  0  0  0  0  0  0  0
    3.3765   -4.3426    0.0000 H   0  0  0  0  0  0  0  0  0  0  0  0
    2.9640   -2.8031    0.0000 H   0  0  0  0  0  0  0  0  0  0  0  0
    1.0372   -4.7959    0.0000 H   0  0  0  0  0  0  0  0  0  0  0  0
    1.6785   -5.1662    0.0000 H   0  0  0  0  0  0  0  0  0  0  0  0
   -0.2003   -4.0815    0.0000 H   0  0  0  0  0  0  0  0  0  0  0  0
    0.4410   -4.4517    0.0000 H   0  0  0  0  0  0  0  0  0  0  0  0
    0.9015   -2.9137    0.0000 H   0  0  0  0  0  0  0  0  0  0  0  0
   -0.3360   -3.6281    0.0000 H   0  0  0  0  0  0  0  0  0  0  0  0
   -1.5610   -3.0569    0.0000 H   0  0  0  0  0  0  0  0  0  0  0  0
   -1.2788   -3.5456    0.0000 H   0  0  0  0  0  0  0  0  0  0  0  0
   -1.7598   -1.4058    0.0000 H   0  0  0  0  0  0  0  0  0  0  0  0
   -2.6870   -1.7642    0.0000 H   0  0  0  0  0  0  0  0  0  0  0  0
   -2.5965   -2.7541    0.0000 H   0  0  0  0  0  0  0  0  0  0  0  0
   -0.0340   -1.8972    0.0000 H   0  0  0  0  0  0  0  0  0  0  0  0
   -0.3360   -0.7702    0.0000 H   0  0  0  0  0  0  0  0  0  0  0  0
   -1.4630   -1.0722    0.0000 H   0  0  0  0  0  0  0  0  0  0  0  0
    2.4637   -3.2839    0.0000 H   0  0  0  0  0  0  0  0  0  0  0  0
    2.4637   -2.5434    0.0000 H   0  0  0  0  0  0  0  0  0  0  0  0
    0.9015   -1.4847    0.0000 H   0  0  0  0  0  0  0  0  0  0  0  0
   -0.3360   -2.1992    0.0000 H   0  0  0  0  0  0  0  0  0  0  0  0
   -0.2255   -2.6117    0.0000 H   0  0  0  0  0  0  0  0  0  0  0  0
    0.2755   -1.4023    0.0000 H   0  0  0  0  0  0  0  0  0  0  0  0
    2.4410   -1.0722    0.0000 H   0  0  0  0  0  0  0  0  0  0  0  0
  1  2  1  0  0  0  0
  2  3  1  0  0  0  0
  2  4  1  0  0  0  0
  4  5  1  0  0  0  0
  5  6  1  0  0  0  0
  6  7  1  0  0  0  0
  7  8  1  0  0  0  0
  8  9  1  0  0  0  0
  9 10  1  0  0  0  0
  9 11  1  0  0  0  0
  5 12  1  0  0  0  0
 12 13  1  0  0  0  0
 13 14  1  0  0  0  0
 13 15  1  0  0  0  0
  1 16  1  0  0  0  0
  1 17  1  0  0  0  0
  1 18  1  0  0  0  0
  2 19  1  0  0  0  0
  3 20  1  0  0  0  0
  4 21  1  0  0  0  0
  4 22  1  0  0  0  0
  6 23  1  0  0  0  0
  6 24  1  0  0  0  0
  7 25  1  0  0  0  0
  7 26  1  0  0  0  0
  8 27  1  0  0  0  0
  8 28  1  0  0  0  0
 10 29  1  0  0  0  0
 10 30  1  0  0  0  0
 10 31  1  0  0  0  0
 11 32  1  0  0  0  0
 11 33  1  0  0  0  0
 11 34  1  0  0  0  0
 12 35  1  0  0  0  0
 12 36  1  0  0  0  0
 13 37  1  0  0  0  0
 14 38  1  0  0  0  0
 14 39  1  0  0  0  0
 14 40  1  0  0  0  0
 15 41  1  0  0  0  0
M  END
>  <InChIKey>
FFCUXTGIVGMUKC-UHFFFAOYSA-N

>  <UN GHS>
1

>  <CASRN>
63469-23-8

> <Outcome>
1

>  <Index>
177

>  <StandardizerResult>
Clear Stereo (ID: ClearStereo)
Wedge Clean (ID: WedgeClean)
Mesomerize (ID: Mesomerize)
Tautomerize (ID: Tautomerize)
Add Explicit Hydrogens (ID: AddExplicitH)
Neutralize (ID: Neutralize)
Clean 2D (ID: Clean2D)

> <knn Distance>


> <CpId>
177

$$$$
180
  Mrv1532301301811342D          

 16 15  0  0  0  0            999 V2000
    1.7605   -1.8425    0.0000 C   0  0  0  0  0  0  0  0  0  0  0  0
    2.4750   -1.4300    0.0000 C   0  0  0  0  0  0  0  0  0  0  0  0
    3.1895   -1.8425    0.0000 O   0  0  0  0  0  0  0  0  0  0  0  0
    3.9039   -1.4300    0.0000 C   0  0  0  0  0  0  0  0  0  0  0  0
    3.9039   -0.6050    0.0000 O   0  0  0  0  0  0  0  0  0  0  0  0
    4.6184   -1.8425    0.0000 C   0  0  0  0  0  0  0  0  0  0  0  0
    4.6184   -2.6675    0.0000 C   0  0  0  0  0  0  0  0  0  0  0  0
    5.3329   -1.4300    0.0000 C   0  0  0  0  0  0  0  0  0  0  0  0
    6.0473   -1.0175    0.0000 N   0  0  0  0  0  0  0  0  0  0  0  0
    1.3480   -1.1280    0.0000 H   0  0  0  0  0  0  0  0  0  0  0  0
    1.0460   -2.2550    0.0000 H   0  0  0  0  0  0  0  0  0  0  0  0
    2.1730   -2.5570    0.0000 H   0  0  0  0  0  0  0  0  0  0  0  0
    2.8452   -0.6928    0.0000 H   0  0  0  0  0  0  0  0  0  0  0  0
    2.1047   -0.6928    0.0000 H   0  0  0  0  0  0  0  0  0  0  0  0
    3.9039   -3.0800    0.0000 H   0  0  0  0  0  0  0  0  0  0  0  0
    5.3329   -3.0800    0.0000 H   0  0  0  0  0  0  0  0  0  0  0  0
  1  2  1  0  0  0  0
  2  3  1  0  0  0  0
  3  4  1  0  0  0  0
  4  5  2  0  0  0  0
  4  6  1  0  0  0  0
  6  7  2  0  0  0  0
  6  8  1  0  0  0  0
  8  9  3  0  0  0  0
  1 10  1  0  0  0  0
  1 11  1  0  0  0  0
  1 12  1  0  0  0  0
  2 13  1  0  0  0  0
  2 14  1  0  0  0  0
  7 15  1  0  0  0  0
  7 16  1  0  0  0  0
M  END
>  <InChIKey>
FGBJXOREULPLGL-UHFFFAOYSA-N

>  <UN GHS>
2A

>  <CASRN>
7085-85-0

> <Outcome>
1

>  <Index>
180

>  <StandardizerResult>
Clear Stereo (ID: ClearStereo)
Wedge Clean (ID: WedgeClean)
Mesomerize (ID: Mesomerize)
Tautomerize (ID: Tautomerize)
Add Explicit Hydrogens (ID: AddExplicitH)
Neutralize (ID: Neutralize)
Clean 2D (ID: Clean2D)

> <knn Distance>


> <CpId>
180

$$$$
182
  Mrv1532301301811342D          

 13 12  0  0  0  0            999 V2000
    2.4743   -1.4301    0.0000 C   0  0  0  0  0  0  0  0  0  0  0  0
    2.0618   -0.7156    0.0000 C   0  0  0  0  0  0  0  0  0  0  0  0
    1.2368   -0.7156    0.0000 O   0  0  0  0  0  0  0  0  0  0  0  0
    0.8243   -0.0012    0.0000 C   0  0  0  0  0  0  0  0  0  0  0  0
   -0.0007   -0.0012    0.0000 C   0  0  0  0  0  0  0  0  0  0  0  0
    1.7599   -1.8426    0.0000 H   0  0  0  0  0  0  0  0  0  0  0  0
    2.8868   -2.1446    0.0000 H   0  0  0  0  0  0  0  0  0  0  0  0
    3.1888   -1.0176    0.0000 H   0  0  0  0  0  0  0  0  0  0  0  0
    2.7511   -0.2623    0.0000 H   0  0  0  0  0  0  0  0  0  0  0  0
    2.1098    0.1080    0.0000 H   0  0  0  0  0  0  0  0  0  0  0  0
    1.2368    0.7133    0.0000 H   0  0  0  0  0  0  0  0  0  0  0  0
   -0.4132    0.7133    0.0000 H   0  0  0  0  0  0  0  0  0  0  0  0
   -0.4132   -0.7156    0.0000 H   0  0  0  0  0  0  0  0  0  0  0  0
  1  2  1  0  0  0  0
  2  3  1  0  0  0  0
  3  4  1  0  0  0  0
  4  5  2  0  0  0  0
  1  6  1  0  0  0  0
  1  7  1  0  0  0  0
  1  8  1  0  0  0  0
  2  9  1  0  0  0  0
  2 10  1  0  0  0  0
  4 11  1  0  0  0  0
  5 12  1  0  0  0  0
  5 13  1  0  0  0  0
M  END
>  <InChIKey>
FJKIXWOMBXYWOQ-UHFFFAOYSA-N

>  <UN GHS>
2B

>  <CASRN>
109-92-2

> <Outcome>
1

>  <Index>
182

>  <StandardizerResult>
Clear Stereo (ID: ClearStereo)
Wedge Clean (ID: WedgeClean)
Mesomerize (ID: Mesomerize)
Tautomerize (ID: Tautomerize)
Add Explicit Hydrogens (ID: AddExplicitH)
Neutralize (ID: Neutralize)
Clean 2D (ID: Clean2D)

> <knn Distance>


> <CpId>
182

$$$$
187
  Mrv1532301301811342D          

 20 19  0  0  0  0            999 V2000
    1.7605    1.8432    0.0000 C   0  0  0  0  0  0  0  0  0  0  0  0
    2.4750    1.4307    0.0000 C   0  0  0  0  0  0  0  0  0  0  0  0
    3.1895    1.8432    0.0000 N   0  0  0  0  0  0  0  0  0  0  0  0
    3.9039    1.4307    0.0000 C   0  0  0  0  0  0  0  0  0  0  0  0
    3.9039    0.6057    0.0000 S   0  0  0  0  0  0  0  0  0  0  0  0
    4.6184    1.8432    0.0000 N   0  0  0  0  0  0  0  0  0  0  0  0
    5.3329    1.4307    0.0000 C   0  0  0  0  0  0  0  0  0  0  0  0
    6.0474    1.8432    0.0000 C   0  0  0  0  0  0  0  0  0  0  0  0
    2.1730    2.5576    0.0000 H   0  0  0  0  0  0  0  0  0  0  0  0
    1.0461    2.2557    0.0000 H   0  0  0  0  0  0  0  0  0  0  0  0
    1.3480    1.1287    0.0000 H   0  0  0  0  0  0  0  0  0  0  0  0
    2.1047    0.6934    0.0000 H   0  0  0  0  0  0  0  0  0  0  0  0
    2.8453    0.6934    0.0000 H   0  0  0  0  0  0  0  0  0  0  0  0
    3.1895    2.6682    0.0000 H   0  0  0  0  0  0  0  0  0  0  0  0
    4.6184    2.6682    0.0000 H   0  0  0  0  0  0  0  0  0  0  0  0
    4.9626    0.6934    0.0000 H   0  0  0  0  0  0  0  0  0  0  0  0
    5.7031    0.6934    0.0000 H   0  0  0  0  0  0  0  0  0  0  0  0
    6.4599    1.1287    0.0000 H   0  0  0  0  0  0  0  0  0  0  0  0
    6.7618    2.2557    0.0000 H   0  0  0  0  0  0  0  0  0  0  0  0
    5.6349    2.5576    0.0000 H   0  0  0  0  0  0  0  0  0  0  0  0
  1  2  1  0  0  0  0
  2  3  1  0  0  0  0
  3  4  1  0  0  0  0
  4  5  2  0  0  0  0
  4  6  1  0  0  0  0
  6  7  1  0  0  0  0
  7  8  1  0  0  0  0
  1  9  1  0  0  0  0
  1 10  1  0  0  0  0
  1 11  1  0  0  0  0
  2 12  1  0  0  0  0
  2 13  1  0  0  0  0
  3 14  1  0  0  0  0
  6 15  1  0  0  0  0
  7 16  1  0  0  0  0
  7 17  1  0  0  0  0
  8 18  1  0  0  0  0
  8 19  1  0  0  0  0
  8 20  1  0  0  0  0
M  END
>  <InChIKey>
FLVIGYVXZHLUHP-UHFFFAOYSA-N

>  <UN GHS>
1

>  <CASRN>
105-55-5

> <Outcome>
1

>  <Index>
187

>  <StandardizerResult>
Clear Stereo (ID: ClearStereo)
Wedge Clean (ID: WedgeClean)
Mesomerize (ID: Mesomerize)
Tautomerize (ID: Tautomerize)
Add Explicit Hydrogens (ID: AddExplicitH)
Neutralize (ID: Neutralize)
Clean 2D (ID: Clean2D)

> <knn Distance>


> <CpId>
187

$$$$
188
  Mrv1532301301811342D          

 28 27  0  0  0  0            999 V2000
    4.4851   -2.1722    0.0000 C   0  0  0  0  0  0  0  0  0  0  0  0
    4.0726   -1.4577    0.0000 O   0  0  0  0  0  0  0  0  0  0  0  0
    3.2476   -1.4577    0.0000 Si  0  0  0  0  0  0  0  0  0  0  0  0
    2.4226   -1.4577    0.0000 C   0  0  0  0  0  0  0  0  0  0  0  0
    2.0101   -0.7433    0.0000 C   0  0  0  0  0  0  0  0  0  0  0  0
    1.1851   -0.7433    0.0000 C   0  0  0  0  0  0  0  0  0  0  0  0
    0.7726   -0.0288    0.0000 N   0  0  0  0  0  0  0  0  0  0  0  0
   -0.0524   -0.0288    0.0000 C   0  0  0  0  0  0  0  0  0  0  0  0
   -0.8774   -0.0288    0.0000 O   0  0  0  0  0  0  0  0  0  0  0  0
    3.2476   -0.6327    0.0000 O   0  0  0  0  0  0  0  0  0  0  0  0
    2.5332   -0.2202    0.0000 C   0  0  0  0  0  0  0  0  0  0  0  0
    3.2476   -2.2827    0.0000 O   0  0  0  0  0  0  0  0  0  0  0  0
    2.5332   -2.6952    0.0000 C   0  0  0  0  0  0  0  0  0  0  0  0
    3.7707   -2.5847    0.0000 H   0  0  0  0  0  0  0  0  0  0  0  0
    4.8976   -2.8867    0.0000 H   0  0  0  0  0  0  0  0  0  0  0  0
    5.1996   -1.7597    0.0000 H   0  0  0  0  0  0  0  0  0  0  0  0
    1.7334   -1.9111    0.0000 H   0  0  0  0  0  0  0  0  0  0  0  0
    2.3747   -2.2813    0.0000 H   0  0  0  0  0  0  0  0  0  0  0  0
    1.6944    0.0189    0.0000 H   0  0  0  0  0  0  0  0  0  0  0  0
    2.8281   -0.8509    0.0000 H   0  0  0  0  0  0  0  0  0  0  0  0
    0.4959   -1.1966    0.0000 H   0  0  0  0  0  0  0  0  0  0  0  0
    1.1372   -1.5669    0.0000 H   0  0  0  0  0  0  0  0  0  0  0  0
    3.3154    0.0418    0.0000 H   0  0  0  0  0  0  0  0  0  0  0  0
    2.8550    0.5394    0.0000 H   0  0  0  0  0  0  0  0  0  0  0  0
    2.1772    0.5240    0.0000 H   0  0  0  0  0  0  0  0  0  0  0  0
    1.7082   -2.7055    0.0000 H   0  0  0  0  0  0  0  0  0  0  0  0
    2.2575   -3.4728    0.0000 H   0  0  0  0  0  0  0  0  0  0  0  0
    3.1673   -3.2229    0.0000 H   0  0  0  0  0  0  0  0  0  0  0  0
  1  2  1  0  0  0  0
  2  3  1  0  0  0  0
  3  4  1  0  0  0  0
  4  5  1  0  0  0  0
  5  6  1  0  0  0  0
  6  7  1  0  0  0  0
  7  8  2  0  0  0  0
  8  9  2  0  0  0  0
  3 10  1  0  0  0  0
 10 11  1  0  0  0  0
  3 12  1  0  0  0  0
 12 13  1  0  0  0  0
  1 14  1  0  0  0  0
  1 15  1  0  0  0  0
  1 16  1  0  0  0  0
  4 17  1  0  0  0  0
  4 18  1  0  0  0  0
  5 19  1  0  0  0  0
  5 20  1  0  0  0  0
  6 21  1  0  0  0  0
  6 22  1  0  0  0  0
 11 23  1  0  0  0  0
 11 24  1  0  0  0  0
 11 25  1  0  0  0  0
 13 26  1  0  0  0  0
 13 27  1  0  0  0  0
 13 28  1  0  0  0  0
M  END
>  <InChIKey>
FMGBDYLOANULLW-UHFFFAOYSA-N

>  <UN GHS>
1

>  <CASRN>
15396-00-6

> <Outcome>
1

>  <Index>
188

>  <StandardizerResult>
Clear Stereo (ID: ClearStereo)
Wedge Clean (ID: WedgeClean)
Mesomerize (ID: Mesomerize)
Tautomerize (ID: Tautomerize)
Add Explicit Hydrogens (ID: AddExplicitH)
Neutralize (ID: Neutralize)
Clean 2D (ID: Clean2D)

> <knn Distance>


> <CpId>
188

$$$$
194
  Mrv1532301301811342D          

 28 27  0  0  0  0            999 V2000
    4.2355    3.2710    0.0000 C   0  0  0  0  0  0  0  0  0  0  0  0
    4.9500    2.8585    0.0000 C   0  0  0  0  0  0  0  0  0  0  0  0
    5.6645    3.2710    0.0000 O   0  0  0  0  0  0  0  0  0  0  0  0
    6.3789    2.8585    0.0000 C   0  0  0  0  0  0  0  0  0  0  0  0
    7.0934    3.2710    0.0000 C   0  0  0  0  0  0  0  0  0  0  0  0
    7.8079    2.8585    0.0000 O   0  0  0  0  0  0  0  0  0  0  0  0
    8.5223    3.2710    0.0000 C   0  0  0  0  0  0  0  0  0  0  0  0
    9.2368    2.8585    0.0000 C   0  0  0  0  0  0  0  0  0  0  0  0
    9.9513    3.2710    0.0000 O   0  0  0  0  0  0  0  0  0  0  0  0
   10.6658    2.8585    0.0000 C   0  0  0  0  0  0  0  0  0  0  0  0
   11.3802    3.2710    0.0000 C   0  0  0  0  0  0  0  0  0  0  0  0
   10.6658    2.0335    0.0000 O   0  0  0  0  0  0  0  0  0  0  0  0
    4.6480    3.9855    0.0000 H   0  0  0  0  0  0  0  0  0  0  0  0
    3.5210    3.6835    0.0000 H   0  0  0  0  0  0  0  0  0  0  0  0
    3.8230    2.5566    0.0000 H   0  0  0  0  0  0  0  0  0  0  0  0
    4.5797    2.1213    0.0000 H   0  0  0  0  0  0  0  0  0  0  0  0
    5.3202    2.1213    0.0000 H   0  0  0  0  0  0  0  0  0  0  0  0
    6.0087    2.1213    0.0000 H   0  0  0  0  0  0  0  0  0  0  0  0
    6.7492    2.1213    0.0000 H   0  0  0  0  0  0  0  0  0  0  0  0
    7.4637    4.0083    0.0000 H   0  0  0  0  0  0  0  0  0  0  0  0
    6.7231    4.0083    0.0000 H   0  0  0  0  0  0  0  0  0  0  0  0
    8.8926    4.0083    0.0000 H   0  0  0  0  0  0  0  0  0  0  0  0
    8.1521    4.0083    0.0000 H   0  0  0  0  0  0  0  0  0  0  0  0
    8.8666    2.1213    0.0000 H   0  0  0  0  0  0  0  0  0  0  0  0
    9.6071    2.1213    0.0000 H   0  0  0  0  0  0  0  0  0  0  0  0
   11.7927    2.5566    0.0000 H   0  0  0  0  0  0  0  0  0  0  0  0
   12.0947    3.6835    0.0000 H   0  0  0  0  0  0  0  0  0  0  0  0
   10.9677    3.9855    0.0000 H   0  0  0  0  0  0  0  0  0  0  0  0
  1  2  1  0  0  0  0
  2  3  1  0  0  0  0
  3  4  1  0  0  0  0
  4  5  1  0  0  0  0
  5  6  1  0  0  0  0
  6  7  1  0  0  0  0
  7  8  1  0  0  0  0
  8  9  1  0  0  0  0
  9 10  1  0  0  0  0
 10 11  1  0  0  0  0
 10 12  2  0  0  0  0
  1 13  1  0  0  0  0
  1 14  1  0  0  0  0
  1 15  1  0  0  0  0
  2 16  1  0  0  0  0
  2 17  1  0  0  0  0
  4 18  1  0  0  0  0
  4 19  1  0  0  0  0
  5 20  1  0  0  0  0
  5 21  1  0  0  0  0
  7 22  1  0  0  0  0
  7 23  1  0  0  0  0
  8 24  1  0  0  0  0
  8 25  1  0  0  0  0
 11 26  1  0  0  0  0
 11 27  1  0  0  0  0
 11 28  1  0  0  0  0
M  END
>  <InChIKey>
FPZWZCWUIYYYBU-UHFFFAOYSA-N

>  <UN GHS>
2A

>  <CASRN>
112-15-2

> <Outcome>
1

>  <Index>
194

>  <StandardizerResult>
Clear Stereo (ID: ClearStereo)
Wedge Clean (ID: WedgeClean)
Mesomerize (ID: Mesomerize)
Tautomerize (ID: Tautomerize)
Add Explicit Hydrogens (ID: AddExplicitH)
Neutralize (ID: Neutralize)
Clean 2D (ID: Clean2D)

> <knn Distance>


> <CpId>
194

$$$$
195
  Mrv1532301301811342D          

 13 12  0  0  0  0            999 V2000
    0.8250    1.4289    0.0000 C   0  0  0  0  0  0  0  0  0  0  0  0
    1.2375    0.7145    0.0000 C   0  0  0  0  0  0  0  0  0  0  0  0
    2.0625    0.7145    0.0000 C   0  0  0  0  0  0  0  0  0  0  0  0
    0.8250   -0.0000    0.0000 C   0  0  0  0  0  0  0  0  0  0  0  0
    1.2375   -0.7145    0.0000 N   0  0  0  0  0  0  0  0  0  0  0  0
   -0.0000   -0.0000    0.0000 O   0  0  0  0  0  0  0  0  0  0  0  0
    1.5395    1.8414    0.0000 H   0  0  0  0  0  0  0  0  0  0  0  0
    0.4125    2.1434    0.0000 H   0  0  0  0  0  0  0  0  0  0  0  0
    0.1105    1.0164    0.0000 H   0  0  0  0  0  0  0  0  0  0  0  0
    2.4750   -0.0000    0.0000 H   0  0  0  0  0  0  0  0  0  0  0  0
    2.4750    1.4289    0.0000 H   0  0  0  0  0  0  0  0  0  0  0  0
    0.8250   -1.4290    0.0000 H   0  0  0  0  0  0  0  0  0  0  0  0
    2.0625   -0.7145    0.0000 H   0  0  0  0  0  0  0  0  0  0  0  0
  1  2  1  0  0  0  0
  2  3  2  0  0  0  0
  2  4  1  0  0  0  0
  4  5  1  0  0  0  0
  4  6  2  0  0  0  0
  1  7  1  0  0  0  0
  1  8  1  0  0  0  0
  1  9  1  0  0  0  0
  3 10  1  0  0  0  0
  3 11  1  0  0  0  0
  5 12  1  0  0  0  0
  5 13  1  0  0  0  0
M  END
>  <InChIKey>
FQPSGWSUVKBHSU-UHFFFAOYSA-N

>  <UN GHS>
2A

>  <CASRN>
79-39-0

> <Outcome>
1

>  <Index>
195

>  <StandardizerResult>
Clear Stereo (ID: ClearStereo)
Wedge Clean (ID: WedgeClean)
Mesomerize (ID: Mesomerize)
Tautomerize (ID: Tautomerize)
Add Explicit Hydrogens (ID: AddExplicitH)
Neutralize (ID: Neutralize)
Clean 2D (ID: Clean2D)

> <knn Distance>


> <CpId>
195

$$$$
197
  Mrv1532301301811342D          

 33 32  0  0  0  0            999 V2000
    3.5211    2.8579    0.0000 O   0  0  0  0  0  0  0  0  0  0  0  0
    4.2355    3.2704    0.0000 C   0  0  0  0  0  0  0  0  0  0  0  0
    4.2355    4.0954    0.0000 O   0  0  0  0  0  0  0  0  0  0  0  0
    4.9500    2.8579    0.0000 C   0  0  0  0  0  0  0  0  0  0  0  0
    5.6645    3.2704    0.0000 C   0  0  0  0  0  0  0  0  0  0  0  0
    6.3789    2.8579    0.0000 C   0  0  0  0  0  0  0  0  0  0  0  0
    7.0934    3.2704    0.0000 C   0  0  0  0  0  0  0  0  0  0  0  0
    7.8079    2.8579    0.0000 C   0  0  0  0  0  0  0  0  0  0  0  0
    8.5224    3.2704    0.0000 C   0  0  0  0  0  0  0  0  0  0  0  0
    9.2368    2.8579    0.0000 C   0  0  0  0  0  0  0  0  0  0  0  0
    9.9513    3.2704    0.0000 C   0  0  0  0  0  0  0  0  0  0  0  0
   10.6658    2.8579    0.0000 C   0  0  0  0  0  0  0  0  0  0  0  0
   11.3802    3.2704    0.0000 C   0  0  0  0  0  0  0  0  0  0  0  0
    2.8066    3.2704    0.0000 H   0  0  0  0  0  0  0  0  0  0  0  0
    4.5797    2.1207    0.0000 H   0  0  0  0  0  0  0  0  0  0  0  0
    5.3203    2.1207    0.0000 H   0  0  0  0  0  0  0  0  0  0  0  0
    6.0347    4.0076    0.0000 H   0  0  0  0  0  0  0  0  0  0  0  0
    5.2942    4.0076    0.0000 H   0  0  0  0  0  0  0  0  0  0  0  0
    6.0087    2.1207    0.0000 H   0  0  0  0  0  0  0  0  0  0  0  0
    6.7492    2.1207    0.0000 H   0  0  0  0  0  0  0  0  0  0  0  0
    7.4637    4.0076    0.0000 H   0  0  0  0  0  0  0  0  0  0  0  0
    6.7232    4.0076    0.0000 H   0  0  0  0  0  0  0  0  0  0  0  0
    7.4376    2.1207    0.0000 H   0  0  0  0  0  0  0  0  0  0  0  0
    8.1781    2.1207    0.0000 H   0  0  0  0  0  0  0  0  0  0  0  0
    8.8926    4.0076    0.0000 H   0  0  0  0  0  0  0  0  0  0  0  0
    8.1521    4.0076    0.0000 H   0  0  0  0  0  0  0  0  0  0  0  0
    8.8666    2.1207    0.0000 H   0  0  0  0  0  0  0  0  0  0  0  0
    9.6071    2.1207    0.0000 H   0  0  0  0  0  0  0  0  0  0  0  0
   10.3216    4.0076    0.0000 H   0  0  0  0  0  0  0  0  0  0  0  0
    9.5810    4.0076    0.0000 H   0  0  0  0  0  0  0  0  0  0  0  0
   10.6658    2.0329    0.0000 H   0  0  0  0  0  0  0  0  0  0  0  0
   12.0947    2.8579    0.0000 H   0  0  0  0  0  0  0  0  0  0  0  0
   11.3802    4.0954    0.0000 H   0  0  0  0  0  0  0  0  0  0  0  0
  1  2  1  0  0  0  0
  2  3  2  0  0  0  0
  2  4  1  0  0  0  0
  4  5  1  0  0  0  0
  5  6  1  0  0  0  0
  6  7  1  0  0  0  0
  7  8  1  0  0  0  0
  8  9  1  0  0  0  0
  9 10  1  0  0  0  0
 10 11  1  0  0  0  0
 11 12  1  0  0  0  0
 12 13  2  0  0  0  0
  1 14  1  0  0  0  0
  4 15  1  0  0  0  0
  4 16  1  0  0  0  0
  5 17  1  0  0  0  0
  5 18  1  0  0  0  0
  6 19  1  0  0  0  0
  6 20  1  0  0  0  0
  7 21  1  0  0  0  0
  7 22  1  0  0  0  0
  8 23  1  0  0  0  0
  8 24  1  0  0  0  0
  9 25  1  0  0  0  0
  9 26  1  0  0  0  0
 10 27  1  0  0  0  0
 10 28  1  0  0  0  0
 11 29  1  0  0  0  0
 11 30  1  0  0  0  0
 12 31  1  0  0  0  0
 13 32  1  0  0  0  0
 13 33  1  0  0  0  0
M  END
>  <InChIKey>
FRPZMMHWLSIFAZ-UHFFFAOYSA-N

>  <UN GHS>
2A

>  <CASRN>
112-38-9

> <Outcome>
1

>  <Index>
197

>  <StandardizerResult>
Clear Stereo (ID: ClearStereo)
Wedge Clean (ID: WedgeClean)
Mesomerize (ID: Mesomerize)
Tautomerize (ID: Tautomerize)
Add Explicit Hydrogens (ID: AddExplicitH)
Neutralize (ID: Neutralize)
Clean 2D (ID: Clean2D)

> <knn Distance>


> <CpId>
197

$$$$
200
  Mrv1532301301811342D          

 19 18  0  0  0  0            999 V2000
   -0.2223    0.7143    0.0000 C   0  0  0  0  0  0  0  0  0  0  0  0
    0.4922    1.1268    0.0000 C   0  0  0  0  0  0  0  0  0  0  0  0
    1.2067    0.7143    0.0000 C   0  0  0  0  0  0  0  0  0  0  0  0
    1.9212    1.1268    0.0000 C   0  0  0  0  0  0  0  0  0  0  0  0
    1.9212    1.9518    0.0000 C   0  0  0  0  0  0  0  0  0  0  0  0
    2.6356    0.7143    0.0000 C   0  0  0  0  0  0  0  0  0  0  0  0
    3.3501    1.1268    0.0000 O   0  0  0  0  0  0  0  0  0  0  0  0
   -0.6348    1.4287    0.0000 H   0  0  0  0  0  0  0  0  0  0  0  0
   -0.9367    0.3018    0.0000 H   0  0  0  0  0  0  0  0  0  0  0  0
    0.1902   -0.0002    0.0000 H   0  0  0  0  0  0  0  0  0  0  0  0
    0.8625    1.8640    0.0000 H   0  0  0  0  0  0  0  0  0  0  0  0
    0.1220    1.8640    0.0000 H   0  0  0  0  0  0  0  0  0  0  0  0
    0.8364   -0.0230    0.0000 H   0  0  0  0  0  0  0  0  0  0  0  0
    1.5769   -0.0230    0.0000 H   0  0  0  0  0  0  0  0  0  0  0  0
    1.2067    1.5393    0.0000 H   0  0  0  0  0  0  0  0  0  0  0  0
    2.7180    1.7382    0.0000 H   0  0  0  0  0  0  0  0  0  0  0  0
    2.3337    2.6662    0.0000 H   0  0  0  0  0  0  0  0  0  0  0  0
    1.3378    2.5351    0.0000 H   0  0  0  0  0  0  0  0  0  0  0  0
    2.6356   -0.1107    0.0000 H   0  0  0  0  0  0  0  0  0  0  0  0
  1  2  1  0  0  0  0
  2  3  1  0  0  0  0
  3  4  1  0  0  0  0
  4  5  1  0  0  0  0
  4  6  1  0  0  0  0
  6  7  2  0  0  0  0
  1  8  1  0  0  0  0
  1  9  1  0  0  0  0
  1 10  1  0  0  0  0
  2 11  1  0  0  0  0
  2 12  1  0  0  0  0
  3 13  1  0  0  0  0
  3 14  1  0  0  0  0
  4 15  1  0  0  0  0
  5 16  1  0  0  0  0
  5 17  1  0  0  0  0
  5 18  1  0  0  0  0
  6 19  1  0  0  0  0
M  END
>  <InChIKey>
FTZILAQGHINQQR-UHFFFAOYSA-N

>  <UN GHS>
2A

>  <CASRN>
123-15-9

> <Outcome>
1

>  <Index>
200

>  <StandardizerResult>
Clear Stereo (ID: ClearStereo)
Wedge Clean (ID: WedgeClean)
Mesomerize (ID: Mesomerize)
Tautomerize (ID: Tautomerize)
Add Explicit Hydrogens (ID: AddExplicitH)
Neutralize (ID: Neutralize)
Clean 2D (ID: Clean2D)

> <knn Distance>


> <CpId>
200

$$$$
203
  Mrv1532301301811342D          

 22 21  0  0  0  0            999 V2000
    1.0461    1.4281    0.0000 C   0  0  0  0  0  0  0  0  0  0  0  0
    1.7605    1.8406    0.0000 C   0  0  0  0  0  0  0  0  0  0  0  0
    2.4750    1.4281    0.0000 C   0  0  0  0  0  0  0  0  0  0  0  0
    3.1895    1.8406    0.0000 C   0  0  0  0  0  0  0  0  0  0  0  0
    3.9039    1.4281    0.0000 C   0  0  0  0  0  0  0  0  0  0  0  0
    4.6184    1.8406    0.0000 C   0  0  0  0  0  0  0  0  0  0  0  0
    5.3329    1.4281    0.0000 C   0  0  0  0  0  0  0  0  0  0  0  0
    6.0474    1.8406    0.0000 O   0  0  0  0  0  0  0  0  0  0  0  0
    0.6336    2.1426    0.0000 H   0  0  0  0  0  0  0  0  0  0  0  0
    0.3316    1.0156    0.0000 H   0  0  0  0  0  0  0  0  0  0  0  0
    1.4586    0.7136    0.0000 H   0  0  0  0  0  0  0  0  0  0  0  0
    2.1308    2.5778    0.0000 H   0  0  0  0  0  0  0  0  0  0  0  0
    1.3903    2.5778    0.0000 H   0  0  0  0  0  0  0  0  0  0  0  0
    2.1047    0.6909    0.0000 H   0  0  0  0  0  0  0  0  0  0  0  0
    2.8453    0.6909    0.0000 H   0  0  0  0  0  0  0  0  0  0  0  0
    3.5597    2.5778    0.0000 H   0  0  0  0  0  0  0  0  0  0  0  0
    2.8192    2.5778    0.0000 H   0  0  0  0  0  0  0  0  0  0  0  0
    3.5337    0.6909    0.0000 H   0  0  0  0  0  0  0  0  0  0  0  0
    4.2742    0.6909    0.0000 H   0  0  0  0  0  0  0  0  0  0  0  0
    4.9887    2.5778    0.0000 H   0  0  0  0  0  0  0  0  0  0  0  0
    4.2482    2.5778    0.0000 H   0  0  0  0  0  0  0  0  0  0  0  0
    5.3329    0.6031    0.0000 H   0  0  0  0  0  0  0  0  0  0  0  0
  1  2  1  0  0  0  0
  2  3  1  0  0  0  0
  3  4  1  0  0  0  0
  4  5  1  0  0  0  0
  5  6  1  0  0  0  0
  6  7  1  0  0  0  0
  7  8  2  0  0  0  0
  1  9  1  0  0  0  0
  1 10  1  0  0  0  0
  1 11  1  0  0  0  0
  2 12  1  0  0  0  0
  2 13  1  0  0  0  0
  3 14  1  0  0  0  0
  3 15  1  0  0  0  0
  4 16  1  0  0  0  0
  4 17  1  0  0  0  0
  5 18  1  0  0  0  0
  5 19  1  0  0  0  0
  6 20  1  0  0  0  0
  6 21  1  0  0  0  0
  7 22  1  0  0  0  0
M  END
>  <InChIKey>
FXHGMKSSBGDXIY-UHFFFAOYSA-N

>  <UN GHS>
2B

>  <CASRN>
111-71-7

> <Outcome>
1

>  <Index>
203

>  <StandardizerResult>
Clear Stereo (ID: ClearStereo)
Wedge Clean (ID: WedgeClean)
Mesomerize (ID: Mesomerize)
Tautomerize (ID: Tautomerize)
Add Explicit Hydrogens (ID: AddExplicitH)
Neutralize (ID: Neutralize)
Clean 2D (ID: Clean2D)

> <knn Distance>


> <CpId>
203

$$$$
204
  Mrv1532301301811342D          

 15 14  0  0  0  0            999 V2000
    0.8312    1.4129    0.0000 C   0  0  0  0  0  0  0  0  0  0  0  0
    1.2437    0.6984    0.0000 N   0  0  0  0  0  0  0  0  0  0  0  0
    2.0687    0.6984    0.0000 C   0  0  0  0  0  0  0  0  0  0  0  0
    0.8312   -0.0161    0.0000 C   0  0  0  0  0  0  0  0  0  0  0  0
    1.2437   -0.7305    0.0000 C   0  0  0  0  0  0  0  0  0  0  0  0
    0.0062   -0.0161    0.0000 O   0  0  0  0  0  0  0  0  0  0  0  0
    1.5456    1.8254    0.0000 H   0  0  0  0  0  0  0  0  0  0  0  0
    0.4187    2.1273    0.0000 H   0  0  0  0  0  0  0  0  0  0  0  0
    0.1167    1.0004    0.0000 H   0  0  0  0  0  0  0  0  0  0  0  0
    2.0687   -0.1266    0.0000 H   0  0  0  0  0  0  0  0  0  0  0  0
    2.8937    0.6984    0.0000 H   0  0  0  0  0  0  0  0  0  0  0  0
    2.0687    1.5234    0.0000 H   0  0  0  0  0  0  0  0  0  0  0  0
    0.5292   -1.1430    0.0000 H   0  0  0  0  0  0  0  0  0  0  0  0
    1.6562   -1.4450    0.0000 H   0  0  0  0  0  0  0  0  0  0  0  0
    1.9581   -0.3180    0.0000 H   0  0  0  0  0  0  0  0  0  0  0  0
  1  2  1  0  0  0  0
  2  3  1  0  0  0  0
  2  4  1  0  0  0  0
  4  5  1  0  0  0  0
  4  6  2  0  0  0  0
  1  7  1  0  0  0  0
  1  8  1  0  0  0  0
  1  9  1  0  0  0  0
  3 10  1  0  0  0  0
  3 11  1  0  0  0  0
  3 12  1  0  0  0  0
  5 13  1  0  0  0  0
  5 14  1  0  0  0  0
  5 15  1  0  0  0  0
M  END
>  <InChIKey>
FXHOOIRPVKKKFG-UHFFFAOYSA-N

>  <UN GHS>
2A

>  <CASRN>
127-19-5

> <Outcome>
1

>  <Index>
204

>  <StandardizerResult>
Clear Stereo (ID: ClearStereo)
Wedge Clean (ID: WedgeClean)
Mesomerize (ID: Mesomerize)
Tautomerize (ID: Tautomerize)
Add Explicit Hydrogens (ID: AddExplicitH)
Neutralize (ID: Neutralize)
Clean 2D (ID: Clean2D)

> <knn Distance>


> <CpId>
204

$$$$
208
  Mrv1532301301811342D          

 10  9  0  0  0  0            999 V2000
    0.8250    1.4289    0.0000 N   0  0  0  0  0  0  0  0  0  0  0  0
    1.2375    0.7145    0.0000 C   0  0  0  0  0  0  0  0  0  0  0  0
    2.0625    0.7145    0.0000 N   0  0  0  0  0  0  0  0  0  0  0  0
    0.8250   -0.0000    0.0000 S   0  0  0  0  0  0  0  0  0  0  0  0
    1.2375   -0.7145    0.0000 O   0  0  0  0  0  0  0  0  0  0  0  0
   -0.0000   -0.0000    0.0000 O   0  0  0  0  0  0  0  0  0  0  0  0
    1.2375    2.1434    0.0000 H   0  0  0  0  0  0  0  0  0  0  0  0
   -0.0000    1.4289    0.0000 H   0  0  0  0  0  0  0  0  0  0  0  0
    2.4750   -0.0000    0.0000 H   0  0  0  0  0  0  0  0  0  0  0  0
    0.8250   -1.4290    0.0000 H   0  0  0  0  0  0  0  0  0  0  0  0
  1  2  1  0  0  0  0
  2  3  2  0  0  0  0
  2  4  1  0  0  0  0
  4  5  1  0  0  0  0
  4  6  2  0  0  0  0
  1  7  1  0  0  0  0
  1  8  1  0  0  0  0
  3  9  1  0  0  0  0
  5 10  1  0  0  0  0
M  END
>  <InChIKey>
FYOWZTWVYZOZSI-UHFFFAOYSA-N

>  <UN GHS>
1

>  <CASRN>
1758-73-2

> <Outcome>
1

>  <Index>
208

>  <StandardizerResult>
Clear Stereo (ID: ClearStereo)
Wedge Clean (ID: WedgeClean)
Mesomerize (ID: Mesomerize)
Tautomerize (ID: Tautomerize)
Add Explicit Hydrogens (ID: AddExplicitH)
Neutralize (ID: Neutralize)
Clean 2D (ID: Clean2D)

> <knn Distance>


> <CpId>
208

$$$$
209
  Mrv1532301301811342D          

 33 34  0  0  0  0            999 V2000
    2.3364   -0.9648    0.0000 C   0  0  0  0  0  0  0  0  0  0  0  0
    1.5114   -0.9648    0.0000 C   0  0  0  0  0  0  0  0  0  0  0  0
    0.6864   -0.9648    0.0000 C   0  0  0  0  0  0  0  0  0  0  0  0
    1.5114   -1.7898    0.0000 C   0  0  0  0  0  0  0  0  0  0  0  0
    2.1788   -2.2748    0.0000 C   0  0  0  0  0  0  0  0  0  0  0  0
    1.9239   -3.0594    0.0000 C   0  0  0  0  0  0  0  0  0  0  0  0
    1.0989   -3.0594    0.0000 C   0  0  0  0  0  0  0  0  0  0  0  0
    0.8440   -2.2748    0.0000 O   0  0  0  0  0  0  0  0  0  0  0  0
    1.5114   -0.1398    0.0000 C   0  0  0  0  0  0  0  0  0  0  0  0
    0.8440    0.3451    0.0000 C   0  0  0  0  0  0  0  0  0  0  0  0
    1.0989    1.1297    0.0000 C   0  0  0  0  0  0  0  0  0  0  0  0
    1.9239    1.1297    0.0000 C   0  0  0  0  0  0  0  0  0  0  0  0
    2.1788    0.3451    0.0000 O   0  0  0  0  0  0  0  0  0  0  0  0
    2.3364   -1.7898    0.0000 H   0  0  0  0  0  0  0  0  0  0  0  0
    3.1614   -0.9648    0.0000 H   0  0  0  0  0  0  0  0  0  0  0  0
    2.3364   -0.1398    0.0000 H   0  0  0  0  0  0  0  0  0  0  0  0
    0.6864   -0.1398    0.0000 H   0  0  0  0  0  0  0  0  0  0  0  0
   -0.1386   -0.9648    0.0000 H   0  0  0  0  0  0  0  0  0  0  0  0
    0.6864   -1.7898    0.0000 H   0  0  0  0  0  0  0  0  0  0  0  0
    1.5114   -2.6148    0.0000 H   0  0  0  0  0  0  0  0  0  0  0  0
    2.8289   -2.7827    0.0000 H   0  0  0  0  0  0  0  0  0  0  0  0
    3.0033   -2.2460    0.0000 H   0  0  0  0  0  0  0  0  0  0  0  0
    1.7329   -3.8620    0.0000 H   0  0  0  0  0  0  0  0  0  0  0  0
    2.3412   -3.7710    0.0000 H   0  0  0  0  0  0  0  0  0  0  0  0
    0.3574   -3.4210    0.0000 H   0  0  0  0  0  0  0  0  0  0  0  0
    0.9841   -3.8763    0.0000 H   0  0  0  0  0  0  0  0  0  0  0  0
    1.5114    0.6852    0.0000 H   0  0  0  0  0  0  0  0  0  0  0  0
    0.1938    0.8530    0.0000 H   0  0  0  0  0  0  0  0  0  0  0  0
    0.0195    0.3163    0.0000 H   0  0  0  0  0  0  0  0  0  0  0  0
    1.2899    1.9323    0.0000 H   0  0  0  0  0  0  0  0  0  0  0  0
    0.6816    1.8414    0.0000 H   0  0  0  0  0  0  0  0  0  0  0  0
    2.6654    1.4914    0.0000 H   0  0  0  0  0  0  0  0  0  0  0  0
    2.0387    1.9467    0.0000 H   0  0  0  0  0  0  0  0  0  0  0  0
  1  2  1  0  0  0  0
  2  3  1  0  0  0  0
  2  4  1  0  0  0  0
  4  5  1  0  0  0  0
  5  6  1  0  0  0  0
  6  7  1  0  0  0  0
  7  8  1  0  0  0  0
  4  8  1  0  0  0  0
  2  9  1  0  0  0  0
  9 10  1  0  0  0  0
 10 11  1  0  0  0  0
 11 12  1  0  0  0  0
 12 13  1  0  0  0  0
  9 13  1  0  0  0  0
  1 14  1  0  0  0  0
  1 15  1  0  0  0  0
  1 16  1  0  0  0  0
  3 17  1  0  0  0  0
  3 18  1  0  0  0  0
  3 19  1  0  0  0  0
  4 20  1  0  0  0  0
  5 21  1  0  0  0  0
  5 22  1  0  0  0  0
  6 23  1  0  0  0  0
  6 24  1  0  0  0  0
  7 25  1  0  0  0  0
  7 26  1  0  0  0  0
  9 27  1  0  0  0  0
 10 28  1  0  0  0  0
 10 29  1  0  0  0  0
 11 30  1  0  0  0  0
 11 31  1  0  0  0  0
 12 32  1  0  0  0  0
 12 33  1  0  0  0  0
M  END
>  <InChIKey>
FZLHAQMQWDDWFI-UWVGGRQHSA-N

>  <UN GHS>
2A

>  <CASRN>
89686-69-1

> <Outcome>
1

>  <Index>
209

>  <StandardizerResult>
Clear Stereo (ID: ClearStereo)
Wedge Clean (ID: WedgeClean)
Mesomerize (ID: Mesomerize)
Tautomerize (ID: Tautomerize)
Add Explicit Hydrogens (ID: AddExplicitH)
Neutralize (ID: Neutralize)
Clean 2D (ID: Clean2D)

> <knn Distance>


> <CpId>
209

$$$$
210
  Mrv1532301301811342D          

 66 66  0  0  0  0            999 V2000
   -2.8399   -0.8225    0.0000 C   0  0  0  0  0  0  0  0  0  0  0  0
   -2.1254   -0.4100    0.0000 N   0  0  0  0  0  0  0  0  0  0  0  0
   -1.4109   -0.8225    0.0000 C   0  0  0  0  0  0  0  0  0  0  0  0
   -2.1254    0.4150    0.0000 C   0  0  0  0  0  0  0  0  0  0  0  0
   -1.4109    0.8275    0.0000 C   0  0  0  0  0  0  0  0  0  0  0  0
   -1.4109    1.6525    0.0000 C   0  0  0  0  0  0  0  0  0  0  0  0
   -0.6964    2.0650    0.0000 N   0  0  0  0  0  0  0  0  0  0  0  0
   -0.6964    2.8900    0.0000 C   0  0  0  0  0  0  0  0  0  0  0  0
    0.0180    3.3025    0.0000 N   0  0  0  0  0  0  0  0  0  0  0  0
    0.0180    4.1275    0.0000 C   0  0  0  0  0  0  0  0  0  0  0  0
    0.7325    4.5400    0.0000 C   0  0  0  0  0  0  0  0  0  0  0  0
    0.7325    5.3650    0.0000 C   0  0  0  0  0  0  0  0  0  0  0  0
    1.4470    5.7775    0.0000 N   0  0  0  0  0  0  0  0  0  0  0  0
    1.4470    6.6025    0.0000 C   0  0  0  0  0  0  0  0  0  0  0  0
    2.1614    5.3650    0.0000 C   0  0  0  0  0  0  0  0  0  0  0  0
    0.7325    2.8900    0.0000 C   0  0  0  0  0  0  0  0  0  0  0  0
    0.7325    2.0650    0.0000 N   0  0  0  0  0  0  0  0  0  0  0  0
    1.4470    1.6525    0.0000 C   0  0  0  0  0  0  0  0  0  0  0  0
    2.1614    2.0650    0.0000 C   0  0  0  0  0  0  0  0  0  0  0  0
    2.8759    1.6525    0.0000 C   0  0  0  0  0  0  0  0  0  0  0  0
    3.5904    2.0650    0.0000 N   0  0  0  0  0  0  0  0  0  0  0  0
    3.5904    2.8900    0.0000 C   0  0  0  0  0  0  0  0  0  0  0  0
    4.3049    1.6525    0.0000 C   0  0  0  0  0  0  0  0  0  0  0  0
    0.0180    1.6525    0.0000 C   0  0  0  0  0  0  0  0  0  0  0  0
   -3.2524   -0.1081    0.0000 H   0  0  0  0  0  0  0  0  0  0  0  0
   -3.5543   -1.2350    0.0000 H   0  0  0  0  0  0  0  0  0  0  0  0
   -2.4274   -1.5370    0.0000 H   0  0  0  0  0  0  0  0  0  0  0  0
   -1.8234   -1.5370    0.0000 H   0  0  0  0  0  0  0  0  0  0  0  0
   -0.6964   -1.2350    0.0000 H   0  0  0  0  0  0  0  0  0  0  0  0
   -0.9984   -0.1081    0.0000 H   0  0  0  0  0  0  0  0  0  0  0  0
   -2.5787    1.1042    0.0000 H   0  0  0  0  0  0  0  0  0  0  0  0
   -2.9490    0.4629    0.0000 H   0  0  0  0  0  0  0  0  0  0  0  0
   -0.9576    0.1382    0.0000 H   0  0  0  0  0  0  0  0  0  0  0  0
   -0.5873    0.7795    0.0000 H   0  0  0  0  0  0  0  0  0  0  0  0
   -1.8643    2.3417    0.0000 H   0  0  0  0  0  0  0  0  0  0  0  0
   -2.2345    1.7004    0.0000 H   0  0  0  0  0  0  0  0  0  0  0  0
   -1.1498    3.5792    0.0000 H   0  0  0  0  0  0  0  0  0  0  0  0
   -1.5200    2.9379    0.0000 H   0  0  0  0  0  0  0  0  0  0  0  0
   -0.4353    4.8167    0.0000 H   0  0  0  0  0  0  0  0  0  0  0  0
   -0.8056    4.1754    0.0000 H   0  0  0  0  0  0  0  0  0  0  0  0
    1.1858    3.8507    0.0000 H   0  0  0  0  0  0  0  0  0  0  0  0
    1.5561    4.4920    0.0000 H   0  0  0  0  0  0  0  0  0  0  0  0
    0.2792    6.0542    0.0000 H   0  0  0  0  0  0  0  0  0  0  0  0
   -0.0911    5.4129    0.0000 H   0  0  0  0  0  0  0  0  0  0  0  0
    2.2720    6.6025    0.0000 H   0  0  0  0  0  0  0  0  0  0  0  0
    1.4470    7.4275    0.0000 H   0  0  0  0  0  0  0  0  0  0  0  0
    0.6220    6.6025    0.0000 H   0  0  0  0  0  0  0  0  0  0  0  0
    1.7489    4.6505    0.0000 H   0  0  0  0  0  0  0  0  0  0  0  0
    2.8759    4.9525    0.0000 H   0  0  0  0  0  0  0  0  0  0  0  0
    2.5739    6.0794    0.0000 H   0  0  0  0  0  0  0  0  0  0  0  0
    1.5561    2.9379    0.0000 H   0  0  0  0  0  0  0  0  0  0  0  0
    1.1858    3.5792    0.0000 H   0  0  0  0  0  0  0  0  0  0  0  0
    1.0767    0.9152    0.0000 H   0  0  0  0  0  0  0  0  0  0  0  0
    1.8172    0.9152    0.0000 H   0  0  0  0  0  0  0  0  0  0  0  0
    2.5317    2.8022    0.0000 H   0  0  0  0  0  0  0  0  0  0  0  0
    1.7912    2.8022    0.0000 H   0  0  0  0  0  0  0  0  0  0  0  0
    2.5057    0.9152    0.0000 H   0  0  0  0  0  0  0  0  0  0  0  0
    3.2462    0.9152    0.0000 H   0  0  0  0  0  0  0  0  0  0  0  0
    4.4154    2.8900    0.0000 H   0  0  0  0  0  0  0  0  0  0  0  0
    3.5904    3.7150    0.0000 H   0  0  0  0  0  0  0  0  0  0  0  0
    2.7654    2.8900    0.0000 H   0  0  0  0  0  0  0  0  0  0  0  0
    3.8924    0.9380    0.0000 H   0  0  0  0  0  0  0  0  0  0  0  0
    5.0193    1.2400    0.0000 H   0  0  0  0  0  0  0  0  0  0  0  0
    4.7174    2.3669    0.0000 H   0  0  0  0  0  0  0  0  0  0  0  0
   -0.3522    0.9152    0.0000 H   0  0  0  0  0  0  0  0  0  0  0  0
    0.3883    0.9152    0.0000 H   0  0  0  0  0  0  0  0  0  0  0  0
  1  2  1  0  0  0  0
  2  3  1  0  0  0  0
  2  4  1  0  0  0  0
  4  5  1  0  0  0  0
  5  6  1  0  0  0  0
  6  7  1  0  0  0  0
  7  8  1  0  0  0  0
  8  9  1  0  0  0  0
  9 10  1  0  0  0  0
 10 11  1  0  0  0  0
 11 12  1  0  0  0  0
 12 13  1  0  0  0  0
 13 14  1  0  0  0  0
 13 15  1  0  0  0  0
  9 16  1  0  0  0  0
 16 17  1  0  0  0  0
 17 18  1  0  0  0  0
 18 19  1  0  0  0  0
 19 20  1  0  0  0  0
 20 21  1  0  0  0  0
 21 22  1  0  0  0  0
 21 23  1  0  0  0  0
 17 24  1  0  0  0  0
  7 24  1  0  0  0  0
  1 25  1  0  0  0  0
  1 26  1  0  0  0  0
  1 27  1  0  0  0  0
  3 28  1  0  0  0  0
  3 29  1  0  0  0  0
  3 30  1  0  0  0  0
  4 31  1  0  0  0  0
  4 32  1  0  0  0  0
  5 33  1  0  0  0  0
  5 34  1  0  0  0  0
  6 35  1  0  0  0  0
  6 36  1  0  0  0  0
  8 37  1  0  0  0  0
  8 38  1  0  0  0  0
 10 39  1  0  0  0  0
 10 40  1  0  0  0  0
 11 41  1  0  0  0  0
 11 42  1  0  0  0  0
 12 43  1  0  0  0  0
 12 44  1  0  0  0  0
 14 45  1  0  0  0  0
 14 46  1  0  0  0  0
 14 47  1  0  0  0  0
 15 48  1  0  0  0  0
 15 49  1  0  0  0  0
 15 50  1  0  0  0  0
 16 51  1  0  0  0  0
 16 52  1  0  0  0  0
 18 53  1  0  0  0  0
 18 54  1  0  0  0  0
 19 55  1  0  0  0  0
 19 56  1  0  0  0  0
 20 57  1  0  0  0  0
 20 58  1  0  0  0  0
 22 59  1  0  0  0  0
 22 60  1  0  0  0  0
 22 61  1  0  0  0  0
 23 62  1  0  0  0  0
 23 63  1  0  0  0  0
 23 64  1  0  0  0  0
 24 65  1  0  0  0  0
 24 66  1  0  0  0  0
M  END
>  <InChIKey>
FZQMJOOSLXFQSU-UHFFFAOYSA-N

>  <UN GHS>
1

>  <CASRN>
15875-13-5

> <Outcome>
1

>  <Index>
210

>  <StandardizerResult>
Clear Stereo (ID: ClearStereo)
Wedge Clean (ID: WedgeClean)
Mesomerize (ID: Mesomerize)
Tautomerize (ID: Tautomerize)
Add Explicit Hydrogens (ID: AddExplicitH)
Neutralize (ID: Neutralize)
Clean 2D (ID: Clean2D)

> <knn Distance>


> <CpId>
210

$$$$
215
  Mrv1532301301811342D          

 13 12  0  0  0  0            999 V2000
    1.2375    0.7145    0.0000 C   0  0  0  0  0  0  0  0  0  0  0  0
    0.8250   -0.0000    0.0000 N   0  0  0  0  0  0  0  0  0  0  0  0
    1.2375   -0.7145    0.0000 C   0  0  0  0  0  0  0  0  0  0  0  0
   -0.0000   -0.0000    0.0000 C   0  0  0  0  0  0  0  0  0  0  0  0
    1.9520    0.3020    0.0000 H   0  0  0  0  0  0  0  0  0  0  0  0
    1.6500    1.4289    0.0000 H   0  0  0  0  0  0  0  0  0  0  0  0
    0.5230    1.1270    0.0000 H   0  0  0  0  0  0  0  0  0  0  0  0
    0.5230   -1.1270    0.0000 H   0  0  0  0  0  0  0  0  0  0  0  0
    1.6500   -1.4289    0.0000 H   0  0  0  0  0  0  0  0  0  0  0  0
    1.9520   -0.3020    0.0000 H   0  0  0  0  0  0  0  0  0  0  0  0
   -0.0000    0.8250    0.0000 H   0  0  0  0  0  0  0  0  0  0  0  0
   -0.8250    0.0000    0.0000 H   0  0  0  0  0  0  0  0  0  0  0  0
   -0.0000   -0.8250    0.0000 H   0  0  0  0  0  0  0  0  0  0  0  0
  1  2  1  0  0  0  0
  2  3  1  0  0  0  0
  2  4  1  0  0  0  0
  1  5  1  0  0  0  0
  1  6  1  0  0  0  0
  1  7  1  0  0  0  0
  3  8  1  0  0  0  0
  3  9  1  0  0  0  0
  3 10  1  0  0  0  0
  4 11  1  0  0  0  0
  4 12  1  0  0  0  0
  4 13  1  0  0  0  0
M  END
>  <InChIKey>
GETQZCLCWQTVFV-UHFFFAOYSA-N

>  <UN GHS>
2A

>  <CASRN>
593-81-7

> <Outcome>
1

>  <Index>
215

>  <StandardizerResult>
Clear Stereo (ID: ClearStereo)
Wedge Clean (ID: WedgeClean)
Mesomerize (ID: Mesomerize)
Tautomerize (ID: Tautomerize)
Add Explicit Hydrogens (ID: AddExplicitH)
Neutralize (ID: Neutralize)
Clean 2D (ID: Clean2D)

> <knn Distance>


> <CpId>
215

$$$$
219
  Mrv1532301301811342D          

 31 30  0  0  0  0            999 V2000
    4.3659    1.8625    0.0000 C   0  0  0  0  0  0  0  0  0  0  0  0
    3.6514    1.4500    0.0000 C   0  0  0  0  0  0  0  0  0  0  0  0
    2.9369    1.8625    0.0000 O   0  0  0  0  0  0  0  0  0  0  0  0
    2.2225    1.4500    0.0000 C   0  0  0  0  0  0  0  0  0  0  0  0
    2.2225    0.6250    0.0000 O   0  0  0  0  0  0  0  0  0  0  0  0
    1.5080    1.8625    0.0000 C   0  0  0  0  0  0  0  0  0  0  0  0
    0.7935    1.4500    0.0000 P   0  0  0  0  0  0  0  0  0  0  0  0
    0.3810    2.1644    0.0000 O   0  0  0  0  0  0  0  0  0  0  0  0
    0.0791    1.0375    0.0000 O   0  0  0  0  0  0  0  0  0  0  0  0
   -0.6354    1.4500    0.0000 C   0  0  0  0  0  0  0  0  0  0  0  0
   -1.3499    1.0375    0.0000 C   0  0  0  0  0  0  0  0  0  0  0  0
    1.2060    0.7355    0.0000 O   0  0  0  0  0  0  0  0  0  0  0  0
    0.7935    0.0210    0.0000 C   0  0  0  0  0  0  0  0  0  0  0  0
   -0.0315    0.0210    0.0000 C   0  0  0  0  0  0  0  0  0  0  0  0
    4.7784    1.1480    0.0000 H   0  0  0  0  0  0  0  0  0  0  0  0
    5.0804    2.2750    0.0000 H   0  0  0  0  0  0  0  0  0  0  0  0
    3.9534    2.5769    0.0000 H   0  0  0  0  0  0  0  0  0  0  0  0
    3.2812    0.7127    0.0000 H   0  0  0  0  0  0  0  0  0  0  0  0
    4.0217    0.7127    0.0000 H   0  0  0  0  0  0  0  0  0  0  0  0
    1.8783    2.5997    0.0000 H   0  0  0  0  0  0  0  0  0  0  0  0
    1.1377    2.5997    0.0000 H   0  0  0  0  0  0  0  0  0  0  0  0
   -0.2651    2.1872    0.0000 H   0  0  0  0  0  0  0  0  0  0  0  0
   -1.0057    2.1872    0.0000 H   0  0  0  0  0  0  0  0  0  0  0  0
   -1.7624    1.7519    0.0000 H   0  0  0  0  0  0  0  0  0  0  0  0
   -2.0644    0.6250    0.0000 H   0  0  0  0  0  0  0  0  0  0  0  0
   -0.9374    0.3230    0.0000 H   0  0  0  0  0  0  0  0  0  0  0  0
    0.8415   -0.8026    0.0000 H   0  0  0  0  0  0  0  0  0  0  0  0
    1.4828   -0.4323    0.0000 H   0  0  0  0  0  0  0  0  0  0  0  0
   -0.4596   -0.6842    0.0000 H   0  0  0  0  0  0  0  0  0  0  0  0
    0.1517   -0.7834    0.0000 H   0  0  0  0  0  0  0  0  0  0  0  0
    0.1007    0.8354    0.0000 H   0  0  0  0  0  0  0  0  0  0  0  0
  1  2  1  0  0  0  0
  2  3  1  0  0  0  0
  3  4  1  0  0  0  0
  4  5  2  0  0  0  0
  4  6  1  0  0  0  0
  6  7  1  0  0  0  0
  7  8  2  0  0  0  0
  7  9  1  0  0  0  0
  9 10  1  0  0  0  0
 10 11  1  0  0  0  0
  7 12  1  0  0  0  0
 12 13  1  0  0  0  0
 13 14  1  0  0  0  0
  1 15  1  0  0  0  0
  1 16  1  0  0  0  0
  1 17  1  0  0  0  0
  2 18  1  0  0  0  0
  2 19  1  0  0  0  0
  6 20  1  0  0  0  0
  6 21  1  0  0  0  0
 10 22  1  0  0  0  0
 10 23  1  0  0  0  0
 11 24  1  0  0  0  0
 11 25  1  0  0  0  0
 11 26  1  0  0  0  0
 13 27  1  0  0  0  0
 13 28  1  0  0  0  0
 14 29  1  0  0  0  0
 14 30  1  0  0  0  0
 14 31  1  0  0  0  0
M  END
>  <InChIKey>
GGUBFICZYGKNTD-UHFFFAOYSA-N

>  <UN GHS>
2A

>  <CASRN>
867-13-0

> <Outcome>
1

>  <Index>
219

>  <StandardizerResult>
Clear Stereo (ID: ClearStereo)
Wedge Clean (ID: WedgeClean)
Mesomerize (ID: Mesomerize)
Tautomerize (ID: Tautomerize)
Add Explicit Hydrogens (ID: AddExplicitH)
Neutralize (ID: Neutralize)
Clean 2D (ID: Clean2D)

> <knn Distance>


> <CpId>
219

$$$$
223
  Mrv1532301301811342D          

 64 65  0  0  0  0            999 V2000
    2.1434   -8.6625    0.0000 Cl  0  0  0  0  0  0  0  0  0  0  0  0
    2.8579   -9.0750    0.0000 C   0  0  0  0  0  0  0  0  0  0  0  0
    3.5724   -8.6625    0.0000 C   0  0  0  0  0  0  0  0  0  0  0  0
    4.2868   -9.0750    0.0000 C   0  0  0  0  0  0  0  0  0  0  0  0
    4.2868   -9.9000    0.0000 C   0  0  0  0  0  0  0  0  0  0  0  0
    5.0013  -10.3125    0.0000 N   0  0  0  0  0  0  0  0  0  0  0  0
    5.7158   -9.9000    0.0000 C   0  0  0  0  0  0  0  0  0  0  0  0
    5.7158   -9.0750    0.0000 N   0  0  0  0  0  0  0  0  0  0  0  0
    6.4302  -10.3125    0.0000 N   0  0  0  0  0  0  0  0  0  0  0  0
    7.1447   -9.9000    0.0000 C   0  0  0  0  0  0  0  0  0  0  0  0
    7.1447   -9.0750    0.0000 N   0  0  0  0  0  0  0  0  0  0  0  0
    7.8592  -10.3125    0.0000 N   0  0  0  0  0  0  0  0  0  0  0  0
    8.5737   -9.9000    0.0000 C   0  0  0  0  0  0  0  0  0  0  0  0
    9.2881  -10.3125    0.0000 C   0  0  0  0  0  0  0  0  0  0  0  0
   10.0026   -9.9000    0.0000 C   0  0  0  0  0  0  0  0  0  0  0  0
   10.7171  -10.3125    0.0000 C   0  0  0  0  0  0  0  0  0  0  0  0
   11.4315   -9.9000    0.0000 C   0  0  0  0  0  0  0  0  0  0  0  0
   12.1460  -10.3125    0.0000 C   0  0  0  0  0  0  0  0  0  0  0  0
   12.8605   -9.9000    0.0000 N   0  0  0  0  0  0  0  0  0  0  0  0
   13.5750  -10.3125    0.0000 C   0  0  0  0  0  0  0  0  0  0  0  0
   13.5750  -11.1375    0.0000 N   0  0  0  0  0  0  0  0  0  0  0  0
   14.2894   -9.9000    0.0000 N   0  0  0  0  0  0  0  0  0  0  0  0
   15.0039  -10.3125    0.0000 C   0  0  0  0  0  0  0  0  0  0  0  0
   15.0039  -11.1375    0.0000 N   0  0  0  0  0  0  0  0  0  0  0  0
   15.7184   -9.9000    0.0000 N   0  0  0  0  0  0  0  0  0  0  0  0
   16.4328  -10.3125    0.0000 C   0  0  0  0  0  0  0  0  0  0  0  0
   17.1473   -9.9000    0.0000 C   0  0  0  0  0  0  0  0  0  0  0  0
   17.8618  -10.3125    0.0000 C   0  0  0  0  0  0  0  0  0  0  0  0
   17.8618  -11.1375    0.0000 C   0  0  0  0  0  0  0  0  0  0  0  0
   18.5762  -11.5500    0.0000 Cl  0  0  0  0  0  0  0  0  0  0  0  0
   17.1473  -11.5500    0.0000 C   0  0  0  0  0  0  0  0  0  0  0  0
   16.4328  -11.1375    0.0000 C   0  0  0  0  0  0  0  0  0  0  0  0
    3.5724  -10.3125    0.0000 C   0  0  0  0  0  0  0  0  0  0  0  0
    2.8579   -9.9000    0.0000 C   0  0  0  0  0  0  0  0  0  0  0  0
    3.5724   -7.8375    0.0000 H   0  0  0  0  0  0  0  0  0  0  0  0
    5.0013   -8.6625    0.0000 H   0  0  0  0  0  0  0  0  0  0  0  0
    5.0013  -11.1375    0.0000 H   0  0  0  0  0  0  0  0  0  0  0  0
    6.4302   -8.6625    0.0000 H   0  0  0  0  0  0  0  0  0  0  0  0
    6.4302  -11.1375    0.0000 H   0  0  0  0  0  0  0  0  0  0  0  0
    7.8592   -8.6625    0.0000 H   0  0  0  0  0  0  0  0  0  0  0  0
    7.8592  -11.1375    0.0000 H   0  0  0  0  0  0  0  0  0  0  0  0
    8.9439   -9.1628    0.0000 H   0  0  0  0  0  0  0  0  0  0  0  0
    8.2034   -9.1628    0.0000 H   0  0  0  0  0  0  0  0  0  0  0  0
    8.9179  -11.0497    0.0000 H   0  0  0  0  0  0  0  0  0  0  0  0
    9.6584  -11.0497    0.0000 H   0  0  0  0  0  0  0  0  0  0  0  0
   10.3729   -9.1628    0.0000 H   0  0  0  0  0  0  0  0  0  0  0  0
    9.6323   -9.1628    0.0000 H   0  0  0  0  0  0  0  0  0  0  0  0
   10.3468  -11.0497    0.0000 H   0  0  0  0  0  0  0  0  0  0  0  0
   11.0873  -11.0497    0.0000 H   0  0  0  0  0  0  0  0  0  0  0  0
   11.8018   -9.1628    0.0000 H   0  0  0  0  0  0  0  0  0  0  0  0
   11.0613   -9.1628    0.0000 H   0  0  0  0  0  0  0  0  0  0  0  0
   11.7758  -11.0497    0.0000 H   0  0  0  0  0  0  0  0  0  0  0  0
   12.5163  -11.0497    0.0000 H   0  0  0  0  0  0  0  0  0  0  0  0
   12.8605   -9.0750    0.0000 H   0  0  0  0  0  0  0  0  0  0  0  0
   12.8605  -11.5500    0.0000 H   0  0  0  0  0  0  0  0  0  0  0  0
   14.2894   -9.0750    0.0000 H   0  0  0  0  0  0  0  0  0  0  0  0
   14.2894  -11.5500    0.0000 H   0  0  0  0  0  0  0  0  0  0  0  0
   15.7184   -9.0750    0.0000 H   0  0  0  0  0  0  0  0  0  0  0  0
   17.1473   -9.0750    0.0000 H   0  0  0  0  0  0  0  0  0  0  0  0
   18.5762   -9.9000    0.0000 H   0  0  0  0  0  0  0  0  0  0  0  0
   17.1473  -12.3750    0.0000 H   0  0  0  0  0  0  0  0  0  0  0  0
   15.7184  -11.5500    0.0000 H   0  0  0  0  0  0  0  0  0  0  0  0
    3.5724  -11.1375    0.0000 H   0  0  0  0  0  0  0  0  0  0  0  0
    2.1434  -10.3125    0.0000 H   0  0  0  0  0  0  0  0  0  0  0  0
  1  2  1  0  0  0  0
  2  3  4  0  0  0  0
  3  4  4  0  0  0  0
  4  5  4  0  0  0  0
  5  6  1  0  0  0  0
  6  7  1  0  0  0  0
  7  8  2  0  0  0  0
  7  9  1  0  0  0  0
  9 10  1  0  0  0  0
 10 11  2  0  0  0  0
 10 12  1  0  0  0  0
 12 13  1  0  0  0  0
 13 14  1  0  0  0  0
 14 15  1  0  0  0  0
 15 16  1  0  0  0  0
 16 17  1  0  0  0  0
 17 18  1  0  0  0  0
 18 19  1  0  0  0  0
 19 20  1  0  0  0  0
 20 21  2  0  0  0  0
 20 22  1  0  0  0  0
 22 23  1  0  0  0  0
 23 24  2  0  0  0  0
 23 25  1  0  0  0  0
 25 26  1  0  0  0  0
 26 27  4  0  0  0  0
 27 28  4  0  0  0  0
 28 29  4  0  0  0  0
 29 30  1  0  0  0  0
 29 31  4  0  0  0  0
 31 32  4  0  0  0  0
 26 32  4  0  0  0  0
  5 33  4  0  0  0  0
 33 34  4  0  0  0  0
  2 34  4  0  0  0  0
  3 35  1  0  0  0  0
  4 36  1  0  0  0  0
  6 37  1  0  0  0  0
  8 38  1  0  0  0  0
  9 39  1  0  0  0  0
 11 40  1  0  0  0  0
 12 41  1  0  0  0  0
 13 42  1  0  0  0  0
 13 43  1  0  0  0  0
 14 44  1  0  0  0  0
 14 45  1  0  0  0  0
 15 46  1  0  0  0  0
 15 47  1  0  0  0  0
 16 48  1  0  0  0  0
 16 49  1  0  0  0  0
 17 50  1  0  0  0  0
 17 51  1  0  0  0  0
 18 52  1  0  0  0  0
 18 53  1  0  0  0  0
 19 54  1  0  0  0  0
 21 55  1  0  0  0  0
 22 56  1  0  0  0  0
 24 57  1  0  0  0  0
 25 58  1  0  0  0  0
 27 59  1  0  0  0  0
 28 60  1  0  0  0  0
 31 61  1  0  0  0  0
 32 62  1  0  0  0  0
 33 63  1  0  0  0  0
 34 64  1  0  0  0  0
M  END
>  <InChIKey>
GHXZTYHSJHQHIJ-UHFFFAOYSA-N

>  <UN GHS>
2A

>  <CASRN>
18472-51-0

> <Outcome>
1

>  <Index>
223

>  <StandardizerResult>
Dearomatize (ID: Dearomatize)
Clear Stereo (ID: ClearStereo)
Wedge Clean (ID: WedgeClean)
Mesomerize (ID: Mesomerize)
Tautomerize (ID: Tautomerize)
Aromatize (ID: Aromatize)
Add Explicit Hydrogens (ID: AddExplicitH)
Neutralize (ID: Neutralize)
Clean 2D (ID: Clean2D)

> <knn Distance>


> <CpId>
223

$$$$
224
  Mrv1532301301811342D          

 15 15  0  0  0  0            999 V2000
    0.5678    1.9393    0.0000 C   0  0  0  0  0  0  0  0  0  0  0  0
    0.5678    1.1143    0.0000 C   0  0  0  0  0  0  0  0  0  0  0  0
    1.2352    0.6294    0.0000 N   0  0  0  0  0  0  0  0  0  0  0  0
    0.9803   -0.1553    0.0000 C   0  0  0  0  0  0  0  0  0  0  0  0
    0.1553   -0.1553    0.0000 C   0  0  0  0  0  0  0  0  0  0  0  0
   -0.0997    0.6294    0.0000 N   0  0  0  0  0  0  0  0  0  0  0  0
   -0.8843    0.8843    0.0000 C   0  0  0  0  0  0  0  0  0  0  0  0
    1.3928    1.9393    0.0000 H   0  0  0  0  0  0  0  0  0  0  0  0
    0.5678    2.7643    0.0000 H   0  0  0  0  0  0  0  0  0  0  0  0
   -0.2572    1.9393    0.0000 H   0  0  0  0  0  0  0  0  0  0  0  0
    1.4652   -0.8227    0.0000 H   0  0  0  0  0  0  0  0  0  0  0  0
   -0.3296   -0.8227    0.0000 H   0  0  0  0  0  0  0  0  0  0  0  0
   -0.6293    1.6689    0.0000 H   0  0  0  0  0  0  0  0  0  0  0  0
   -1.6689    1.1392    0.0000 H   0  0  0  0  0  0  0  0  0  0  0  0
   -1.1392    0.0997    0.0000 H   0  0  0  0  0  0  0  0  0  0  0  0
  1  2  1  0  0  0  0
  2  3  4  0  0  0  0
  3  4  4  0  0  0  0
  4  5  4  0  0  0  0
  5  6  4  0  0  0  0
  2  6  4  0  0  0  0
  6  7  1  0  0  0  0
  1  8  1  0  0  0  0
  1  9  1  0  0  0  0
  1 10  1  0  0  0  0
  4 11  1  0  0  0  0
  5 12  1  0  0  0  0
  7 13  1  0  0  0  0
  7 14  1  0  0  0  0
  7 15  1  0  0  0  0
M  END
>  <InChIKey>
GIWQSPITLQVMSG-UHFFFAOYSA-N

>  <UN GHS>
1

>  <CASRN>
1739-84-0

> <Outcome>
1

>  <Index>
224

>  <StandardizerResult>
Dearomatize (ID: Dearomatize)
Clear Stereo (ID: ClearStereo)
Wedge Clean (ID: WedgeClean)
Mesomerize (ID: Mesomerize)
Tautomerize (ID: Tautomerize)
Aromatize (ID: Aromatize)
Add Explicit Hydrogens (ID: AddExplicitH)
Neutralize (ID: Neutralize)
Clean 2D (ID: Clean2D)

> <knn Distance>


> <CpId>
224

$$$$
229
  Mrv1532301301811342D          

 29 28  0  0  0  0            999 V2000
    3.7036    2.1312    0.0000 C   0  0  0  0  0  0  0  0  0  0  0  0
    3.2911    1.4168    0.0000 C   0  0  0  0  0  0  0  0  0  0  0  0
    3.7036    0.7023    0.0000 C   0  0  0  0  0  0  0  0  0  0  0  0
    2.4661    1.4168    0.0000 C   0  0  0  0  0  0  0  0  0  0  0  0
    2.0536    0.7023    0.0000 C   0  0  0  0  0  0  0  0  0  0  0  0
    1.2286    0.7023    0.0000 C   0  0  0  0  0  0  0  0  0  0  0  0
    0.8161   -0.0122    0.0000 C   0  0  0  0  0  0  0  0  0  0  0  0
    1.2286   -0.7267    0.0000 C   0  0  0  0  0  0  0  0  0  0  0  0
   -0.0089   -0.0122    0.0000 C   0  0  0  0  0  0  0  0  0  0  0  0
   -0.4214   -0.7267    0.0000 C   0  0  0  0  0  0  0  0  0  0  0  0
   -0.0089   -1.4411    0.0000 O   0  0  0  0  0  0  0  0  0  0  0  0
    4.4181    1.7187    0.0000 H   0  0  0  0  0  0  0  0  0  0  0  0
    4.1161    2.8457    0.0000 H   0  0  0  0  0  0  0  0  0  0  0  0
    2.9891    2.5437    0.0000 H   0  0  0  0  0  0  0  0  0  0  0  0
    2.9891    0.2898    0.0000 H   0  0  0  0  0  0  0  0  0  0  0  0
    4.1161   -0.0122    0.0000 H   0  0  0  0  0  0  0  0  0  0  0  0
    4.4181    1.1148    0.0000 H   0  0  0  0  0  0  0  0  0  0  0  0
    2.0536    2.1312    0.0000 H   0  0  0  0  0  0  0  0  0  0  0  0
    2.1016   -0.1213    0.0000 H   0  0  0  0  0  0  0  0  0  0  0  0
    2.7429    0.2489    0.0000 H   0  0  0  0  0  0  0  0  0  0  0  0
    1.1806    1.5259    0.0000 H   0  0  0  0  0  0  0  0  0  0  0  0
    0.5393    1.1556    0.0000 H   0  0  0  0  0  0  0  0  0  0  0  0
    0.5141   -1.1392    0.0000 H   0  0  0  0  0  0  0  0  0  0  0  0
    1.6411   -1.4411    0.0000 H   0  0  0  0  0  0  0  0  0  0  0  0
    1.9431   -0.3142    0.0000 H   0  0  0  0  0  0  0  0  0  0  0  0
   -0.4214    0.7023    0.0000 H   0  0  0  0  0  0  0  0  0  0  0  0
   -1.1586   -0.3564    0.0000 H   0  0  0  0  0  0  0  0  0  0  0  0
   -1.1586   -1.0969    0.0000 H   0  0  0  0  0  0  0  0  0  0  0  0
   -0.2224   -2.2380    0.0000 H   0  0  0  0  0  0  0  0  0  0  0  0
  1  2  1  0  0  0  0
  2  3  1  0  0  0  0
  2  4  2  0  0  0  0
  4  5  1  0  0  0  0
  5  6  1  0  0  0  0
  6  7  1  0  0  0  0
  7  8  1  0  0  0  0
  7  9  2  0  0  0  0
  9 10  1  4  0  0  0
 10 11  1  0  0  0  0
  1 12  1  0  0  0  0
  1 13  1  0  0  0  0
  1 14  1  0  0  0  0
  3 15  1  0  0  0  0
  3 16  1  0  0  0  0
  3 17  1  0  0  0  0
  4 18  1  0  0  0  0
  5 19  1  0  0  0  0
  5 20  1  0  0  0  0
  6 21  1  0  0  0  0
  6 22  1  0  0  0  0
  8 23  1  0  0  0  0
  8 24  1  0  0  0  0
  8 25  1  0  0  0  0
  9 26  1  0  0  0  0
 10 27  1  0  0  0  0
 10 28  1  0  0  0  0
 11 29  1  0  0  0  0
M  END
>  <InChIKey>
GLZPCOQZEFWAFX-UHFFFAOYSA-N

>  <UN GHS>
2A

>  <CASRN>
106-25-2

> <Outcome>
1

>  <Index>
229

>  <StandardizerResult>
Clear Stereo (ID: ClearStereo)
Wedge Clean (ID: WedgeClean)
Mesomerize (ID: Mesomerize)
Tautomerize (ID: Tautomerize)
Add Explicit Hydrogens (ID: AddExplicitH)
Neutralize (ID: Neutralize)
Clean 2D (ID: Clean2D)

> <knn Distance>


> <CpId>
229

$$$$
235
  Mrv1532301301811342D          

 22 22  0  0  0  0            999 V2000
   -2.1434    1.2367    0.0000 Br  0  0  0  0  0  0  0  0  0  0  0  0
   -1.4289    1.6492    0.0000 C   0  0  0  0  0  0  0  0  0  0  0  0
   -1.4289    2.4742    0.0000 C   0  0  0  0  0  0  0  0  0  0  0  0
   -2.1434    2.8867    0.0000 Br  0  0  0  0  0  0  0  0  0  0  0  0
   -0.7145    2.8867    0.0000 C   0  0  0  0  0  0  0  0  0  0  0  0
   -0.7145    3.7117    0.0000 Br  0  0  0  0  0  0  0  0  0  0  0  0
    0.0000    2.4742    0.0000 C   0  0  0  0  0  0  0  0  0  0  0  0
    0.7145    2.8867    0.0000 C   0  0  0  0  0  0  0  0  0  0  0  0
    1.4290    2.4742    0.0000 O   0  0  0  0  0  0  0  0  0  0  0  0
    2.1434    2.8867    0.0000 C   0  0  0  0  0  0  0  0  0  0  0  0
    2.1434    3.7117    0.0000 O   0  0  0  0  0  0  0  0  0  0  0  0
    2.8579    2.4742    0.0000 C   0  0  0  0  0  0  0  0  0  0  0  0
    3.5724    2.8867    0.0000 C   0  0  0  0  0  0  0  0  0  0  0  0
    0.0000    1.6492    0.0000 C   0  0  0  0  0  0  0  0  0  0  0  0
    0.7145    1.2367    0.0000 Br  0  0  0  0  0  0  0  0  0  0  0  0
   -0.7145    1.2367    0.0000 C   0  0  0  0  0  0  0  0  0  0  0  0
   -0.7145    0.4117    0.0000 Br  0  0  0  0  0  0  0  0  0  0  0  0
    1.0847    3.6239    0.0000 H   0  0  0  0  0  0  0  0  0  0  0  0
    0.3442    3.6239    0.0000 H   0  0  0  0  0  0  0  0  0  0  0  0
    2.8579    1.6492    0.0000 H   0  0  0  0  0  0  0  0  0  0  0  0
    4.2868    2.4742    0.0000 H   0  0  0  0  0  0  0  0  0  0  0  0
    3.5724    3.7117    0.0000 H   0  0  0  0  0  0  0  0  0  0  0  0
  1  2  1  0  0  0  0
  2  3  4  0  0  0  0
  3  4  1  0  0  0  0
  3  5  4  0  0  0  0
  5  6  1  0  0  0  0
  5  7  4  0  0  0  0
  7  8  1  0  0  0  0
  8  9  1  0  0  0  0
  9 10  1  0  0  0  0
 10 11  2  0  0  0  0
 10 12  1  0  0  0  0
 12 13  2  0  0  0  0
  7 14  4  0  0  0  0
 14 15  1  0  0  0  0
 14 16  4  0  0  0  0
  2 16  4  0  0  0  0
 16 17  1  0  0  0  0
  8 18  1  0  0  0  0
  8 19  1  0  0  0  0
 12 20  1  0  0  0  0
 13 21  1  0  0  0  0
 13 22  1  0  0  0  0
M  END
>  <InChIKey>
GRKDVZMVHOLESV-UHFFFAOYSA-N

>  <UN GHS>
2A

>  <CASRN>
59447-55-1

> <Outcome>
1

>  <Index>
235

>  <StandardizerResult>
Dearomatize (ID: Dearomatize)
Clear Stereo (ID: ClearStereo)
Wedge Clean (ID: WedgeClean)
Mesomerize (ID: Mesomerize)
Tautomerize (ID: Tautomerize)
Aromatize (ID: Aromatize)
Add Explicit Hydrogens (ID: AddExplicitH)
Neutralize (ID: Neutralize)
Clean 2D (ID: Clean2D)

> <knn Distance>


> <CpId>
235

$$$$
238
  Mrv1532301301811342D          

 21 21  0  0  0  0            999 V2000
    0.4799   -1.1021    0.0000 C   0  0  0  0  0  0  0  0  0  0  0  0
    0.4799   -0.2771    0.0000 N   0  0  0  0  0  0  0  0  0  0  0  0
   -0.2345    0.1354    0.0000 C   0  0  0  0  0  0  0  0  0  0  0  0
   -0.2345    0.9604    0.0000 C   0  0  0  0  0  0  0  0  0  0  0  0
    0.4799    1.3729    0.0000 C   0  0  0  0  0  0  0  0  0  0  0  0
    1.1944    0.9604    0.0000 N   0  0  0  0  0  0  0  0  0  0  0  0
    1.9089    1.3729    0.0000 C   0  0  0  0  0  0  0  0  0  0  0  0
    1.1944    0.1354    0.0000 C   0  0  0  0  0  0  0  0  0  0  0  0
    1.9089   -0.2771    0.0000 O   0  0  0  0  0  0  0  0  0  0  0  0
   -0.3451   -1.1021    0.0000 H   0  0  0  0  0  0  0  0  0  0  0  0
    0.4799   -1.9271    0.0000 H   0  0  0  0  0  0  0  0  0  0  0  0
    1.3049   -1.1021    0.0000 H   0  0  0  0  0  0  0  0  0  0  0  0
   -1.0581    0.0874    0.0000 H   0  0  0  0  0  0  0  0  0  0  0  0
   -0.6879   -0.5539    0.0000 H   0  0  0  0  0  0  0  0  0  0  0  0
   -0.6879    1.6497    0.0000 H   0  0  0  0  0  0  0  0  0  0  0  0
   -1.0581    1.0084    0.0000 H   0  0  0  0  0  0  0  0  0  0  0  0
    0.8502    2.1102    0.0000 H   0  0  0  0  0  0  0  0  0  0  0  0
    0.1097    2.1102    0.0000 H   0  0  0  0  0  0  0  0  0  0  0  0
    2.3214    0.6584    0.0000 H   0  0  0  0  0  0  0  0  0  0  0  0
    2.6233    1.7854    0.0000 H   0  0  0  0  0  0  0  0  0  0  0  0
    1.4964    2.0874    0.0000 H   0  0  0  0  0  0  0  0  0  0  0  0
  1  2  1  0  0  0  0
  2  3  1  0  0  0  0
  3  4  1  0  0  0  0
  4  5  1  0  0  0  0
  5  6  1  0  0  0  0
  6  7  1  0  0  0  0
  6  8  1  0  0  0  0
  2  8  1  0  0  0  0
  8  9  2  0  0  0  0
  1 10  1  0  0  0  0
  1 11  1  0  0  0  0
  1 12  1  0  0  0  0
  3 13  1  0  0  0  0
  3 14  1  0  0  0  0
  4 15  1  0  0  0  0
  4 16  1  0  0  0  0
  5 17  1  0  0  0  0
  5 18  1  0  0  0  0
  7 19  1  0  0  0  0
  7 20  1  0  0  0  0
  7 21  1  0  0  0  0
M  END
>  <InChIKey>
GUVUOGQBMYCBQP-UHFFFAOYSA-N

>  <UN GHS>
1

>  <CASRN>
7226-23-5

> <Outcome>
1

>  <Index>
238

>  <StandardizerResult>
Clear Stereo (ID: ClearStereo)
Wedge Clean (ID: WedgeClean)
Mesomerize (ID: Mesomerize)
Tautomerize (ID: Tautomerize)
Add Explicit Hydrogens (ID: AddExplicitH)
Neutralize (ID: Neutralize)
Clean 2D (ID: Clean2D)

> <knn Distance>


> <CpId>
238

$$$$
241
  Mrv1532301301811342D          

 19 18  0  0  0  0            999 V2000
    1.7605    1.8414    0.0000 N   0  0  0  0  0  0  0  0  0  0  0  0
    2.4750    1.4289    0.0000 C   0  0  0  0  0  0  0  0  0  0  0  0
    3.1895    1.8414    0.0000 C   0  0  0  0  0  0  0  0  0  0  0  0
    3.9039    1.4289    0.0000 O   0  0  0  0  0  0  0  0  0  0  0  0
    4.6184    1.8414    0.0000 C   0  0  0  0  0  0  0  0  0  0  0  0
    5.3329    1.4289    0.0000 C   0  0  0  0  0  0  0  0  0  0  0  0
    6.0474    1.8414    0.0000 N   0  0  0  0  0  0  0  0  0  0  0  0
    1.7605    2.6664    0.0000 H   0  0  0  0  0  0  0  0  0  0  0  0
    1.0461    1.4289    0.0000 H   0  0  0  0  0  0  0  0  0  0  0  0
    2.1047    0.6917    0.0000 H   0  0  0  0  0  0  0  0  0  0  0  0
    2.8453    0.6917    0.0000 H   0  0  0  0  0  0  0  0  0  0  0  0
    3.5597    2.5786    0.0000 H   0  0  0  0  0  0  0  0  0  0  0  0
    2.8192    2.5786    0.0000 H   0  0  0  0  0  0  0  0  0  0  0  0
    4.9887    2.5786    0.0000 H   0  0  0  0  0  0  0  0  0  0  0  0
    4.2482    2.5786    0.0000 H   0  0  0  0  0  0  0  0  0  0  0  0
    4.9626    0.6917    0.0000 H   0  0  0  0  0  0  0  0  0  0  0  0
    5.7032    0.6917    0.0000 H   0  0  0  0  0  0  0  0  0  0  0  0
    6.7618    1.4289    0.0000 H   0  0  0  0  0  0  0  0  0  0  0  0
    6.0474    2.6664    0.0000 H   0  0  0  0  0  0  0  0  0  0  0  0
  1  2  1  0  0  0  0
  2  3  1  0  0  0  0
  3  4  1  0  0  0  0
  4  5  1  0  0  0  0
  5  6  1  0  0  0  0
  6  7  1  0  0  0  0
  1  8  1  0  0  0  0
  1  9  1  0  0  0  0
  2 10  1  0  0  0  0
  2 11  1  0  0  0  0
  3 12  1  0  0  0  0
  3 13  1  0  0  0  0
  5 14  1  0  0  0  0
  5 15  1  0  0  0  0
  6 16  1  0  0  0  0
  6 17  1  0  0  0  0
  7 18  1  0  0  0  0
  7 19  1  0  0  0  0
M  END
>  <InChIKey>
GXVUZYLYWKWJIM-UHFFFAOYSA-N

>  <UN GHS>
1

>  <CASRN>
2752-17-2

> <Outcome>
1

>  <Index>
241

>  <StandardizerResult>
Clear Stereo (ID: ClearStereo)
Wedge Clean (ID: WedgeClean)
Mesomerize (ID: Mesomerize)
Tautomerize (ID: Tautomerize)
Add Explicit Hydrogens (ID: AddExplicitH)
Neutralize (ID: Neutralize)
Clean 2D (ID: Clean2D)

> <knn Distance>


> <CpId>
241

$$$$
243
  Mrv1532301301811342D          

 35 34  0  0  0  0            999 V2000
    5.4730    3.9854    0.0000 C   0  0  0  0  0  0  0  0  0  0  0  0
    6.1875    3.5729    0.0000 C   0  0  0  0  0  0  0  0  0  0  0  0
    6.9020    3.9854    0.0000 C   0  0  0  0  0  0  0  0  0  0  0  0
    7.6164    3.5729    0.0000 C   0  0  0  0  0  0  0  0  0  0  0  0
    8.3309    3.9854    0.0000 C   0  0  0  0  0  0  0  0  0  0  0  0
    9.0454    3.5729    0.0000 C   0  0  0  0  0  0  0  0  0  0  0  0
    9.7598    3.9854    0.0000 O   0  0  0  0  0  0  0  0  0  0  0  0
   10.4743    3.5729    0.0000 C   0  0  0  0  0  0  0  0  0  0  0  0
   11.1888    3.9854    0.0000 C   0  0  0  0  0  0  0  0  0  0  0  0
   11.9033    3.5729    0.0000 O   0  0  0  0  0  0  0  0  0  0  0  0
   12.6177    3.9854    0.0000 C   0  0  0  0  0  0  0  0  0  0  0  0
   13.3322    3.5729    0.0000 C   0  0  0  0  0  0  0  0  0  0  0  0
   14.0467    3.9854    0.0000 O   0  0  0  0  0  0  0  0  0  0  0  0
    5.8855    4.6999    0.0000 H   0  0  0  0  0  0  0  0  0  0  0  0
    4.7585    4.3979    0.0000 H   0  0  0  0  0  0  0  0  0  0  0  0
    5.0605    3.2709    0.0000 H   0  0  0  0  0  0  0  0  0  0  0  0
    5.8172    2.8357    0.0000 H   0  0  0  0  0  0  0  0  0  0  0  0
    6.5577    2.8357    0.0000 H   0  0  0  0  0  0  0  0  0  0  0  0
    7.2722    4.7226    0.0000 H   0  0  0  0  0  0  0  0  0  0  0  0
    6.5317    4.7226    0.0000 H   0  0  0  0  0  0  0  0  0  0  0  0
    7.2462    2.8357    0.0000 H   0  0  0  0  0  0  0  0  0  0  0  0
    7.9867    2.8357    0.0000 H   0  0  0  0  0  0  0  0  0  0  0  0
    8.7012    4.7226    0.0000 H   0  0  0  0  0  0  0  0  0  0  0  0
    7.9606    4.7226    0.0000 H   0  0  0  0  0  0  0  0  0  0  0  0
    8.6751    2.8357    0.0000 H   0  0  0  0  0  0  0  0  0  0  0  0
    9.4156    2.8357    0.0000 H   0  0  0  0  0  0  0  0  0  0  0  0
   10.1041    2.8357    0.0000 H   0  0  0  0  0  0  0  0  0  0  0  0
   10.8446    2.8357    0.0000 H   0  0  0  0  0  0  0  0  0  0  0  0
   11.5590    4.7226    0.0000 H   0  0  0  0  0  0  0  0  0  0  0  0
   10.8185    4.7226    0.0000 H   0  0  0  0  0  0  0  0  0  0  0  0
   12.9880    4.7226    0.0000 H   0  0  0  0  0  0  0  0  0  0  0  0
   12.2475    4.7226    0.0000 H   0  0  0  0  0  0  0  0  0  0  0  0
   12.9619    2.8357    0.0000 H   0  0  0  0  0  0  0  0  0  0  0  0
   13.7025    2.8357    0.0000 H   0  0  0  0  0  0  0  0  0  0  0  0
   14.7611    3.5729    0.0000 H   0  0  0  0  0  0  0  0  0  0  0  0
  1  2  1  0  0  0  0
  2  3  1  0  0  0  0
  3  4  1  0  0  0  0
  4  5  1  0  0  0  0
  5  6  1  0  0  0  0
  6  7  1  0  0  0  0
  7  8  1  0  0  0  0
  8  9  1  0  0  0  0
  9 10  1  0  0  0  0
 10 11  1  0  0  0  0
 11 12  1  0  0  0  0
 12 13  1  0  0  0  0
  1 14  1  0  0  0  0
  1 15  1  0  0  0  0
  1 16  1  0  0  0  0
  2 17  1  0  0  0  0
  2 18  1  0  0  0  0
  3 19  1  0  0  0  0
  3 20  1  0  0  0  0
  4 21  1  0  0  0  0
  4 22  1  0  0  0  0
  5 23  1  0  0  0  0
  5 24  1  0  0  0  0
  6 25  1  0  0  0  0
  6 26  1  0  0  0  0
  8 27  1  0  0  0  0
  8 28  1  0  0  0  0
  9 29  1  0  0  0  0
  9 30  1  0  0  0  0
 11 31  1  0  0  0  0
 11 32  1  0  0  0  0
 12 33  1  0  0  0  0
 12 34  1  0  0  0  0
 13 35  1  0  0  0  0
M  END
>  <InChIKey>
GZMAAYIALGURDQ-UHFFFAOYSA-N

>  <UN GHS>
1

>  <CASRN>
112-59-4

> <Outcome>
1

>  <Index>
243

>  <StandardizerResult>
Clear Stereo (ID: ClearStereo)
Wedge Clean (ID: WedgeClean)
Mesomerize (ID: Mesomerize)
Tautomerize (ID: Tautomerize)
Add Explicit Hydrogens (ID: AddExplicitH)
Neutralize (ID: Neutralize)
Clean 2D (ID: Clean2D)

> <knn Distance>


> <CpId>
243

$$$$
247
  Mrv1532301301811342D          

 23 22  0  0  0  0            999 V2000
   -0.6033   -3.3004    0.0000 C   0  0  0  0  0  0  0  0  0  0  0  0
   -0.6033   -2.4754    0.0000 C   0  0  0  0  0  0  0  0  0  0  0  0
    0.1112   -2.0629    0.0000 C   0  0  0  0  0  0  0  0  0  0  0  0
    0.1112   -1.2379    0.0000 C   0  0  0  0  0  0  0  0  0  0  0  0
    0.8257   -0.8254    0.0000 N   0  0  0  0  0  0  0  0  0  0  0  0
    0.8257   -0.0004    0.0000 P   0  0  0  0  0  0  0  0  0  0  0  0
    0.8257    0.8246    0.0000 N   0  0  0  0  0  0  0  0  0  0  0  0
    1.6507   -0.0004    0.0000 N   0  0  0  0  0  0  0  0  0  0  0  0
    0.0007   -0.0004    0.0000 S   0  0  0  0  0  0  0  0  0  0  0  0
   -1.4283   -3.3004    0.0000 H   0  0  0  0  0  0  0  0  0  0  0  0
   -0.6033   -4.1254    0.0000 H   0  0  0  0  0  0  0  0  0  0  0  0
    0.2217   -3.3004    0.0000 H   0  0  0  0  0  0  0  0  0  0  0  0
   -1.0566   -1.7861    0.0000 H   0  0  0  0  0  0  0  0  0  0  0  0
   -1.4269   -2.4274    0.0000 H   0  0  0  0  0  0  0  0  0  0  0  0
    0.5645   -2.7522    0.0000 H   0  0  0  0  0  0  0  0  0  0  0  0
    0.9348   -2.1109    0.0000 H   0  0  0  0  0  0  0  0  0  0  0  0
   -0.3421   -0.5486    0.0000 H   0  0  0  0  0  0  0  0  0  0  0  0
   -0.7124   -1.1899    0.0000 H   0  0  0  0  0  0  0  0  0  0  0  0
    1.5401   -1.2379    0.0000 H   0  0  0  0  0  0  0  0  0  0  0  0
    1.5401    1.2371    0.0000 H   0  0  0  0  0  0  0  0  0  0  0  0
    0.1112    1.2371    0.0000 H   0  0  0  0  0  0  0  0  0  0  0  0
    2.0632   -0.7149    0.0000 H   0  0  0  0  0  0  0  0  0  0  0  0
    2.0632    0.7141    0.0000 H   0  0  0  0  0  0  0  0  0  0  0  0
  1  2  1  0  0  0  0
  2  3  1  0  0  0  0
  3  4  1  0  0  0  0
  4  5  1  0  0  0  0
  5  6  1  0  0  0  0
  6  7  1  0  0  0  0
  6  8  1  0  0  0  0
  6  9  2  0  0  0  0
  1 10  1  0  0  0  0
  1 11  1  0  0  0  0
  1 12  1  0  0  0  0
  2 13  1  0  0  0  0
  2 14  1  0  0  0  0
  3 15  1  0  0  0  0
  3 16  1  0  0  0  0
  4 17  1  0  0  0  0
  4 18  1  0  0  0  0
  5 19  1  0  0  0  0
  7 20  1  0  0  0  0
  7 21  1  0  0  0  0
  8 22  1  0  0  0  0
  8 23  1  0  0  0  0
M  END
>  <InChIKey>
HEPPIYNOUFWEPP-UHFFFAOYSA-N

>  <UN GHS>
1

>  <CASRN>
94317-64-3

> <Outcome>
1

>  <Index>
247

>  <StandardizerResult>
Clear Stereo (ID: ClearStereo)
Wedge Clean (ID: WedgeClean)
Mesomerize (ID: Mesomerize)
Tautomerize (ID: Tautomerize)
Add Explicit Hydrogens (ID: AddExplicitH)
Neutralize (ID: Neutralize)
Clean 2D (ID: Clean2D)

> <knn Distance>


> <CpId>
247

$$$$
249
  Mrv1532301301811342D          

 19 18  0  0  0  0            999 V2000
    1.0461    1.4289    0.0000 C   0  0  0  0  0  0  0  0  0  0  0  0
    1.7605    1.8414    0.0000 O   0  0  0  0  0  0  0  0  0  0  0  0
    2.4750    1.4289    0.0000 C   0  0  0  0  0  0  0  0  0  0  0  0
    3.1895    1.8414    0.0000 C   0  0  0  0  0  0  0  0  0  0  0  0
    3.9040    1.4289    0.0000 O   0  0  0  0  0  0  0  0  0  0  0  0
    4.6184    1.8414    0.0000 C   0  0  0  0  0  0  0  0  0  0  0  0
    4.6184    2.6664    0.0000 O   0  0  0  0  0  0  0  0  0  0  0  0
    5.3329    1.4289    0.0000 C   0  0  0  0  0  0  0  0  0  0  0  0
    6.0474    1.8414    0.0000 C   0  0  0  0  0  0  0  0  0  0  0  0
    0.6336    2.1434    0.0000 H   0  0  0  0  0  0  0  0  0  0  0  0
    0.3316    1.0164    0.0000 H   0  0  0  0  0  0  0  0  0  0  0  0
    1.4586    0.7144    0.0000 H   0  0  0  0  0  0  0  0  0  0  0  0
    2.1048    0.6917    0.0000 H   0  0  0  0  0  0  0  0  0  0  0  0
    2.8453    0.6917    0.0000 H   0  0  0  0  0  0  0  0  0  0  0  0
    3.5598    2.5786    0.0000 H   0  0  0  0  0  0  0  0  0  0  0  0
    2.8192    2.5786    0.0000 H   0  0  0  0  0  0  0  0  0  0  0  0
    5.3329    0.6039    0.0000 H   0  0  0  0  0  0  0  0  0  0  0  0
    6.7618    1.4289    0.0000 H   0  0  0  0  0  0  0  0  0  0  0  0
    6.0474    2.6664    0.0000 H   0  0  0  0  0  0  0  0  0  0  0  0
  1  2  1  0  0  0  0
  2  3  1  0  0  0  0
  3  4  1  0  0  0  0
  4  5  1  0  0  0  0
  5  6  1  0  0  0  0
  6  7  2  0  0  0  0
  6  8  1  0  0  0  0
  8  9  2  0  0  0  0
  1 10  1  0  0  0  0
  1 11  1  0  0  0  0
  1 12  1  0  0  0  0
  3 13  1  0  0  0  0
  3 14  1  0  0  0  0
  4 15  1  0  0  0  0
  4 16  1  0  0  0  0
  8 17  1  0  0  0  0
  9 18  1  0  0  0  0
  9 19  1  0  0  0  0
M  END
>  <InChIKey>
HFCUBKYHMMPGBY-UHFFFAOYSA-N

>  <UN GHS>
1

>  <CASRN>
3121-61-7

> <Outcome>
1

>  <Index>
249

>  <StandardizerResult>
Clear Stereo (ID: ClearStereo)
Wedge Clean (ID: WedgeClean)
Mesomerize (ID: Mesomerize)
Tautomerize (ID: Tautomerize)
Add Explicit Hydrogens (ID: AddExplicitH)
Neutralize (ID: Neutralize)
Clean 2D (ID: Clean2D)

> <knn Distance>


> <CpId>
249

$$$$
254
  Mrv1532301301811342D          

  7  6  0  0  0  0            999 V2000
    2.0625   -0.7145    0.0000 O   0  0  0  0  0  0  0  0  0  0  0  0
    1.2375   -0.7145    0.0000 C   0  0  0  0  0  0  0  0  0  0  0  0
    0.8250   -1.4289    0.0000 O   0  0  0  0  0  0  0  0  0  0  0  0
    0.8250   -0.0000    0.0000 C   0  0  0  0  0  0  0  0  0  0  0  0
    0.0000   -0.0000    0.0000 O   0  0  0  0  0  0  0  0  0  0  0  0
    2.4750   -1.4289    0.0000 H   0  0  0  0  0  0  0  0  0  0  0  0
    1.2375    0.7145    0.0000 H   0  0  0  0  0  0  0  0  0  0  0  0
  1  2  1  0  0  0  0
  2  3  2  0  0  0  0
  2  4  1  0  0  0  0
  4  5  2  0  0  0  0
  1  6  1  0  0  0  0
  4  7  1  0  0  0  0
M  END
>  <InChIKey>
HHLFWLYXYJOTON-UHFFFAOYSA-N

>  <UN GHS>
1

>  <CASRN>
298-12-4

> <Outcome>
1

>  <Index>
254

>  <StandardizerResult>
Clear Stereo (ID: ClearStereo)
Wedge Clean (ID: WedgeClean)
Mesomerize (ID: Mesomerize)
Tautomerize (ID: Tautomerize)
Add Explicit Hydrogens (ID: AddExplicitH)
Neutralize (ID: Neutralize)
Clean 2D (ID: Clean2D)

> <knn Distance>


> <CpId>
254

$$$$
256
  Mrv1532301301811342D          

 20 21  0  0  0  0            999 V2000
    0.7145   -0.4125    0.0000 O   0  0  0  0  0  0  0  0  0  0  0  0
    0.7145   -1.2375    0.0000 C   0  0  0  0  0  0  0  0  0  0  0  0
    1.3819   -1.7224    0.0000 C   0  0  0  0  0  0  0  0  0  0  0  0
    1.1270   -2.5070    0.0000 C   0  0  0  0  0  0  0  0  0  0  0  0
    0.3020   -2.5070    0.0000 C   0  0  0  0  0  0  0  0  0  0  0  0
   -0.1829   -3.1745    0.0000 O   0  0  0  0  0  0  0  0  0  0  0  0
    0.0470   -1.7224    0.0000 N   0  0  0  0  0  0  0  0  0  0  0  0
   -0.7376   -1.4675    0.0000 C   0  0  0  0  0  0  0  0  0  0  0  0
   -1.3507   -2.0195    0.0000 C   0  0  0  0  0  0  0  0  0  0  0  0
   -2.1353   -1.7646    0.0000 C   0  0  0  0  0  0  0  0  0  0  0  0
   -2.3068   -0.9576    0.0000 C   0  0  0  0  0  0  0  0  0  0  0  0
   -1.6937   -0.4056    0.0000 C   0  0  0  0  0  0  0  0  0  0  0  0
   -0.9091   -0.6605    0.0000 C   0  0  0  0  0  0  0  0  0  0  0  0
    2.1665   -1.4675    0.0000 H   0  0  0  0  0  0  0  0  0  0  0  0
    1.6119   -3.1745    0.0000 H   0  0  0  0  0  0  0  0  0  0  0  0
   -1.1791   -2.8265    0.0000 H   0  0  0  0  0  0  0  0  0  0  0  0
   -2.7484   -2.3166    0.0000 H   0  0  0  0  0  0  0  0  0  0  0  0
   -3.0914   -0.7027    0.0000 H   0  0  0  0  0  0  0  0  0  0  0  0
   -1.8653    0.4014    0.0000 H   0  0  0  0  0  0  0  0  0  0  0  0
   -0.2960   -0.1085    0.0000 H   0  0  0  0  0  0  0  0  0  0  0  0
  1  2  2  0  0  0  0
  2  3  1  0  0  0  0
  3  4  2  0  0  0  0
  4  5  1  0  0  0  0
  5  6  2  0  0  0  0
  5  7  1  0  0  0  0
  2  7  1  0  0  0  0
  7  8  1  0  0  0  0
  8  9  4  0  0  0  0
  9 10  4  0  0  0  0
 10 11  4  0  0  0  0
 11 12  4  0  0  0  0
 12 13  4  0  0  0  0
  8 13  4  0  0  0  0
  3 14  1  0  0  0  0
  4 15  1  0  0  0  0
  9 16  1  0  0  0  0
 10 17  1  0  0  0  0
 11 18  1  0  0  0  0
 12 19  1  0  0  0  0
 13 20  1  0  0  0  0
M  END
>  <InChIKey>
HIDBROSJWZYGSZ-UHFFFAOYSA-N

>  <UN GHS>
1

>  <CASRN>
941-69-5

> <Outcome>
1

>  <Index>
256

>  <StandardizerResult>
Dearomatize (ID: Dearomatize)
Clear Stereo (ID: ClearStereo)
Wedge Clean (ID: WedgeClean)
Mesomerize (ID: Mesomerize)
Tautomerize (ID: Tautomerize)
Aromatize (ID: Aromatize)
Add Explicit Hydrogens (ID: AddExplicitH)
Neutralize (ID: Neutralize)
Clean 2D (ID: Clean2D)

> <knn Distance>


> <CpId>
256

$$$$
259
  Mrv1532301301811342D          

 27 28  0  0  0  0            999 V2000
    2.1283   -0.4358    0.0000 N   0  0  0  0  0  0  0  0  0  0  0  0
    2.1283   -1.2608    0.0000 C   0  0  0  0  0  0  0  0  0  0  0  0
    2.8428   -1.6733    0.0000 C   0  0  0  0  0  0  0  0  0  0  0  0
    2.8428   -2.4983    0.0000 C   0  0  0  0  0  0  0  0  0  0  0  0
    2.1283   -2.9108    0.0000 C   0  0  0  0  0  0  0  0  0  0  0  0
    2.1283   -3.7358    0.0000 O   0  0  0  0  0  0  0  0  0  0  0  0
    1.4138   -4.1483    0.0000 C   0  0  0  0  0  0  0  0  0  0  0  0
    1.4138   -4.9733    0.0000 C   0  0  0  0  0  0  0  0  0  0  0  0
    0.6994   -5.3858    0.0000 C   0  0  0  0  0  0  0  0  0  0  0  0
   -0.0151   -4.9733    0.0000 C   0  0  0  0  0  0  0  0  0  0  0  0
   -0.7296   -5.3858    0.0000 N   0  0  0  0  0  0  0  0  0  0  0  0
   -0.0151   -4.1483    0.0000 C   0  0  0  0  0  0  0  0  0  0  0  0
    0.6994   -3.7358    0.0000 C   0  0  0  0  0  0  0  0  0  0  0  0
    1.4138   -2.4983    0.0000 C   0  0  0  0  0  0  0  0  0  0  0  0
    1.4138   -1.6733    0.0000 C   0  0  0  0  0  0  0  0  0  0  0  0
    2.8428   -0.0233    0.0000 H   0  0  0  0  0  0  0  0  0  0  0  0
    1.4138   -0.0233    0.0000 H   0  0  0  0  0  0  0  0  0  0  0  0
    3.5572   -1.2608    0.0000 H   0  0  0  0  0  0  0  0  0  0  0  0
    3.5572   -2.9108    0.0000 H   0  0  0  0  0  0  0  0  0  0  0  0
    2.1283   -5.3858    0.0000 H   0  0  0  0  0  0  0  0  0  0  0  0
    0.6994   -6.2108    0.0000 H   0  0  0  0  0  0  0  0  0  0  0  0
   -1.4441   -4.9733    0.0000 H   0  0  0  0  0  0  0  0  0  0  0  0
   -0.7296   -6.2108    0.0000 H   0  0  0  0  0  0  0  0  0  0  0  0
   -0.7296   -3.7358    0.0000 H   0  0  0  0  0  0  0  0  0  0  0  0
    0.6994   -2.9108    0.0000 H   0  0  0  0  0  0  0  0  0  0  0  0
    0.6994   -2.0858    0.0000 H   0  0  0  0  0  0  0  0  0  0  0  0
    1.0013   -0.9588    0.0000 H   0  0  0  0  0  0  0  0  0  0  0  0
  1  2  1  0  0  0  0
  2  3  4  0  0  0  0
  3  4  4  0  0  0  0
  4  5  4  0  0  0  0
  5  6  1  0  0  0  0
  6  7  1  0  0  0  0
  7  8  4  0  0  0  0
  8  9  4  0  0  0  0
  9 10  4  0  0  0  0
 10 11  1  0  0  0  0
 10 12  4  0  0  0  0
 12 13  4  0  0  0  0
  7 13  4  0  0  0  0
  5 14  4  0  0  0  0
 14 15  4  0  0  0  0
  2 15  4  0  0  0  0
  1 16  1  0  0  0  0
  1 17  1  0  0  0  0
  3 18  1  0  0  0  0
  4 19  1  0  0  0  0
  8 20  1  0  0  0  0
  9 21  1  0  0  0  0
 11 22  1  0  0  0  0
 11 23  1  0  0  0  0
 12 24  1  0  0  0  0
 13 25  1  0  0  0  0
 14 26  1  0  0  0  0
 15 27  1  0  0  0  0
M  END
>  <InChIKey>
HLBLWEWZXPIGSM-UHFFFAOYSA-N

>  <UN GHS>
2B

>  <CASRN>
101-80-4

> <Outcome>
1

>  <Index>
259

>  <StandardizerResult>
Dearomatize (ID: Dearomatize)
Clear Stereo (ID: ClearStereo)
Wedge Clean (ID: WedgeClean)
Mesomerize (ID: Mesomerize)
Tautomerize (ID: Tautomerize)
Aromatize (ID: Aromatize)
Add Explicit Hydrogens (ID: AddExplicitH)
Neutralize (ID: Neutralize)
Clean 2D (ID: Clean2D)

> <knn Distance>


> <CpId>
259

$$$$
260
  Mrv1532301301811342D          

 31 32  0  0  0  0            999 V2000
    2.1787   -0.4142    0.0000 N   0  0  0  0  0  0  0  0  0  0  0  0
    2.1787   -1.2392    0.0000 C   0  0  0  0  0  0  0  0  0  0  0  0
    2.8932   -1.6517    0.0000 C   0  0  0  0  0  0  0  0  0  0  0  0
    2.8932   -2.4767    0.0000 C   0  0  0  0  0  0  0  0  0  0  0  0
    2.1787   -2.8892    0.0000 C   0  0  0  0  0  0  0  0  0  0  0  0
    2.1787   -3.7142    0.0000 O   0  0  0  0  0  0  0  0  0  0  0  0
    1.4642   -2.4767    0.0000 C   0  0  0  0  0  0  0  0  0  0  0  0
    0.7497   -2.8892    0.0000 C   0  0  0  0  0  0  0  0  0  0  0  0
    0.0353   -2.4767    0.0000 C   0  0  0  0  0  0  0  0  0  0  0  0
   -0.6792   -2.8892    0.0000 C   0  0  0  0  0  0  0  0  0  0  0  0
   -1.3937   -2.4767    0.0000 C   0  0  0  0  0  0  0  0  0  0  0  0
   -2.1081   -2.8892    0.0000 N   0  0  0  0  0  0  0  0  0  0  0  0
   -1.3937   -1.6517    0.0000 C   0  0  0  0  0  0  0  0  0  0  0  0
   -0.6792   -1.2392    0.0000 C   0  0  0  0  0  0  0  0  0  0  0  0
    0.0353   -1.6517    0.0000 C   0  0  0  0  0  0  0  0  0  0  0  0
    0.7497   -1.2392    0.0000 O   0  0  0  0  0  0  0  0  0  0  0  0
    1.4642   -1.6517    0.0000 C   0  0  0  0  0  0  0  0  0  0  0  0
    2.8932   -0.0017    0.0000 H   0  0  0  0  0  0  0  0  0  0  0  0
    1.4642   -0.0017    0.0000 H   0  0  0  0  0  0  0  0  0  0  0  0
    3.6076   -1.2392    0.0000 H   0  0  0  0  0  0  0  0  0  0  0  0
    3.6076   -2.8892    0.0000 H   0  0  0  0  0  0  0  0  0  0  0  0
    1.4642   -4.1267    0.0000 H   0  0  0  0  0  0  0  0  0  0  0  0
    0.3795   -3.6265    0.0000 H   0  0  0  0  0  0  0  0  0  0  0  0
    1.1200   -3.6265    0.0000 H   0  0  0  0  0  0  0  0  0  0  0  0
   -0.6792   -3.7142    0.0000 H   0  0  0  0  0  0  0  0  0  0  0  0
   -2.8226   -2.4767    0.0000 H   0  0  0  0  0  0  0  0  0  0  0  0
   -2.1081   -3.7142    0.0000 H   0  0  0  0  0  0  0  0  0  0  0  0
   -2.1081   -1.2392    0.0000 H   0  0  0  0  0  0  0  0  0  0  0  0
   -0.6792   -0.4142    0.0000 H   0  0  0  0  0  0  0  0  0  0  0  0
    0.7497   -0.4142    0.0000 H   0  0  0  0  0  0  0  0  0  0  0  0
    1.4642   -0.8267    0.0000 H   0  0  0  0  0  0  0  0  0  0  0  0
  1  2  1  0  0  0  0
  2  3  4  0  0  0  0
  3  4  4  0  0  0  0
  4  5  4  0  0  0  0
  5  6  1  0  0  0  0
  5  7  4  0  0  0  0
  7  8  1  0  0  0  0
  8  9  1  0  0  0  0
  9 10  4  0  0  0  0
 10 11  4  0  0  0  0
 11 12  1  0  0  0  0
 11 13  4  0  0  0  0
 13 14  4  0  0  0  0
 14 15  4  0  0  0  0
  9 15  4  0  0  0  0
 15 16  1  0  0  0  0
  7 17  4  0  0  0  0
  2 17  4  0  0  0  0
  1 18  1  0  0  0  0
  1 19  1  0  0  0  0
  3 20  1  0  0  0  0
  4 21  1  0  0  0  0
  6 22  1  0  0  0  0
  8 23  1  0  0  0  0
  8 24  1  0  0  0  0
 10 25  1  0  0  0  0
 12 26  1  0  0  0  0
 12 27  1  0  0  0  0
 13 28  1  0  0  0  0
 14 29  1  0  0  0  0
 16 30  1  0  0  0  0
 17 31  1  0  0  0  0
M  END
>  <InChIKey>
HLIGKHFHQXRAOX-UHFFFAOYSA-N

>  <UN GHS>
2A

> <Outcome>
1

>  <Index>
260

>  <StandardizerResult>
Dearomatize (ID: Dearomatize)
Clear Stereo (ID: ClearStereo)
Wedge Clean (ID: WedgeClean)
Mesomerize (ID: Mesomerize)
Tautomerize (ID: Tautomerize)
Aromatize (ID: Aromatize)
Add Explicit Hydrogens (ID: AddExplicitH)
Neutralize (ID: Neutralize)
Clean 2D (ID: Clean2D)

> <knn Distance>


> <CpId>
260

$$$$
261
  Mrv1532301301811342D          

 45 44  0  0  0  0            999 V2000
    6.7105    4.6997    0.0000 C   0  0  0  0  0  0  0  0  0  0  0  0
    7.4250    4.2872    0.0000 C   0  0  0  0  0  0  0  0  0  0  0  0
    8.1395    4.6997    0.0000 C   0  0  0  0  0  0  0  0  0  0  0  0
    8.8539    4.2872    0.0000 C   0  0  0  0  0  0  0  0  0  0  0  0
    9.5684    4.6997    0.0000 C   0  0  0  0  0  0  0  0  0  0  0  0
   10.2829    4.2872    0.0000 C   0  0  0  0  0  0  0  0  0  0  0  0
   10.9974    4.6997    0.0000 C   0  0  0  0  0  0  0  0  0  0  0  0
   11.7118    4.2872    0.0000 C   0  0  0  0  0  0  0  0  0  0  0  0
   12.4263    4.6997    0.0000 C   0  0  0  0  0  0  0  0  0  0  0  0
   13.1408    4.2872    0.0000 C   0  0  0  0  0  0  0  0  0  0  0  0
   13.8552    4.6997    0.0000 C   0  0  0  0  0  0  0  0  0  0  0  0
   14.5697    4.2872    0.0000 C   0  0  0  0  0  0  0  0  0  0  0  0
   15.2842    4.6997    0.0000 C   0  0  0  0  0  0  0  0  0  0  0  0
   15.9987    4.2872    0.0000 C   0  0  0  0  0  0  0  0  0  0  0  0
   16.7131    4.6997    0.0000 O   0  0  0  0  0  0  0  0  0  0  0  0
    7.1230    5.4142    0.0000 H   0  0  0  0  0  0  0  0  0  0  0  0
    5.9961    5.1122    0.0000 H   0  0  0  0  0  0  0  0  0  0  0  0
    6.2980    3.9852    0.0000 H   0  0  0  0  0  0  0  0  0  0  0  0
    7.0547    3.5499    0.0000 H   0  0  0  0  0  0  0  0  0  0  0  0
    7.7953    3.5499    0.0000 H   0  0  0  0  0  0  0  0  0  0  0  0
    8.5097    5.4369    0.0000 H   0  0  0  0  0  0  0  0  0  0  0  0
    7.7692    5.4369    0.0000 H   0  0  0  0  0  0  0  0  0  0  0  0
    8.4837    3.5499    0.0000 H   0  0  0  0  0  0  0  0  0  0  0  0
    9.2242    3.5499    0.0000 H   0  0  0  0  0  0  0  0  0  0  0  0
    9.9387    5.4369    0.0000 H   0  0  0  0  0  0  0  0  0  0  0  0
    9.1982    5.4369    0.0000 H   0  0  0  0  0  0  0  0  0  0  0  0
    9.9126    3.5499    0.0000 H   0  0  0  0  0  0  0  0  0  0  0  0
   10.6531    3.5499    0.0000 H   0  0  0  0  0  0  0  0  0  0  0  0
   11.3676    5.4369    0.0000 H   0  0  0  0  0  0  0  0  0  0  0  0
   10.6271    5.4369    0.0000 H   0  0  0  0  0  0  0  0  0  0  0  0
   11.3416    3.5499    0.0000 H   0  0  0  0  0  0  0  0  0  0  0  0
   12.0821    3.5499    0.0000 H   0  0  0  0  0  0  0  0  0  0  0  0
   12.7966    5.4369    0.0000 H   0  0  0  0  0  0  0  0  0  0  0  0
   12.0560    5.4369    0.0000 H   0  0  0  0  0  0  0  0  0  0  0  0
   12.7705    3.5499    0.0000 H   0  0  0  0  0  0  0  0  0  0  0  0
   13.5110    3.5499    0.0000 H   0  0  0  0  0  0  0  0  0  0  0  0
   14.2255    5.4369    0.0000 H   0  0  0  0  0  0  0  0  0  0  0  0
   13.4850    5.4369    0.0000 H   0  0  0  0  0  0  0  0  0  0  0  0
   14.1995    3.5499    0.0000 H   0  0  0  0  0  0  0  0  0  0  0  0
   14.9400    3.5499    0.0000 H   0  0  0  0  0  0  0  0  0  0  0  0
   15.6544    5.4369    0.0000 H   0  0  0  0  0  0  0  0  0  0  0  0
   14.9139    5.4369    0.0000 H   0  0  0  0  0  0  0  0  0  0  0  0
   15.6284    3.5499    0.0000 H   0  0  0  0  0  0  0  0  0  0  0  0
   16.3689    3.5499    0.0000 H   0  0  0  0  0  0  0  0  0  0  0  0
   17.4276    4.2872    0.0000 H   0  0  0  0  0  0  0  0  0  0  0  0
  1  2  1  0  0  0  0
  2  3  1  0  0  0  0
  3  4  1  0  0  0  0
  4  5  1  0  0  0  0
  5  6  1  0  0  0  0
  6  7  1  0  0  0  0
  7  8  1  0  0  0  0
  8  9  1  0  0  0  0
  9 10  1  0  0  0  0
 10 11  1  0  0  0  0
 11 12  1  0  0  0  0
 12 13  1  0  0  0  0
 13 14  1  0  0  0  0
 14 15  1  0  0  0  0
  1 16  1  0  0  0  0
  1 17  1  0  0  0  0
  1 18  1  0  0  0  0
  2 19  1  0  0  0  0
  2 20  1  0  0  0  0
  3 21  1  0  0  0  0
  3 22  1  0  0  0  0
  4 23  1  0  0  0  0
  4 24  1  0  0  0  0
  5 25  1  0  0  0  0
  5 26  1  0  0  0  0
  6 27  1  0  0  0  0
  6 28  1  0  0  0  0
  7 29  1  0  0  0  0
  7 30  1  0  0  0  0
  8 31  1  0  0  0  0
  8 32  1  0  0  0  0
  9 33  1  0  0  0  0
  9 34  1  0  0  0  0
 10 35  1  0  0  0  0
 10 36  1  0  0  0  0
 11 37  1  0  0  0  0
 11 38  1  0  0  0  0
 12 39  1  0  0  0  0
 12 40  1  0  0  0  0
 13 41  1  0  0  0  0
 13 42  1  0  0  0  0
 14 43  1  0  0  0  0
 14 44  1  0  0  0  0
 15 45  1  0  0  0  0
M  END
>  <InChIKey>
HLZKNKRTKFSKGZ-UHFFFAOYSA-N

>  <UN GHS>
2A

>  <CASRN>
112-72-1

> <Outcome>
1

>  <Index>
261

>  <StandardizerResult>
Clear Stereo (ID: ClearStereo)
Wedge Clean (ID: WedgeClean)
Mesomerize (ID: Mesomerize)
Tautomerize (ID: Tautomerize)
Add Explicit Hydrogens (ID: AddExplicitH)
Neutralize (ID: Neutralize)
Clean 2D (ID: Clean2D)

> <knn Distance>


> <CpId>
261

$$$$
263
  Mrv1532301301811342D          

 66 65  0  0  0  0            999 V2000
   -0.1842   -4.6157    0.0000 C   0  0  0  0  0  0  0  0  0  0  0  0
    0.6085   -4.3869    0.0000 C   0  0  0  0  0  0  0  0  0  0  0  0
    1.2029   -4.9589    0.0000 C   0  0  0  0  0  0  0  0  0  0  0  0
    1.9956   -4.7301    0.0000 C   0  0  0  0  0  0  0  0  0  0  0  0
    2.5900   -5.3022    0.0000 C   0  0  0  0  0  0  0  0  0  0  0  0
    2.3919   -6.1030    0.0000 C   0  0  0  0  0  0  0  0  0  0  0  0
    2.9864   -6.6750    0.0000 C   0  0  0  0  0  0  0  0  0  0  0  0
    3.3827   -5.0733    0.0000 C   0  0  0  0  0  0  0  0  0  0  0  0
    3.9772   -5.6454    0.0000 O   0  0  0  0  0  0  0  0  0  0  0  0
    4.7698   -5.4166    0.0000 C   0  0  0  0  0  0  0  0  0  0  0  0
    4.9679   -4.6157    0.0000 O   0  0  0  0  0  0  0  0  0  0  0  0
    5.3643   -5.9886    0.0000 C   0  0  0  0  0  0  0  0  0  0  0  0
    6.1569   -5.7598    0.0000 C   0  0  0  0  0  0  0  0  0  0  0  0
    6.7514   -6.3318    0.0000 C   0  0  0  0  0  0  0  0  0  0  0  0
    6.5532   -7.1327    0.0000 O   0  0  0  0  0  0  0  0  0  0  0  0
    7.5440   -6.1030    0.0000 O   0  0  0  0  0  0  0  0  0  0  0  0
    8.1385   -6.6750    0.0000 C   0  0  0  0  0  0  0  0  0  0  0  0
    8.9311   -6.4462    0.0000 C   0  0  0  0  0  0  0  0  0  0  0  0
    9.1293   -5.6454    0.0000 C   0  0  0  0  0  0  0  0  0  0  0  0
    9.9219   -5.4166    0.0000 C   0  0  0  0  0  0  0  0  0  0  0  0
    9.5256   -7.0183    0.0000 C   0  0  0  0  0  0  0  0  0  0  0  0
   10.3182   -6.7894    0.0000 C   0  0  0  0  0  0  0  0  0  0  0  0
   10.9127   -7.3615    0.0000 C   0  0  0  0  0  0  0  0  0  0  0  0
   11.7053   -7.1327    0.0000 C   0  0  0  0  0  0  0  0  0  0  0  0
    6.3551   -4.9589    0.0000 S   0  0  0  0  0  0  0  0  0  0  0  0
    7.1559   -5.1571    0.0000 O   0  0  0  0  0  0  0  0  0  0  0  0
    5.5542   -4.7608    0.0000 O   0  0  0  0  0  0  0  0  0  0  0  0
    6.5532   -4.1581    0.0000 O   0  0  0  0  0  0  0  0  0  0  0  0
   -0.4130   -3.8231    0.0000 H   0  0  0  0  0  0  0  0  0  0  0  0
   -0.9768   -4.8445    0.0000 H   0  0  0  0  0  0  0  0  0  0  0  0
    0.0446   -5.4083    0.0000 H   0  0  0  0  0  0  0  0  0  0  0  0
    1.1450   -3.7602    0.0000 H   0  0  0  0  0  0  0  0  0  0  0  0
    0.4261   -3.5823    0.0000 H   0  0  0  0  0  0  0  0  0  0  0  0
    0.6664   -5.5857    0.0000 H   0  0  0  0  0  0  0  0  0  0  0  0
    1.3853   -5.7635    0.0000 H   0  0  0  0  0  0  0  0  0  0  0  0
    2.5321   -4.1034    0.0000 H   0  0  0  0  0  0  0  0  0  0  0  0
    1.8132   -3.9255    0.0000 H   0  0  0  0  0  0  0  0  0  0  0  0
    1.7974   -5.5310    0.0000 H   0  0  0  0  0  0  0  0  0  0  0  0
    1.6510   -6.4660    0.0000 H   0  0  0  0  0  0  0  0  0  0  0  0
    2.0577   -6.8573    0.0000 H   0  0  0  0  0  0  0  0  0  0  0  0
    2.9483   -7.4992    0.0000 H   0  0  0  0  0  0  0  0  0  0  0  0
    3.7778   -6.9079    0.0000 H   0  0  0  0  0  0  0  0  0  0  0  0
    3.4007   -5.9616    0.0000 H   0  0  0  0  0  0  0  0  0  0  0  0
    3.9192   -4.4466    0.0000 H   0  0  0  0  0  0  0  0  0  0  0  0
    3.2003   -4.2687    0.0000 H   0  0  0  0  0  0  0  0  0  0  0  0
    4.8278   -6.6153    0.0000 H   0  0  0  0  0  0  0  0  0  0  0  0
    5.5466   -6.7932    0.0000 H   0  0  0  0  0  0  0  0  0  0  0  0
    5.9587   -6.5606    0.0000 H   0  0  0  0  0  0  0  0  0  0  0  0
    7.6020   -7.3018    0.0000 H   0  0  0  0  0  0  0  0  0  0  0  0
    8.3208   -7.4796    0.0000 H   0  0  0  0  0  0  0  0  0  0  0  0
    8.3366   -5.8742    0.0000 H   0  0  0  0  0  0  0  0  0  0  0  0
    9.1854   -4.8223    0.0000 H   0  0  0  0  0  0  0  0  0  0  0  0
    8.6432   -4.9788    0.0000 H   0  0  0  0  0  0  0  0  0  0  0  0
    9.9558   -6.2409    0.0000 H   0  0  0  0  0  0  0  0  0  0  0  0
   10.7306   -5.5796    0.0000 H   0  0  0  0  0  0  0  0  0  0  0  0
   10.2725   -4.6698    0.0000 H   0  0  0  0  0  0  0  0  0  0  0  0
    8.9891   -7.6450    0.0000 H   0  0  0  0  0  0  0  0  0  0  0  0
    9.7079   -7.8229    0.0000 H   0  0  0  0  0  0  0  0  0  0  0  0
   10.9523   -6.2616    0.0000 H   0  0  0  0  0  0  0  0  0  0  0  0
   10.1201   -7.5903    0.0000 H   0  0  0  0  0  0  0  0  0  0  0  0
   10.8566   -8.1846    0.0000 H   0  0  0  0  0  0  0  0  0  0  0  0
   11.3988   -8.0281    0.0000 H   0  0  0  0  0  0  0  0  0  0  0  0
   12.4000   -7.5777    0.0000 H   0  0  0  0  0  0  0  0  0  0  0  0
   12.3028   -6.5637    0.0000 H   0  0  0  0  0  0  0  0  0  0  0  0
   11.2947   -6.4171    0.0000 H   0  0  0  0  0  0  0  0  0  0  0  0
    7.3847   -5.9497    0.0000 H   0  0  0  0  0  0  0  0  0  0  0  0
  1  2  1  0  0  0  0
  2  3  1  0  0  0  0
  3  4  1  0  0  0  0
  4  5  1  0  0  0  0
  5  6  1  0  0  0  0
  6  7  1  0  0  0  0
  5  8  1  0  0  0  0
  8  9  1  0  0  0  0
  9 10  1  0  0  0  0
 10 11  2  0  0  0  0
 10 12  1  0  0  0  0
 12 13  1  0  0  0  0
 13 14  1  0  0  0  0
 14 15  2  0  0  0  0
 14 16  1  0  0  0  0
 16 17  1  0  0  0  0
 17 18  1  0  0  0  0
 18 19  1  0  0  0  0
 19 20  1  0  0  0  0
 18 21  1  0  0  0  0
 21 22  1  0  0  0  0
 22 23  1  0  0  0  0
 23 24  1  0  0  0  0
 13 25  1  0  0  0  0
 25 26  1  0  0  0  0
 25 27  2  0  0  0  0
 25 28  2  0  0  0  0
  1 29  1  0  0  0  0
  1 30  1  0  0  0  0
  1 31  1  0  0  0  0
  2 32  1  0  0  0  0
  2 33  1  0  0  0  0
  3 34  1  0  0  0  0
  3 35  1  0  0  0  0
  4 36  1  0  0  0  0
  4 37  1  0  0  0  0
  5 38  1  0  0  0  0
  6 39  1  0  0  0  0
  6 40  1  0  0  0  0
  7 41  1  0  0  0  0
  7 42  1  0  0  0  0
  7 43  1  0  0  0  0
  8 44  1  0  0  0  0
  8 45  1  0  0  0  0
 12 46  1  0  0  0  0
 12 47  1  0  0  0  0
 13 48  1  0  0  0  0
 17 49  1  0  0  0  0
 17 50  1  0  0  0  0
 18 51  1  0  0  0  0
 19 52  1  0  0  0  0
 19 53  1  0  0  0  0
 20 54  1  0  0  0  0
 20 55  1  0  0  0  0
 20 56  1  0  0  0  0
 21 57  1  0  0  0  0
 21 58  1  0  0  0  0
 22 59  1  0  0  0  0
 22 60  1  0  0  0  0
 23 61  1  0  0  0  0
 23 62  1  0  0  0  0
 24 63  1  0  0  0  0
 24 64  1  0  0  0  0
 24 65  1  0  0  0  0
 26 66  1  0  0  0  0
M  END
>  <InChIKey>
HNSDLXPSAYFUHK-UHFFFAOYSA-M

>  <UN GHS>
2A

>  <CASRN>
577-11-7

> <Outcome>
1

>  <Index>
263

>  <StandardizerResult>
Clear Stereo (ID: ClearStereo)
Wedge Clean (ID: WedgeClean)
Mesomerize (ID: Mesomerize)
Tautomerize (ID: Tautomerize)
Add Explicit Hydrogens (ID: AddExplicitH)
Neutralize (ID: Neutralize)
Clean 2D (ID: Clean2D)

> <knn Distance>


> <CpId>
263

$$$$
264
  Mrv1532301301811342D          

 39 38  0  0  0  0            999 V2000
    3.5221    2.8514    0.0000 C   0  0  0  0  0  0  0  0  0  0  0  0
    4.2366    3.2639    0.0000 C   0  0  0  0  0  0  0  0  0  0  0  0
    4.9510    2.8514    0.0000 C   0  0  0  0  0  0  0  0  0  0  0  0
    5.6655    3.2639    0.0000 C   0  0  0  0  0  0  0  0  0  0  0  0
    6.3800    2.8514    0.0000 C   0  0  0  0  0  0  0  0  0  0  0  0
    7.0945    3.2639    0.0000 C   0  0  0  0  0  0  0  0  0  0  0  0
    7.8089    2.8514    0.0000 C   0  0  0  0  0  0  0  0  0  0  0  0
    8.5234    3.2639    0.0000 C   0  0  0  0  0  0  0  0  0  0  0  0
    9.2379    2.8514    0.0000 C   0  0  0  0  0  0  0  0  0  0  0  0
    9.9523    3.2639    0.0000 C   0  0  0  0  0  0  0  0  0  0  0  0
    9.9523    4.0889    0.0000 O   0  0  0  0  0  0  0  0  0  0  0  0
   10.6668    2.8514    0.0000 N   0  0  0  0  0  0  0  0  0  0  0  0
   11.3813    3.2639    0.0000 C   0  0  0  0  0  0  0  0  0  0  0  0
   10.6668    2.0264    0.0000 C   0  0  0  0  0  0  0  0  0  0  0  0
    3.1096    3.5658    0.0000 H   0  0  0  0  0  0  0  0  0  0  0  0
    2.8076    2.4389    0.0000 H   0  0  0  0  0  0  0  0  0  0  0  0
    3.9346    2.1369    0.0000 H   0  0  0  0  0  0  0  0  0  0  0  0
    4.6068    4.0011    0.0000 H   0  0  0  0  0  0  0  0  0  0  0  0
    3.8663    4.0011    0.0000 H   0  0  0  0  0  0  0  0  0  0  0  0
    4.5808    2.1141    0.0000 H   0  0  0  0  0  0  0  0  0  0  0  0
    5.3213    2.1141    0.0000 H   0  0  0  0  0  0  0  0  0  0  0  0
    6.0358    4.0011    0.0000 H   0  0  0  0  0  0  0  0  0  0  0  0
    5.2952    4.0011    0.0000 H   0  0  0  0  0  0  0  0  0  0  0  0
    6.0097    2.1141    0.0000 H   0  0  0  0  0  0  0  0  0  0  0  0
    6.7502    2.1141    0.0000 H   0  0  0  0  0  0  0  0  0  0  0  0
    7.4647    4.0011    0.0000 H   0  0  0  0  0  0  0  0  0  0  0  0
    6.7242    4.0011    0.0000 H   0  0  0  0  0  0  0  0  0  0  0  0
    7.4387    2.1141    0.0000 H   0  0  0  0  0  0  0  0  0  0  0  0
    8.1792    2.1141    0.0000 H   0  0  0  0  0  0  0  0  0  0  0  0
    8.8937    4.0011    0.0000 H   0  0  0  0  0  0  0  0  0  0  0  0
    8.1531    4.0011    0.0000 H   0  0  0  0  0  0  0  0  0  0  0  0
    8.8676    2.1141    0.0000 H   0  0  0  0  0  0  0  0  0  0  0  0
    9.6081    2.1141    0.0000 H   0  0  0  0  0  0  0  0  0  0  0  0
   11.7938    2.5494    0.0000 H   0  0  0  0  0  0  0  0  0  0  0  0
   12.0957    3.6764    0.0000 H   0  0  0  0  0  0  0  0  0  0  0  0
   10.9688    3.9783    0.0000 H   0  0  0  0  0  0  0  0  0  0  0  0
    9.8418    2.0264    0.0000 H   0  0  0  0  0  0  0  0  0  0  0  0
   10.6668    1.2014    0.0000 H   0  0  0  0  0  0  0  0  0  0  0  0
   11.4918    2.0264    0.0000 H   0  0  0  0  0  0  0  0  0  0  0  0
  1  2  1  0  0  0  0
  2  3  1  0  0  0  0
  3  4  1  0  0  0  0
  4  5  1  0  0  0  0
  5  6  1  0  0  0  0
  6  7  1  0  0  0  0
  7  8  1  0  0  0  0
  8  9  1  0  0  0  0
  9 10  1  0  0  0  0
 10 11  2  0  0  0  0
 10 12  1  0  0  0  0
 12 13  1  0  0  0  0
 12 14  1  0  0  0  0
  1 15  1  0  0  0  0
  1 16  1  0  0  0  0
  1 17  1  0  0  0  0
  2 18  1  0  0  0  0
  2 19  1  0  0  0  0
  3 20  1  0  0  0  0
  3 21  1  0  0  0  0
  4 22  1  0  0  0  0
  4 23  1  0  0  0  0
  5 24  1  0  0  0  0
  5 25  1  0  0  0  0
  6 26  1  0  0  0  0
  6 27  1  0  0  0  0
  7 28  1  0  0  0  0
  7 29  1  0  0  0  0
  8 30  1  0  0  0  0
  8 31  1  0  0  0  0
  9 32  1  0  0  0  0
  9 33  1  0  0  0  0
 13 34  1  0  0  0  0
 13 35  1  0  0  0  0
 13 36  1  0  0  0  0
 14 37  1  0  0  0  0
 14 38  1  0  0  0  0
 14 39  1  0  0  0  0
M  END
>  <InChIKey>
HNXNKTMIVROLTK-UHFFFAOYSA-N

>  <UN GHS>
2A

>  <CASRN>
14433-76-2

> <Outcome>
1

>  <Index>
264

>  <StandardizerResult>
Clear Stereo (ID: ClearStereo)
Wedge Clean (ID: WedgeClean)
Mesomerize (ID: Mesomerize)
Tautomerize (ID: Tautomerize)
Add Explicit Hydrogens (ID: AddExplicitH)
Neutralize (ID: Neutralize)
Clean 2D (ID: Clean2D)

> <knn Distance>


> <CpId>
264

$$$$
267
  Mrv1532301301811342D          

 16 15  0  0  0  0            999 V2000
    2.4739   -1.4308    0.0000 C   0  0  0  0  0  0  0  0  0  0  0  0
    2.0614   -0.7164    0.0000 C   0  0  0  0  0  0  0  0  0  0  0  0
    1.2364   -0.7164    0.0000 N   0  0  0  0  0  0  0  0  0  0  0  0
    0.8239   -0.0019    0.0000 C   0  0  0  0  0  0  0  0  0  0  0  0
   -0.0011   -0.0019    0.0000 C   0  0  0  0  0  0  0  0  0  0  0  0
    1.7594   -1.8433    0.0000 H   0  0  0  0  0  0  0  0  0  0  0  0
    2.8864   -2.1453    0.0000 H   0  0  0  0  0  0  0  0  0  0  0  0
    3.1884   -1.0183    0.0000 H   0  0  0  0  0  0  0  0  0  0  0  0
    2.7507   -0.2630    0.0000 H   0  0  0  0  0  0  0  0  0  0  0  0
    2.1094    0.1072    0.0000 H   0  0  0  0  0  0  0  0  0  0  0  0
    0.8239   -1.4308    0.0000 H   0  0  0  0  0  0  0  0  0  0  0  0
    1.5132    0.4514    0.0000 H   0  0  0  0  0  0  0  0  0  0  0  0
    0.8719    0.8217    0.0000 H   0  0  0  0  0  0  0  0  0  0  0  0
   -0.0011    0.8231    0.0000 H   0  0  0  0  0  0  0  0  0  0  0  0
   -0.8261   -0.0019    0.0000 H   0  0  0  0  0  0  0  0  0  0  0  0
   -0.0011   -0.8269    0.0000 H   0  0  0  0  0  0  0  0  0  0  0  0
  1  2  1  0  0  0  0
  2  3  1  0  0  0  0
  3  4  1  0  0  0  0
  4  5  1  0  0  0  0
  1  6  1  0  0  0  0
  1  7  1  0  0  0  0
  1  8  1  0  0  0  0
  2  9  1  0  0  0  0
  2 10  1  0  0  0  0
  3 11  1  0  0  0  0
  4 12  1  0  0  0  0
  4 13  1  0  0  0  0
  5 14  1  0  0  0  0
  5 15  1  0  0  0  0
  5 16  1  0  0  0  0
M  END
>  <InChIKey>
HPNMFZURTQLUMO-UHFFFAOYSA-N

>  <UN GHS>
1

>  <CASRN>
109-89-7

> <Outcome>
1

>  <Index>
267

>  <StandardizerResult>
Clear Stereo (ID: ClearStereo)
Wedge Clean (ID: WedgeClean)
Mesomerize (ID: Mesomerize)
Tautomerize (ID: Tautomerize)
Add Explicit Hydrogens (ID: AddExplicitH)
Neutralize (ID: Neutralize)
Clean 2D (ID: Clean2D)

> <knn Distance>


> <CpId>
267

$$$$
268
  Mrv1532301301811342D          

 19 19  0  0  0  0            999 V2000
    0.7192    2.1138    0.0000 O   0  0  0  0  0  0  0  0  0  0  0  0
    0.7192    1.2888    0.0000 C   0  0  0  0  0  0  0  0  0  0  0  0
    1.4336    0.8763    0.0000 C   0  0  0  0  0  0  0  0  0  0  0  0
    1.4336    0.0513    0.0000 C   0  0  0  0  0  0  0  0  0  0  0  0
    0.7192   -0.3612    0.0000 C   0  0  0  0  0  0  0  0  0  0  0  0
    0.0047    0.0513    0.0000 C   0  0  0  0  0  0  0  0  0  0  0  0
    0.0047    0.8763    0.0000 C   0  0  0  0  0  0  0  0  0  0  0  0
    1.4336    2.5263    0.0000 H   0  0  0  0  0  0  0  0  0  0  0  0
    0.0047    1.7013    0.0000 H   0  0  0  0  0  0  0  0  0  0  0  0
    2.2573    0.9243    0.0000 H   0  0  0  0  0  0  0  0  0  0  0  0
    1.8870    1.5656    0.0000 H   0  0  0  0  0  0  0  0  0  0  0  0
    1.8870   -0.6380    0.0000 H   0  0  0  0  0  0  0  0  0  0  0  0
    2.2573    0.0033    0.0000 H   0  0  0  0  0  0  0  0  0  0  0  0
    0.3489   -1.0985    0.0000 H   0  0  0  0  0  0  0  0  0  0  0  0
    1.0894   -1.0985    0.0000 H   0  0  0  0  0  0  0  0  0  0  0  0
   -0.8189    0.0033    0.0000 H   0  0  0  0  0  0  0  0  0  0  0  0
   -0.4486   -0.6380    0.0000 H   0  0  0  0  0  0  0  0  0  0  0  0
   -0.7705    1.1584    0.0000 H   0  0  0  0  0  0  0  0  0  0  0  0
   -0.7705    0.5941    0.0000 H   0  0  0  0  0  0  0  0  0  0  0  0
  1  2  1  0  0  0  0
  2  3  1  0  0  0  0
  3  4  1  0  0  0  0
  4  5  1  0  0  0  0
  5  6  1  0  0  0  0
  6  7  1  0  0  0  0
  2  7  1  0  0  0  0
  1  8  1  0  0  0  0
  2  9  1  0  0  0  0
  3 10  1  0  0  0  0
  3 11  1  0  0  0  0
  4 12  1  0  0  0  0
  4 13  1  0  0  0  0
  5 14  1  0  0  0  0
  5 15  1  0  0  0  0
  6 16  1  0  0  0  0
  6 17  1  0  0  0  0
  7 18  1  0  0  0  0
  7 19  1  0  0  0  0
M  END
>  <InChIKey>
HPXRVTGHNJAIIH-UHFFFAOYSA-N

>  <UN GHS>
2A

>  <CASRN>
108-93-0

> <Outcome>
1

>  <Index>
268

>  <StandardizerResult>
Clear Stereo (ID: ClearStereo)
Wedge Clean (ID: WedgeClean)
Mesomerize (ID: Mesomerize)
Tautomerize (ID: Tautomerize)
Add Explicit Hydrogens (ID: AddExplicitH)
Neutralize (ID: Neutralize)
Clean 2D (ID: Clean2D)

> <knn Distance>


> <CpId>
268

$$$$
269
  Mrv1532301301811342D          

 44 43  0  0  0  0            999 V2000
    5.9961    4.2868    0.0000 O   0  0  0  0  0  0  0  0  0  0  0  0
    6.7105    4.6993    0.0000 C   0  0  0  0  0  0  0  0  0  0  0  0
    6.7105    5.5243    0.0000 O   0  0  0  0  0  0  0  0  0  0  0  0
    7.4250    4.2868    0.0000 C   0  0  0  0  0  0  0  0  0  0  0  0
    8.1395    4.6993    0.0000 C   0  0  0  0  0  0  0  0  0  0  0  0
    8.8539    4.2868    0.0000 C   0  0  0  0  0  0  0  0  0  0  0  0
    9.5684    4.6993    0.0000 C   0  0  0  0  0  0  0  0  0  0  0  0
   10.2829    4.2868    0.0000 C   0  0  0  0  0  0  0  0  0  0  0  0
   10.9974    4.6993    0.0000 C   0  0  0  0  0  0  0  0  0  0  0  0
   11.7118    4.2868    0.0000 C   0  0  0  0  0  0  0  0  0  0  0  0
   12.4263    4.6993    0.0000 C   0  0  0  0  0  0  0  0  0  0  0  0
   13.1408    4.2868    0.0000 C   0  0  0  0  0  0  0  0  0  0  0  0
   13.8552    4.6993    0.0000 C   0  0  0  0  0  0  0  0  0  0  0  0
   14.5697    4.2868    0.0000 C   0  0  0  0  0  0  0  0  0  0  0  0
   15.2842    4.6993    0.0000 C   0  0  0  0  0  0  0  0  0  0  0  0
   15.9987    4.2868    0.0000 C   0  0  0  0  0  0  0  0  0  0  0  0
   16.7131    4.6993    0.0000 O   0  0  0  0  0  0  0  0  0  0  0  0
   15.9987    3.4618    0.0000 O   0  0  0  0  0  0  0  0  0  0  0  0
    5.2816    4.6993    0.0000 H   0  0  0  0  0  0  0  0  0  0  0  0
    7.0547    3.5496    0.0000 H   0  0  0  0  0  0  0  0  0  0  0  0
    7.7953    3.5496    0.0000 H   0  0  0  0  0  0  0  0  0  0  0  0
    8.5097    5.4365    0.0000 H   0  0  0  0  0  0  0  0  0  0  0  0
    7.7692    5.4365    0.0000 H   0  0  0  0  0  0  0  0  0  0  0  0
    8.4837    3.5496    0.0000 H   0  0  0  0  0  0  0  0  0  0  0  0
    9.2242    3.5496    0.0000 H   0  0  0  0  0  0  0  0  0  0  0  0
    9.9387    5.4365    0.0000 H   0  0  0  0  0  0  0  0  0  0  0  0
    9.1982    5.4365    0.0000 H   0  0  0  0  0  0  0  0  0  0  0  0
    9.9126    3.5496    0.0000 H   0  0  0  0  0  0  0  0  0  0  0  0
   10.6531    3.5496    0.0000 H   0  0  0  0  0  0  0  0  0  0  0  0
   11.3676    5.4365    0.0000 H   0  0  0  0  0  0  0  0  0  0  0  0
   10.6271    5.4365    0.0000 H   0  0  0  0  0  0  0  0  0  0  0  0
   11.3416    3.5496    0.0000 H   0  0  0  0  0  0  0  0  0  0  0  0
   12.0821    3.5496    0.0000 H   0  0  0  0  0  0  0  0  0  0  0  0
   12.7966    5.4365    0.0000 H   0  0  0  0  0  0  0  0  0  0  0  0
   12.0560    5.4365    0.0000 H   0  0  0  0  0  0  0  0  0  0  0  0
   12.7705    3.5496    0.0000 H   0  0  0  0  0  0  0  0  0  0  0  0
   13.5110    3.5496    0.0000 H   0  0  0  0  0  0  0  0  0  0  0  0
   14.2255    5.4365    0.0000 H   0  0  0  0  0  0  0  0  0  0  0  0
   13.4850    5.4365    0.0000 H   0  0  0  0  0  0  0  0  0  0  0  0
   14.1995    3.5496    0.0000 H   0  0  0  0  0  0  0  0  0  0  0  0
   14.9400    3.5496    0.0000 H   0  0  0  0  0  0  0  0  0  0  0  0
   15.6544    5.4365    0.0000 H   0  0  0  0  0  0  0  0  0  0  0  0
   14.9139    5.4365    0.0000 H   0  0  0  0  0  0  0  0  0  0  0  0
   17.4276    4.2868    0.0000 H   0  0  0  0  0  0  0  0  0  0  0  0
  1  2  1  0  0  0  0
  2  3  2  0  0  0  0
  2  4  1  0  0  0  0
  4  5  1  0  0  0  0
  5  6  1  0  0  0  0
  6  7  1  0  0  0  0
  7  8  1  0  0  0  0
  8  9  1  0  0  0  0
  9 10  1  0  0  0  0
 10 11  1  0  0  0  0
 11 12  1  0  0  0  0
 12 13  1  0  0  0  0
 13 14  1  0  0  0  0
 14 15  1  0  0  0  0
 15 16  1  0  0  0  0
 16 17  1  0  0  0  0
 16 18  2  0  0  0  0
  1 19  1  0  0  0  0
  4 20  1  0  0  0  0
  4 21  1  0  0  0  0
  5 22  1  0  0  0  0
  5 23  1  0  0  0  0
  6 24  1  0  0  0  0
  6 25  1  0  0  0  0
  7 26  1  0  0  0  0
  7 27  1  0  0  0  0
  8 28  1  0  0  0  0
  8 29  1  0  0  0  0
  9 30  1  0  0  0  0
  9 31  1  0  0  0  0
 10 32  1  0  0  0  0
 10 33  1  0  0  0  0
 11 34  1  0  0  0  0
 11 35  1  0  0  0  0
 12 36  1  0  0  0  0
 12 37  1  0  0  0  0
 13 38  1  0  0  0  0
 13 39  1  0  0  0  0
 14 40  1  0  0  0  0
 14 41  1  0  0  0  0
 15 42  1  0  0  0  0
 15 43  1  0  0  0  0
 17 44  1  0  0  0  0
M  END
>  <InChIKey>
HQHCYKULIHKCEB-UHFFFAOYSA-N

>  <UN GHS>
1

>  <CASRN>
821-38-5

> <Outcome>
1

>  <Index>
269

>  <StandardizerResult>
Clear Stereo (ID: ClearStereo)
Wedge Clean (ID: WedgeClean)
Mesomerize (ID: Mesomerize)
Tautomerize (ID: Tautomerize)
Add Explicit Hydrogens (ID: AddExplicitH)
Neutralize (ID: Neutralize)
Clean 2D (ID: Clean2D)

> <knn Distance>


> <CpId>
269

$$$$
272
  Mrv1532301301811342D          

 10  9  0  0  0  0            999 V2000
    2.0625   -0.7145    0.0000 N   0  0  0  0  0  0  0  0  0  0  0  0
    1.2375   -0.7145    0.0000 C   0  0  0  0  0  0  0  0  0  0  0  0
    0.8250   -1.4289    0.0000 O   0  0  0  0  0  0  0  0  0  0  0  0
    0.8250   -0.0000    0.0000 C   0  0  0  0  0  0  0  0  0  0  0  0
    0.0000   -0.0000    0.0000 C   0  0  0  0  0  0  0  0  0  0  0  0
    2.4750   -1.4289    0.0000 H   0  0  0  0  0  0  0  0  0  0  0  0
    2.4750   -0.0000    0.0000 H   0  0  0  0  0  0  0  0  0  0  0  0
    1.2375    0.7145    0.0000 H   0  0  0  0  0  0  0  0  0  0  0  0
   -0.4125    0.7145    0.0000 H   0  0  0  0  0  0  0  0  0  0  0  0
   -0.4125   -0.7145    0.0000 H   0  0  0  0  0  0  0  0  0  0  0  0
  1  2  1  0  0  0  0
  2  3  2  0  0  0  0
  2  4  1  0  0  0  0
  4  5  2  0  0  0  0
  1  6  1  0  0  0  0
  1  7  1  0  0  0  0
  4  8  1  0  0  0  0
  5  9  1  0  0  0  0
  5 10  1  0  0  0  0
M  END
>  <InChIKey>
HRPVXLWXLXDGHG-UHFFFAOYSA-N

>  <UN GHS>
2A

>  <CASRN>
79-06-1

> <Outcome>
1

>  <Index>
272

>  <StandardizerResult>
Clear Stereo (ID: ClearStereo)
Wedge Clean (ID: WedgeClean)
Mesomerize (ID: Mesomerize)
Tautomerize (ID: Tautomerize)
Add Explicit Hydrogens (ID: AddExplicitH)
Neutralize (ID: Neutralize)
Clean 2D (ID: Clean2D)

> <knn Distance>


> <CpId>
272

$$$$
275
  Mrv1532301301811342D          

 23 23  0  0  0  0            999 V2000
    1.6617    2.2131    0.0000 C   0  0  0  0  0  0  0  0  0  0  0  0
    1.6617    1.3881    0.0000 C   0  0  0  0  0  0  0  0  0  0  0  0
    0.9472    0.9756    0.0000 N   0  0  0  0  0  0  0  0  0  0  0  0
    0.9472    0.1506    0.0000 C   0  0  0  0  0  0  0  0  0  0  0  0
    0.2328   -0.2619    0.0000 C   0  0  0  0  0  0  0  0  0  0  0  0
   -0.4817    0.1506    0.0000 C   0  0  0  0  0  0  0  0  0  0  0  0
   -0.4817    0.9756    0.0000 C   0  0  0  0  0  0  0  0  0  0  0  0
    0.2328    1.3881    0.0000 C   0  0  0  0  0  0  0  0  0  0  0  0
    2.4867    2.2131    0.0000 H   0  0  0  0  0  0  0  0  0  0  0  0
    1.6617    3.0381    0.0000 H   0  0  0  0  0  0  0  0  0  0  0  0
    0.8367    2.2131    0.0000 H   0  0  0  0  0  0  0  0  0  0  0  0
    2.1151    0.6988    0.0000 H   0  0  0  0  0  0  0  0  0  0  0  0
    2.4853    1.3401    0.0000 H   0  0  0  0  0  0  0  0  0  0  0  0
    1.4006   -0.5387    0.0000 H   0  0  0  0  0  0  0  0  0  0  0  0
    1.7708    0.1026    0.0000 H   0  0  0  0  0  0  0  0  0  0  0  0
   -0.1375   -0.9991    0.0000 H   0  0  0  0  0  0  0  0  0  0  0  0
    0.6030   -0.9991    0.0000 H   0  0  0  0  0  0  0  0  0  0  0  0
   -1.3053    0.1026    0.0000 H   0  0  0  0  0  0  0  0  0  0  0  0
   -0.9350   -0.5387    0.0000 H   0  0  0  0  0  0  0  0  0  0  0  0
   -0.9350    1.6649    0.0000 H   0  0  0  0  0  0  0  0  0  0  0  0
   -1.3053    1.0236    0.0000 H   0  0  0  0  0  0  0  0  0  0  0  0
    0.6030    2.1254    0.0000 H   0  0  0  0  0  0  0  0  0  0  0  0
   -0.1375    2.1254    0.0000 H   0  0  0  0  0  0  0  0  0  0  0  0
  1  2  1  0  0  0  0
  2  3  1  0  0  0  0
  3  4  1  0  0  0  0
  4  5  1  0  0  0  0
  5  6  1  0  0  0  0
  6  7  1  0  0  0  0
  7  8  1  0  0  0  0
  3  8  1  0  0  0  0
  1  9  1  0  0  0  0
  1 10  1  0  0  0  0
  1 11  1  0  0  0  0
  2 12  1  0  0  0  0
  2 13  1  0  0  0  0
  4 14  1  0  0  0  0
  4 15  1  0  0  0  0
  5 16  1  0  0  0  0
  5 17  1  0  0  0  0
  6 18  1  0  0  0  0
  6 19  1  0  0  0  0
  7 20  1  0  0  0  0
  7 21  1  0  0  0  0
  8 22  1  0  0  0  0
  8 23  1  0  0  0  0
M  END
>  <InChIKey>
HTLZVHNRZJPSMI-UHFFFAOYSA-N

>  <UN GHS>
1

>  <CASRN>
766-09-6

> <Outcome>
1

>  <Index>
275

>  <StandardizerResult>
Clear Stereo (ID: ClearStereo)
Wedge Clean (ID: WedgeClean)
Mesomerize (ID: Mesomerize)
Tautomerize (ID: Tautomerize)
Add Explicit Hydrogens (ID: AddExplicitH)
Neutralize (ID: Neutralize)
Clean 2D (ID: Clean2D)

> <knn Distance>


> <CpId>
275

$$$$
277
  Mrv1532301301811342D          

 14 14  0  0  0  0            999 V2000
    0.0000    2.4750    0.0000 O   0  0  0  0  0  0  0  0  0  0  0  0
    0.7145    2.0625    0.0000 C   0  0  0  0  0  0  0  0  0  0  0  0
    0.7145    1.2375    0.0000 C   0  0  0  0  0  0  0  0  0  0  0  0
    1.4289    0.8250    0.0000 C   0  0  0  0  0  0  0  0  0  0  0  0
    1.4289    0.0000    0.0000 C   0  0  0  0  0  0  0  0  0  0  0  0
    0.7145   -0.4125    0.0000 C   0  0  0  0  0  0  0  0  0  0  0  0
    0.0000    0.0000    0.0000 C   0  0  0  0  0  0  0  0  0  0  0  0
    0.0000    0.8250    0.0000 C   0  0  0  0  0  0  0  0  0  0  0  0
    1.4289    2.4750    0.0000 H   0  0  0  0  0  0  0  0  0  0  0  0
    2.1434    1.2375    0.0000 H   0  0  0  0  0  0  0  0  0  0  0  0
    2.1434   -0.4125    0.0000 H   0  0  0  0  0  0  0  0  0  0  0  0
    0.7145   -1.2375    0.0000 H   0  0  0  0  0  0  0  0  0  0  0  0
   -0.7145   -0.4125    0.0000 H   0  0  0  0  0  0  0  0  0  0  0  0
   -0.7145    1.2375    0.0000 H   0  0  0  0  0  0  0  0  0  0  0  0
  1  2  2  0  0  0  0
  2  3  1  0  0  0  0
  3  4  4  0  0  0  0
  4  5  4  0  0  0  0
  5  6  4  0  0  0  0
  6  7  4  0  0  0  0
  7  8  4  0  0  0  0
  3  8  4  0  0  0  0
  2  9  1  0  0  0  0
  4 10  1  0  0  0  0
  5 11  1  0  0  0  0
  6 12  1  0  0  0  0
  7 13  1  0  0  0  0
  8 14  1  0  0  0  0
M  END
>  <InChIKey>
HUMNYLRZRPPJDN-UHFFFAOYSA-N

>  <UN GHS>
2B

>  <CASRN>
100-52-7

> <Outcome>
1

>  <Index>
277

>  <StandardizerResult>
Dearomatize (ID: Dearomatize)
Clear Stereo (ID: ClearStereo)
Wedge Clean (ID: WedgeClean)
Mesomerize (ID: Mesomerize)
Tautomerize (ID: Tautomerize)
Aromatize (ID: Aromatize)
Add Explicit Hydrogens (ID: AddExplicitH)
Neutralize (ID: Neutralize)
Clean 2D (ID: Clean2D)

> <knn Distance>


> <CpId>
277

$$$$
279
  Mrv1532301301811342D          

 37 39  0  0  0  0            999 V2000
   -1.4289   -1.6500    0.0000 O   0  0  0  0  0  0  0  0  0  0  0  0
   -0.7145   -1.2375    0.0000 P   0  0  0  0  0  0  0  0  0  0  0  0
   -0.0000   -1.6500    0.0000 O   0  0  0  0  0  0  0  0  0  0  0  0
   -0.0000   -2.4750    0.0000 C   0  0  0  0  0  0  0  0  0  0  0  0
    0.7145   -2.8875    0.0000 C   0  0  0  0  0  0  0  0  0  0  0  0
    0.7145   -3.7125    0.0000 C   0  0  0  0  0  0  0  0  0  0  0  0
   -0.0000   -4.1250    0.0000 C   0  0  0  0  0  0  0  0  0  0  0  0
   -0.7145   -3.7125    0.0000 C   0  0  0  0  0  0  0  0  0  0  0  0
   -0.7145   -2.8875    0.0000 C   0  0  0  0  0  0  0  0  0  0  0  0
   -0.7145   -0.4125    0.0000 O   0  0  0  0  0  0  0  0  0  0  0  0
   -0.0000    0.0000    0.0000 C   0  0  0  0  0  0  0  0  0  0  0  0
   -0.0000    0.8250    0.0000 C   0  0  0  0  0  0  0  0  0  0  0  0
    0.7145    1.2375    0.0000 C   0  0  0  0  0  0  0  0  0  0  0  0
    1.4289    0.8250    0.0000 C   0  0  0  0  0  0  0  0  0  0  0  0
    1.4289    0.0000    0.0000 C   0  0  0  0  0  0  0  0  0  0  0  0
    0.7145   -0.4125    0.0000 C   0  0  0  0  0  0  0  0  0  0  0  0
   -2.1434   -1.2375    0.0000 C   0  0  0  0  0  0  0  0  0  0  0  0
   -2.8579   -1.6500    0.0000 C   0  0  0  0  0  0  0  0  0  0  0  0
   -3.5724   -1.2375    0.0000 C   0  0  0  0  0  0  0  0  0  0  0  0
   -3.5724   -0.4125    0.0000 C   0  0  0  0  0  0  0  0  0  0  0  0
   -2.8579    0.0000    0.0000 C   0  0  0  0  0  0  0  0  0  0  0  0
   -2.1434   -0.4125    0.0000 C   0  0  0  0  0  0  0  0  0  0  0  0
    1.4289   -2.4750    0.0000 H   0  0  0  0  0  0  0  0  0  0  0  0
    1.4289   -4.1250    0.0000 H   0  0  0  0  0  0  0  0  0  0  0  0
   -0.0000   -4.9500    0.0000 H   0  0  0  0  0  0  0  0  0  0  0  0
   -1.4289   -4.1250    0.0000 H   0  0  0  0  0  0  0  0  0  0  0  0
   -1.4289   -2.4750    0.0000 H   0  0  0  0  0  0  0  0  0  0  0  0
   -0.7145    1.2375    0.0000 H   0  0  0  0  0  0  0  0  0  0  0  0
    0.7145    2.0625    0.0000 H   0  0  0  0  0  0  0  0  0  0  0  0
    2.1434    1.2375    0.0000 H   0  0  0  0  0  0  0  0  0  0  0  0
    2.1434   -0.4125    0.0000 H   0  0  0  0  0  0  0  0  0  0  0  0
    0.7145   -1.2375    0.0000 H   0  0  0  0  0  0  0  0  0  0  0  0
   -2.8579   -2.4750    0.0000 H   0  0  0  0  0  0  0  0  0  0  0  0
   -4.2868   -1.6500    0.0000 H   0  0  0  0  0  0  0  0  0  0  0  0
   -4.2868    0.0000    0.0000 H   0  0  0  0  0  0  0  0  0  0  0  0
   -2.8579    0.8250    0.0000 H   0  0  0  0  0  0  0  0  0  0  0  0
   -1.4289    0.0000    0.0000 H   0  0  0  0  0  0  0  0  0  0  0  0
  1  2  1  0  0  0  0
  2  3  1  0  0  0  0
  3  4  1  0  0  0  0
  4  5  4  0  0  0  0
  5  6  4  0  0  0  0
  6  7  4  0  0  0  0
  7  8  4  0  0  0  0
  8  9  4  0  0  0  0
  4  9  4  0  0  0  0
  2 10  1  0  0  0  0
 10 11  1  0  0  0  0
 11 12  4  0  0  0  0
 12 13  4  0  0  0  0
 13 14  4  0  0  0  0
 14 15  4  0  0  0  0
 15 16  4  0  0  0  0
 11 16  4  0  0  0  0
  1 17  1  0  0  0  0
 17 18  4  0  0  0  0
 18 19  4  0  0  0  0
 19 20  4  0  0  0  0
 20 21  4  0  0  0  0
 21 22  4  0  0  0  0
 17 22  4  0  0  0  0
  5 23  1  0  0  0  0
  6 24  1  0  0  0  0
  7 25  1  0  0  0  0
  8 26  1  0  0  0  0
  9 27  1  0  0  0  0
 12 28  1  0  0  0  0
 13 29  1  0  0  0  0
 14 30  1  0  0  0  0
 15 31  1  0  0  0  0
 16 32  1  0  0  0  0
 18 33  1  0  0  0  0
 19 34  1  0  0  0  0
 20 35  1  0  0  0  0
 21 36  1  0  0  0  0
 22 37  1  0  0  0  0
M  END
>  <InChIKey>
HVLLSGMXQDNUAL-UHFFFAOYSA-N

>  <UN GHS>
2A

>  <CASRN>
101-02-0

> <Outcome>
1

>  <Index>
279

>  <StandardizerResult>
Dearomatize (ID: Dearomatize)
Clear Stereo (ID: ClearStereo)
Wedge Clean (ID: WedgeClean)
Mesomerize (ID: Mesomerize)
Tautomerize (ID: Tautomerize)
Aromatize (ID: Aromatize)
Add Explicit Hydrogens (ID: AddExplicitH)
Neutralize (ID: Neutralize)
Clean 2D (ID: Clean2D)

> <knn Distance>


> <CpId>
279

$$$$
283
  Mrv1532301301811342D          

 55 56  0  0  0  0            999 V2000
    2.1716   -0.3920    0.0000 C   0  0  0  0  0  0  0  0  0  0  0  0
    2.1716   -1.2170    0.0000 C   0  0  0  0  0  0  0  0  0  0  0  0
    1.4571   -1.6295    0.0000 C   0  0  0  0  0  0  0  0  0  0  0  0
    1.4571   -2.4545    0.0000 C   0  0  0  0  0  0  0  0  0  0  0  0
    0.7427   -2.8670    0.0000 O   0  0  0  0  0  0  0  0  0  0  0  0
    2.1716   -2.8670    0.0000 C   0  0  0  0  0  0  0  0  0  0  0  0
    2.8861   -2.4545    0.0000 C   0  0  0  0  0  0  0  0  0  0  0  0
    2.8861   -1.6295    0.0000 C   0  0  0  0  0  0  0  0  0  0  0  0
    3.6006   -1.2170    0.0000 S   0  0  0  0  0  0  0  0  0  0  0  0
    4.3150   -1.6295    0.0000 C   0  0  0  0  0  0  0  0  0  0  0  0
    5.0295   -1.2170    0.0000 C   0  0  0  0  0  0  0  0  0  0  0  0
    5.7440   -1.6295    0.0000 C   0  0  0  0  0  0  0  0  0  0  0  0
    5.7440   -2.4545    0.0000 C   0  0  0  0  0  0  0  0  0  0  0  0
    6.4584   -2.8670    0.0000 O   0  0  0  0  0  0  0  0  0  0  0  0
    5.0295   -2.8670    0.0000 C   0  0  0  0  0  0  0  0  0  0  0  0
    4.3150   -2.4545    0.0000 C   0  0  0  0  0  0  0  0  0  0  0  0
    3.6006   -2.8670    0.0000 C   0  0  0  0  0  0  0  0  0  0  0  0
    6.4584   -1.2170    0.0000 C   0  0  0  0  0  0  0  0  0  0  0  0
    7.1729   -0.8045    0.0000 C   0  0  0  0  0  0  0  0  0  0  0  0
    6.8709   -1.9314    0.0000 C   0  0  0  0  0  0  0  0  0  0  0  0
    6.0459   -0.5025    0.0000 C   0  0  0  0  0  0  0  0  0  0  0  0
    2.1716   -3.6920    0.0000 C   0  0  0  0  0  0  0  0  0  0  0  0
    2.1716   -4.5170    0.0000 C   0  0  0  0  0  0  0  0  0  0  0  0
    2.9966   -3.6920    0.0000 C   0  0  0  0  0  0  0  0  0  0  0  0
    1.3466   -3.6920    0.0000 C   0  0  0  0  0  0  0  0  0  0  0  0
    2.9966   -0.3920    0.0000 H   0  0  0  0  0  0  0  0  0  0  0  0
    2.1716    0.4330    0.0000 H   0  0  0  0  0  0  0  0  0  0  0  0
    1.3466   -0.3920    0.0000 H   0  0  0  0  0  0  0  0  0  0  0  0
    0.7427   -1.2170    0.0000 H   0  0  0  0  0  0  0  0  0  0  0  0
    0.0282   -2.4545    0.0000 H   0  0  0  0  0  0  0  0  0  0  0  0
    3.6006   -2.0420    0.0000 H   0  0  0  0  0  0  0  0  0  0  0  0
    5.0295   -0.3920    0.0000 H   0  0  0  0  0  0  0  0  0  0  0  0
    6.4584   -3.6920    0.0000 H   0  0  0  0  0  0  0  0  0  0  0  0
    5.0295   -3.6920    0.0000 H   0  0  0  0  0  0  0  0  0  0  0  0
    2.8861   -3.2795    0.0000 H   0  0  0  0  0  0  0  0  0  0  0  0
    3.6006   -3.6920    0.0000 H   0  0  0  0  0  0  0  0  0  0  0  0
    4.3150   -3.2795    0.0000 H   0  0  0  0  0  0  0  0  0  0  0  0
    7.5854   -1.5189    0.0000 H   0  0  0  0  0  0  0  0  0  0  0  0
    7.8874   -0.3920    0.0000 H   0  0  0  0  0  0  0  0  0  0  0  0
    6.7604   -0.0900    0.0000 H   0  0  0  0  0  0  0  0  0  0  0  0
    6.0530   -2.0391    0.0000 H   0  0  0  0  0  0  0  0  0  0  0  0
    6.6574   -2.7283    0.0000 H   0  0  0  0  0  0  0  0  0  0  0  0
    7.5255   -2.4337    0.0000 H   0  0  0  0  0  0  0  0  0  0  0  0
    5.9383    0.3155    0.0000 H   0  0  0  0  0  0  0  0  0  0  0  0
    5.2491   -0.2890    0.0000 H   0  0  0  0  0  0  0  0  0  0  0  0
    5.5437   -1.1570    0.0000 H   0  0  0  0  0  0  0  0  0  0  0  0
    1.3466   -4.5170    0.0000 H   0  0  0  0  0  0  0  0  0  0  0  0
    2.1716   -5.3420    0.0000 H   0  0  0  0  0  0  0  0  0  0  0  0
    2.9966   -4.5170    0.0000 H   0  0  0  0  0  0  0  0  0  0  0  0
    3.4988   -3.0374    0.0000 H   0  0  0  0  0  0  0  0  0  0  0  0
    3.5800   -4.2753    0.0000 H   0  0  0  0  0  0  0  0  0  0  0  0
    2.4133   -4.2753    0.0000 H   0  0  0  0  0  0  0  0  0  0  0  0
    1.6623   -2.9298    0.0000 H   0  0  0  0  0  0  0  0  0  0  0  0
    0.7633   -3.1086    0.0000 H   0  0  0  0  0  0  0  0  0  0  0  0
    0.5844   -4.0077    0.0000 H   0  0  0  0  0  0  0  0  0  0  0  0
  1  2  1  0  0  0  0
  2  3  4  0  0  0  0
  3  4  4  0  0  0  0
  4  5  1  0  0  0  0
  4  6  4  0  0  0  0
  6  7  4  0  0  0  0
  7  8  4  0  0  0  0
  2  8  4  0  0  0  0
  8  9  1  0  0  0  0
  9 10  1  0  0  0  0
 10 11  4  0  0  0  0
 11 12  4  0  0  0  0
 12 13  4  0  0  0  0
 13 14  1  0  0  0  0
 13 15  4  0  0  0  0
 15 16  4  0  0  0  0
 10 16  4  0  0  0  0
 16 17  1  0  0  0  0
 12 18  1  0  0  0  0
 18 19  1  0  0  0  0
 18 20  1  0  0  0  0
 18 21  1  0  0  0  0
  6 22  1  0  0  0  0
 22 23  1  0  0  0  0
 22 24  1  0  0  0  0
 22 25  1  0  0  0  0
  1 26  1  0  0  0  0
  1 27  1  0  0  0  0
  1 28  1  0  0  0  0
  3 29  1  0  0  0  0
  5 30  1  0  0  0  0
  7 31  1  0  0  0  0
 11 32  1  0  0  0  0
 14 33  1  0  0  0  0
 15 34  1  0  0  0  0
 17 35  1  0  0  0  0
 17 36  1  0  0  0  0
 17 37  1  0  0  0  0
 19 38  1  0  0  0  0
 19 39  1  0  0  0  0
 19 40  1  0  0  0  0
 20 41  1  0  0  0  0
 20 42  1  0  0  0  0
 20 43  1  0  0  0  0
 21 44  1  0  0  0  0
 21 45  1  0  0  0  0
 21 46  1  0  0  0  0
 23 47  1  0  0  0  0
 23 48  1  0  0  0  0
 23 49  1  0  0  0  0
 24 50  1  0  0  0  0
 24 51  1  0  0  0  0
 24 52  1  0  0  0  0
 25 53  1  0  0  0  0
 25 54  1  0  0  0  0
 25 55  1  0  0  0  0
M  END
>  <InChIKey>
HXIQYSLFEXIOAV-UHFFFAOYSA-N

>  <UN GHS>
2A

>  <CASRN>
96-69-5

> <Outcome>
1

>  <Index>
283

>  <StandardizerResult>
Dearomatize (ID: Dearomatize)
Clear Stereo (ID: ClearStereo)
Wedge Clean (ID: WedgeClean)
Mesomerize (ID: Mesomerize)
Tautomerize (ID: Tautomerize)
Aromatize (ID: Aromatize)
Add Explicit Hydrogens (ID: AddExplicitH)
Neutralize (ID: Neutralize)
Clean 2D (ID: Clean2D)

> <knn Distance>


> <CpId>
283

$$$$
284
  Mrv1532301301811342D          

 33 32  0  0  0  0            999 V2000
    2.2949    3.1659    0.0000 C   0  0  0  0  0  0  0  0  0  0  0  0
    1.5804    2.7534    0.0000 C   0  0  0  0  0  0  0  0  0  0  0  0
    1.5804    1.9284    0.0000 O   0  0  0  0  0  0  0  0  0  0  0  0
    0.8659    1.5159    0.0000 Si  0  0  0  0  0  0  0  0  0  0  0  0
    0.4534    2.2304    0.0000 C   0  0  0  0  0  0  0  0  0  0  0  0
    0.1515    1.1034    0.0000 C   0  0  0  0  0  0  0  0  0  0  0  0
   -0.5630    1.5159    0.0000 C   0  0  0  0  0  0  0  0  0  0  0  0
   -0.5630    2.3409    0.0000 C   0  0  0  0  0  0  0  0  0  0  0  0
   -1.2775    2.7534    0.0000 N   0  0  0  0  0  0  0  0  0  0  0  0
    1.2784    0.8015    0.0000 O   0  0  0  0  0  0  0  0  0  0  0  0
    0.8659    0.0870    0.0000 C   0  0  0  0  0  0  0  0  0  0  0  0
    0.0409    0.0870    0.0000 C   0  0  0  0  0  0  0  0  0  0  0  0
    2.7074    2.4515    0.0000 H   0  0  0  0  0  0  0  0  0  0  0  0
    3.0093    3.5784    0.0000 H   0  0  0  0  0  0  0  0  0  0  0  0
    1.8824    3.8804    0.0000 H   0  0  0  0  0  0  0  0  0  0  0  0
    1.1271    3.4427    0.0000 H   0  0  0  0  0  0  0  0  0  0  0  0
    0.7568    2.8014    0.0000 H   0  0  0  0  0  0  0  0  0  0  0  0
    0.0222    2.9337    0.0000 H   0  0  0  0  0  0  0  0  0  0  0  0
   -0.3714    2.2159    0.0000 H   0  0  0  0  0  0  0  0  0  0  0  0
    0.0472    1.5123    0.0000 H   0  0  0  0  0  0  0  0  0  0  0  0
   -0.2188    0.3662    0.0000 H   0  0  0  0  0  0  0  0  0  0  0  0
    0.5217    0.3662    0.0000 H   0  0  0  0  0  0  0  0  0  0  0  0
   -1.3866    1.4680    0.0000 H   0  0  0  0  0  0  0  0  0  0  0  0
   -1.0164    0.8267    0.0000 H   0  0  0  0  0  0  0  0  0  0  0  0
   -1.2775    1.9284    0.0000 H   0  0  0  0  0  0  0  0  0  0  0  0
   -0.6733    3.1585    0.0000 H   0  0  0  0  0  0  0  0  0  0  0  0
   -1.7587    3.4236    0.0000 H   0  0  0  0  0  0  0  0  0  0  0  0
   -2.1021    2.7799    0.0000 H   0  0  0  0  0  0  0  0  0  0  0  0
    0.9139   -0.7366    0.0000 H   0  0  0  0  0  0  0  0  0  0  0  0
    1.5552   -0.3663    0.0000 H   0  0  0  0  0  0  0  0  0  0  0  0
   -0.7723   -0.0520    0.0000 H   0  0  0  0  0  0  0  0  0  0  0  0
   -0.2885   -0.6694    0.0000 H   0  0  0  0  0  0  0  0  0  0  0  0
    0.4931   -0.6031    0.0000 H   0  0  0  0  0  0  0  0  0  0  0  0
  1  2  1  0  0  0  0
  2  3  1  0  0  0  0
  3  4  1  0  0  0  0
  4  5  1  0  0  0  0
  4  6  1  0  0  0  0
  6  7  1  0  0  0  0
  7  8  1  0  0  0  0
  8  9  1  0  0  0  0
  4 10  1  0  0  0  0
 10 11  1  0  0  0  0
 11 12  1  0  0  0  0
  1 13  1  0  0  0  0
  1 14  1  0  0  0  0
  1 15  1  0  0  0  0
  2 16  1  0  0  0  0
  2 17  1  0  0  0  0
  5 18  1  0  0  0  0
  5 19  1  0  0  0  0
  5 20  1  0  0  0  0
  6 21  1  0  0  0  0
  6 22  1  0  0  0  0
  7 23  1  0  0  0  0
  7 24  1  0  0  0  0
  8 25  1  0  0  0  0
  8 26  1  0  0  0  0
  9 27  1  0  0  0  0
  9 28  1  0  0  0  0
 11 29  1  0  0  0  0
 11 30  1  0  0  0  0
 12 31  1  0  0  0  0
 12 32  1  0  0  0  0
 12 33  1  0  0  0  0
M  END
>  <InChIKey>
HXLAEGYMDGUSBD-UHFFFAOYSA-N

>  <UN GHS>
1

>  <CASRN>
3179-76-8

> <Outcome>
1

>  <Index>
284

>  <StandardizerResult>
Clear Stereo (ID: ClearStereo)
Wedge Clean (ID: WedgeClean)
Mesomerize (ID: Mesomerize)
Tautomerize (ID: Tautomerize)
Add Explicit Hydrogens (ID: AddExplicitH)
Neutralize (ID: Neutralize)
Clean 2D (ID: Clean2D)

> <knn Distance>


> <CpId>
284

$$$$
285
  Mrv1532301301811342D          

 17 18  0  0  0  0            999 V2000
    0.8838   -2.1500    0.0000 C   0  0  0  0  0  0  0  0  0  0  0  0
    1.1387   -1.3654    0.0000 N   0  0  0  0  0  0  0  0  0  0  0  0
    0.6538   -0.6979    0.0000 N   0  0  0  0  0  0  0  0  0  0  0  0
    1.1387   -0.0305    0.0000 N   0  0  0  0  0  0  0  0  0  0  0  0
    1.9233   -0.2854    0.0000 C   0  0  0  0  0  0  0  0  0  0  0  0
    2.6378    0.1271    0.0000 C   0  0  0  0  0  0  0  0  0  0  0  0
    3.3523   -0.2854    0.0000 C   0  0  0  0  0  0  0  0  0  0  0  0
    3.3523   -1.1104    0.0000 C   0  0  0  0  0  0  0  0  0  0  0  0
    2.6378   -1.5229    0.0000 C   0  0  0  0  0  0  0  0  0  0  0  0
    1.9233   -1.1104    0.0000 C   0  0  0  0  0  0  0  0  0  0  0  0
    0.0992   -1.8950    0.0000 H   0  0  0  0  0  0  0  0  0  0  0  0
    0.6288   -2.9346    0.0000 H   0  0  0  0  0  0  0  0  0  0  0  0
    1.6684   -2.4049    0.0000 H   0  0  0  0  0  0  0  0  0  0  0  0
    2.6378    0.9521    0.0000 H   0  0  0  0  0  0  0  0  0  0  0  0
    4.0668    0.1271    0.0000 H   0  0  0  0  0  0  0  0  0  0  0  0
    4.0668   -1.5229    0.0000 H   0  0  0  0  0  0  0  0  0  0  0  0
    2.6378   -2.3479    0.0000 H   0  0  0  0  0  0  0  0  0  0  0  0
  1  2  1  0  0  0  0
  2  3  4  0  0  0  0
  3  4  4  0  0  0  0
  4  5  4  0  0  0  0
  5  6  4  0  0  0  0
  6  7  4  0  0  0  0
  7  8  4  0  0  0  0
  8  9  4  0  0  0  0
  9 10  4  0  0  0  0
  2 10  4  0  0  0  0
  5 10  4  0  0  0  0
  1 11  1  0  0  0  0
  1 12  1  0  0  0  0
  1 13  1  0  0  0  0
  6 14  1  0  0  0  0
  7 15  1  0  0  0  0
  8 16  1  0  0  0  0
  9 17  1  0  0  0  0
M  END
>  <InChIKey>
HXQHRUJXQJEGER-UHFFFAOYSA-N

>  <UN GHS>
2B

>  <CASRN>
29385-43-1

> <Outcome>
1

>  <Index>
285

>  <StandardizerResult>
Dearomatize (ID: Dearomatize)
Clear Stereo (ID: ClearStereo)
Wedge Clean (ID: WedgeClean)
Mesomerize (ID: Mesomerize)
Tautomerize (ID: Tautomerize)
Aromatize (ID: Aromatize)
Add Explicit Hydrogens (ID: AddExplicitH)
Neutralize (ID: Neutralize)
Clean 2D (ID: Clean2D)

> <knn Distance>


> <CpId>
285

$$$$
287
  Mrv1532301301811342D          

 11 11  0  0  0  0            999 V2000
   -0.1467    2.3518    0.0000 O   0  0  0  0  0  0  0  0  0  0  0  0
    0.5678    1.9393    0.0000 C   0  0  0  0  0  0  0  0  0  0  0  0
    0.5678    1.1143    0.0000 C   0  0  0  0  0  0  0  0  0  0  0  0
    1.2352    0.6294    0.0000 C   0  0  0  0  0  0  0  0  0  0  0  0
    0.9803   -0.1553    0.0000 C   0  0  0  0  0  0  0  0  0  0  0  0
    0.1553   -0.1553    0.0000 C   0  0  0  0  0  0  0  0  0  0  0  0
   -0.0997    0.6294    0.0000 O   0  0  0  0  0  0  0  0  0  0  0  0
    1.2823    2.3518    0.0000 H   0  0  0  0  0  0  0  0  0  0  0  0
    2.0198    0.8843    0.0000 H   0  0  0  0  0  0  0  0  0  0  0  0
    1.4652   -0.8227    0.0000 H   0  0  0  0  0  0  0  0  0  0  0  0
   -0.3296   -0.8227    0.0000 H   0  0  0  0  0  0  0  0  0  0  0  0
  1  2  2  0  0  0  0
  2  3  1  0  0  0  0
  3  4  4  0  0  0  0
  4  5  4  0  0  0  0
  5  6  4  0  0  0  0
  6  7  4  0  0  0  0
  3  7  4  0  0  0  0
  2  8  1  0  0  0  0
  4  9  1  0  0  0  0
  5 10  1  0  0  0  0
  6 11  1  0  0  0  0
M  END
>  <InChIKey>
HYBBIBNJHNGZAN-UHFFFAOYSA-N

>  <UN GHS>
2A

>  <CASRN>
98-01-1

> <Outcome>
1

>  <Index>
287

>  <StandardizerResult>
Dearomatize (ID: Dearomatize)
Clear Stereo (ID: ClearStereo)
Wedge Clean (ID: WedgeClean)
Mesomerize (ID: Mesomerize)
Tautomerize (ID: Tautomerize)
Aromatize (ID: Aromatize)
Add Explicit Hydrogens (ID: AddExplicitH)
Neutralize (ID: Neutralize)
Clean 2D (ID: Clean2D)

> <knn Distance>


> <CpId>
287

$$$$
288
  Mrv1532301301811342D          

 11 10  0  0  0  0            999 V2000
    2.0625   -0.7145    0.0000 N   0  0  0  0  0  0  0  0  0  0  0  0
    1.2375   -0.7145    0.0000 C   0  0  0  0  0  0  0  0  0  0  0  0
    0.8250   -0.0000    0.0000 C   0  0  0  0  0  0  0  0  0  0  0  0
    0.0000   -0.0000    0.0000 O   0  0  0  0  0  0  0  0  0  0  0  0
    2.4750   -1.4290    0.0000 H   0  0  0  0  0  0  0  0  0  0  0  0
    2.4750   -0.0000    0.0000 H   0  0  0  0  0  0  0  0  0  0  0  0
    0.5482   -1.1678    0.0000 H   0  0  0  0  0  0  0  0  0  0  0  0
    1.1895   -1.5381    0.0000 H   0  0  0  0  0  0  0  0  0  0  0  0
    1.5143    0.4533    0.0000 H   0  0  0  0  0  0  0  0  0  0  0  0
    0.8730    0.8236    0.0000 H   0  0  0  0  0  0  0  0  0  0  0  0
   -0.4125    0.7145    0.0000 H   0  0  0  0  0  0  0  0  0  0  0  0
  1  2  1  0  0  0  0
  2  3  1  0  0  0  0
  3  4  1  0  0  0  0
  1  5  1  0  0  0  0
  1  6  1  0  0  0  0
  2  7  1  0  0  0  0
  2  8  1  0  0  0  0
  3  9  1  0  0  0  0
  3 10  1  0  0  0  0
  4 11  1  0  0  0  0
M  END
>  <InChIKey>
HZAXFHJVJLSVMW-UHFFFAOYSA-N

>  <UN GHS>
1

>  <CASRN>
141-43-5

> <Outcome>
1

>  <Index>
288

>  <StandardizerResult>
Clear Stereo (ID: ClearStereo)
Wedge Clean (ID: WedgeClean)
Mesomerize (ID: Mesomerize)
Tautomerize (ID: Tautomerize)
Add Explicit Hydrogens (ID: AddExplicitH)
Neutralize (ID: Neutralize)
Clean 2D (ID: Clean2D)

> <knn Distance>


> <CpId>
288

$$$$
292
  Mrv1532301301811342D          

 10  9  0  0  0  0            999 V2000
    1.2375    0.7145    0.0000 C   0  0  0  0  0  0  0  0  0  0  0  0
    0.8250   -0.0000    0.0000 S   0  0  0  0  0  0  0  0  0  0  0  0
    1.2375   -0.7145    0.0000 C   0  0  0  0  0  0  0  0  0  0  0  0
   -0.0000   -0.0000    0.0000 O   0  0  0  0  0  0  0  0  0  0  0  0
    1.9520    0.3020    0.0000 H   0  0  0  0  0  0  0  0  0  0  0  0
    1.6500    1.4289    0.0000 H   0  0  0  0  0  0  0  0  0  0  0  0
    0.5230    1.1270    0.0000 H   0  0  0  0  0  0  0  0  0  0  0  0
    0.5230   -1.1270    0.0000 H   0  0  0  0  0  0  0  0  0  0  0  0
    1.6500   -1.4289    0.0000 H   0  0  0  0  0  0  0  0  0  0  0  0
    1.9520   -0.3020    0.0000 H   0  0  0  0  0  0  0  0  0  0  0  0
  1  2  1  0  0  0  0
  2  3  1  0  0  0  0
  2  4  2  0  0  0  0
  1  5  1  0  0  0  0
  1  6  1  0  0  0  0
  1  7  1  0  0  0  0
  3  8  1  0  0  0  0
  3  9  1  0  0  0  0
  3 10  1  0  0  0  0
M  END
>  <InChIKey>
IAZDPXIOMUYVGZ-UHFFFAOYSA-N

>  <UN GHS>
2B

>  <CASRN>
67-68-5

> <Outcome>
1

>  <Index>
292

>  <StandardizerResult>
Clear Stereo (ID: ClearStereo)
Wedge Clean (ID: WedgeClean)
Mesomerize (ID: Mesomerize)
Tautomerize (ID: Tautomerize)
Add Explicit Hydrogens (ID: AddExplicitH)
Neutralize (ID: Neutralize)
Clean 2D (ID: Clean2D)

> <knn Distance>


> <CpId>
292

$$$$
295
  Mrv1532301301811342D          

 23 23  0  0  0  0            999 V2000
   -0.7186    3.6949    0.0000 C   0  0  0  0  0  0  0  0  0  0  0  0
   -0.0041    3.2824    0.0000 C   0  0  0  0  0  0  0  0  0  0  0  0
    0.7103    3.6949    0.0000 O   0  0  0  0  0  0  0  0  0  0  0  0
   -0.0041    2.4574    0.0000 C   0  0  0  0  0  0  0  0  0  0  0  0
    0.7103    2.0449    0.0000 O   0  0  0  0  0  0  0  0  0  0  0  0
    0.7103    1.2199    0.0000 C   0  0  0  0  0  0  0  0  0  0  0  0
    1.4248    0.8074    0.0000 C   0  0  0  0  0  0  0  0  0  0  0  0
    1.4248   -0.0176    0.0000 C   0  0  0  0  0  0  0  0  0  0  0  0
    0.7103   -0.4301    0.0000 C   0  0  0  0  0  0  0  0  0  0  0  0
   -0.0041   -0.0176    0.0000 C   0  0  0  0  0  0  0  0  0  0  0  0
   -0.0041    0.8074    0.0000 C   0  0  0  0  0  0  0  0  0  0  0  0
   -0.3061    4.4094    0.0000 H   0  0  0  0  0  0  0  0  0  0  0  0
   -1.4331    4.1074    0.0000 H   0  0  0  0  0  0  0  0  0  0  0  0
   -1.1311    2.9805    0.0000 H   0  0  0  0  0  0  0  0  0  0  0  0
   -0.0041    4.1074    0.0000 H   0  0  0  0  0  0  0  0  0  0  0  0
    1.5353    3.6949    0.0000 H   0  0  0  0  0  0  0  0  0  0  0  0
   -0.8277    2.4095    0.0000 H   0  0  0  0  0  0  0  0  0  0  0  0
   -0.4575    1.7682    0.0000 H   0  0  0  0  0  0  0  0  0  0  0  0
    2.1393    1.2199    0.0000 H   0  0  0  0  0  0  0  0  0  0  0  0
    2.1393   -0.4301    0.0000 H   0  0  0  0  0  0  0  0  0  0  0  0
    0.7103   -1.2551    0.0000 H   0  0  0  0  0  0  0  0  0  0  0  0
   -0.7186   -0.4301    0.0000 H   0  0  0  0  0  0  0  0  0  0  0  0
   -0.7186    1.2199    0.0000 H   0  0  0  0  0  0  0  0  0  0  0  0
  1  2  1  0  0  0  0
  2  3  1  0  0  0  0
  2  4  1  0  0  0  0
  4  5  1  0  0  0  0
  5  6  1  0  0  0  0
  6  7  4  0  0  0  0
  7  8  4  0  0  0  0
  8  9  4  0  0  0  0
  9 10  4  0  0  0  0
 10 11  4  0  0  0  0
  6 11  4  0  0  0  0
  1 12  1  0  0  0  0
  1 13  1  0  0  0  0
  1 14  1  0  0  0  0
  2 15  1  0  0  0  0
  3 16  1  0  0  0  0
  4 17  1  0  0  0  0
  4 18  1  0  0  0  0
  7 19  1  0  0  0  0
  8 20  1  0  0  0  0
  9 21  1  0  0  0  0
 10 22  1  0  0  0  0
 11 23  1  0  0  0  0
M  END
>  <InChIKey>
IBLKWZIFZMJLFL-UHFFFAOYSA-N

>  <UN GHS>
2A

>  <CASRN>
770-35-4

> <Outcome>
1

>  <Index>
295

>  <StandardizerResult>
Dearomatize (ID: Dearomatize)
Clear Stereo (ID: ClearStereo)
Wedge Clean (ID: WedgeClean)
Mesomerize (ID: Mesomerize)
Tautomerize (ID: Tautomerize)
Aromatize (ID: Aromatize)
Add Explicit Hydrogens (ID: AddExplicitH)
Neutralize (ID: Neutralize)
Clean 2D (ID: Clean2D)

> <knn Distance>


> <CpId>
295

$$$$
302
  Mrv1532301301811342D          

 12 11  0  0  0  0            999 V2000
    2.4750   -1.4289    0.0000 C   0  0  0  0  0  0  0  0  0  0  0  0
    2.0625   -0.7145    0.0000 O   0  0  0  0  0  0  0  0  0  0  0  0
    1.2375   -0.7145    0.0000 C   0  0  0  0  0  0  0  0  0  0  0  0
    0.8250   -1.4289    0.0000 O   0  0  0  0  0  0  0  0  0  0  0  0
    0.8250    0.0000    0.0000 O   0  0  0  0  0  0  0  0  0  0  0  0
    0.0000    0.0000    0.0000 C   0  0  0  0  0  0  0  0  0  0  0  0
    1.7605   -1.8414    0.0000 H   0  0  0  0  0  0  0  0  0  0  0  0
    2.8875   -2.1434    0.0000 H   0  0  0  0  0  0  0  0  0  0  0  0
    3.1895   -1.0164    0.0000 H   0  0  0  0  0  0  0  0  0  0  0  0
    0.0000    0.8250    0.0000 H   0  0  0  0  0  0  0  0  0  0  0  0
   -0.8250    0.0000    0.0000 H   0  0  0  0  0  0  0  0  0  0  0  0
    0.0000   -0.8250    0.0000 H   0  0  0  0  0  0  0  0  0  0  0  0
  1  2  1  0  0  0  0
  2  3  1  0  0  0  0
  3  4  2  0  0  0  0
  3  5  1  0  0  0  0
  5  6  1  0  0  0  0
  1  7  1  0  0  0  0
  1  8  1  0  0  0  0
  1  9  1  0  0  0  0
  6 10  1  0  0  0  0
  6 11  1  0  0  0  0
  6 12  1  0  0  0  0
M  END
>  <InChIKey>
IEJIGPNLZYLLBP-UHFFFAOYSA-N

>  <UN GHS>
2A

>  <CASRN>
616-38-6

> <Outcome>
1

>  <Index>
302

>  <StandardizerResult>
Clear Stereo (ID: ClearStereo)
Wedge Clean (ID: WedgeClean)
Mesomerize (ID: Mesomerize)
Tautomerize (ID: Tautomerize)
Add Explicit Hydrogens (ID: AddExplicitH)
Neutralize (ID: Neutralize)
Clean 2D (ID: Clean2D)

> <knn Distance>


> <CpId>
302

$$$$
303
  Mrv1532301301811342D          

 24 23  0  0  0  0            999 V2000
    3.3011    1.4283    0.0000 C   0  0  0  0  0  0  0  0  0  0  0  0
    2.4761    1.4283    0.0000 C   0  0  0  0  0  0  0  0  0  0  0  0
    2.0636    0.7138    0.0000 O   0  0  0  0  0  0  0  0  0  0  0  0
    1.2386    0.7138    0.0000 C   0  0  0  0  0  0  0  0  0  0  0  0
    0.8261    1.4283    0.0000 O   0  0  0  0  0  0  0  0  0  0  0  0
    0.8261   -0.0006    0.0000 C   0  0  0  0  0  0  0  0  0  0  0  0
    0.0011   -0.0006    0.0000 C   0  0  0  0  0  0  0  0  0  0  0  0
   -0.4114   -0.7151    0.0000 C   0  0  0  0  0  0  0  0  0  0  0  0
   -1.2364   -0.7151    0.0000 O   0  0  0  0  0  0  0  0  0  0  0  0
    0.0011   -1.4296    0.0000 O   0  0  0  0  0  0  0  0  0  0  0  0
   -0.4114   -2.1441    0.0000 C   0  0  0  0  0  0  0  0  0  0  0  0
    0.0011   -2.8585    0.0000 C   0  0  0  0  0  0  0  0  0  0  0  0
    3.3011    0.6033    0.0000 H   0  0  0  0  0  0  0  0  0  0  0  0
    4.1261    1.4283    0.0000 H   0  0  0  0  0  0  0  0  0  0  0  0
    3.3011    2.2533    0.0000 H   0  0  0  0  0  0  0  0  0  0  0  0
    2.4281    2.2519    0.0000 H   0  0  0  0  0  0  0  0  0  0  0  0
    1.7868    1.8816    0.0000 H   0  0  0  0  0  0  0  0  0  0  0  0
    1.2386   -0.7151    0.0000 H   0  0  0  0  0  0  0  0  0  0  0  0
   -0.4114    0.7138    0.0000 H   0  0  0  0  0  0  0  0  0  0  0  0
   -1.1486   -1.7738    0.0000 H   0  0  0  0  0  0  0  0  0  0  0  0
   -1.1486   -2.5143    0.0000 H   0  0  0  0  0  0  0  0  0  0  0  0
   -0.7134   -3.2710    0.0000 H   0  0  0  0  0  0  0  0  0  0  0  0
    0.4136   -3.5730    0.0000 H   0  0  0  0  0  0  0  0  0  0  0  0
    0.7156   -2.4460    0.0000 H   0  0  0  0  0  0  0  0  0  0  0  0
  1  2  1  0  0  0  0
  2  3  1  0  0  0  0
  3  4  1  0  0  0  0
  4  5  2  0  0  0  0
  6  4  1  4  0  0  0
  6  7  2  0  0  0  0
  7  8  1  0  0  0  0
  8  9  2  0  0  0  0
  8 10  1  0  0  0  0
 10 11  1  0  0  0  0
 11 12  1  0  0  0  0
  1 13  1  0  0  0  0
  1 14  1  0  0  0  0
  1 15  1  0  0  0  0
  2 16  1  0  0  0  0
  2 17  1  0  0  0  0
  6 18  1  0  0  0  0
  7 19  1  0  0  0  0
 11 20  1  0  0  0  0
 11 21  1  0  0  0  0
 12 22  1  0  0  0  0
 12 23  1  0  0  0  0
 12 24  1  0  0  0  0
M  END
>  <InChIKey>
IEPRKVQEAMIZSS-UHFFFAOYSA-N

>  <UN GHS>
2B

>  <CASRN>
141-05-9

> <Outcome>
1

>  <Index>
303

>  <StandardizerResult>
Clear Stereo (ID: ClearStereo)
Wedge Clean (ID: WedgeClean)
Mesomerize (ID: Mesomerize)
Tautomerize (ID: Tautomerize)
Add Explicit Hydrogens (ID: AddExplicitH)
Neutralize (ID: Neutralize)
Clean 2D (ID: Clean2D)

> <knn Distance>


> <CpId>
303

$$$$
304
  Mrv1532301301811342D          

200199  0  0  0  0            999 V2000
   46.8336   27.8643    0.0000 C   0  0  0  0  0  0  0  0  0  0  0  0
   47.5480   28.2768    0.0000 C   0  0  0  0  0  0  0  0  0  0  0  0
   48.2625   27.8643    0.0000 C   0  0  0  0  0  0  0  0  0  0  0  0
   48.9770   28.2768    0.0000 C   0  0  0  0  0  0  0  0  0  0  0  0
   49.6914   27.8643    0.0000 C   0  0  0  0  0  0  0  0  0  0  0  0
   50.4059   28.2768    0.0000 C   0  0  0  0  0  0  0  0  0  0  0  0
   51.1204   27.8643    0.0000 C   0  0  0  0  0  0  0  0  0  0  0  0
   51.8349   28.2768    0.0000 C   0  0  0  0  0  0  0  0  0  0  0  0
   52.5493   27.8643    0.0000 C   0  0  0  0  0  0  0  0  0  0  0  0
   53.2638   28.2768    0.0000 C   0  0  0  0  0  0  0  0  0  0  0  0
   53.9783   27.8643    0.0000 C   0  0  0  0  0  0  0  0  0  0  0  0
   54.6927   28.2768    0.0000 C   0  0  0  0  0  0  0  0  0  0  0  0
   55.4072   27.8643    0.0000 O   0  0  0  0  0  0  0  0  0  0  0  0
   56.1217   28.2768    0.0000 C   0  0  0  0  0  0  0  0  0  0  0  0
   56.8362   27.8643    0.0000 C   0  0  0  0  0  0  0  0  0  0  0  0
   57.5506   28.2768    0.0000 O   0  0  0  0  0  0  0  0  0  0  0  0
   58.2651   27.8643    0.0000 C   0  0  0  0  0  0  0  0  0  0  0  0
   58.9796   28.2768    0.0000 C   0  0  0  0  0  0  0  0  0  0  0  0
   59.6940   27.8643    0.0000 O   0  0  0  0  0  0  0  0  0  0  0  0
   60.4085   28.2768    0.0000 C   0  0  0  0  0  0  0  0  0  0  0  0
   61.1230   27.8643    0.0000 C   0  0  0  0  0  0  0  0  0  0  0  0
   61.8374   28.2768    0.0000 O   0  0  0  0  0  0  0  0  0  0  0  0
   62.5519   27.8643    0.0000 C   0  0  0  0  0  0  0  0  0  0  0  0
   63.2664   28.2768    0.0000 C   0  0  0  0  0  0  0  0  0  0  0  0
   63.9809   27.8643    0.0000 O   0  0  0  0  0  0  0  0  0  0  0  0
   64.6953   28.2768    0.0000 C   0  0  0  0  0  0  0  0  0  0  0  0
   65.4098   27.8643    0.0000 C   0  0  0  0  0  0  0  0  0  0  0  0
   66.1243   28.2768    0.0000 O   0  0  0  0  0  0  0  0  0  0  0  0
   66.8387   27.8643    0.0000 C   0  0  0  0  0  0  0  0  0  0  0  0
   67.5532   28.2768    0.0000 C   0  0  0  0  0  0  0  0  0  0  0  0
   68.2677   27.8643    0.0000 O   0  0  0  0  0  0  0  0  0  0  0  0
   68.9822   28.2768    0.0000 C   0  0  0  0  0  0  0  0  0  0  0  0
   69.6966   27.8643    0.0000 C   0  0  0  0  0  0  0  0  0  0  0  0
   70.4111   28.2768    0.0000 O   0  0  0  0  0  0  0  0  0  0  0  0
   71.1256   27.8643    0.0000 C   0  0  0  0  0  0  0  0  0  0  0  0
   71.8400   28.2768    0.0000 C   0  0  0  0  0  0  0  0  0  0  0  0
   72.5545   27.8643    0.0000 O   0  0  0  0  0  0  0  0  0  0  0  0
   73.2690   28.2768    0.0000 C   0  0  0  0  0  0  0  0  0  0  0  0
   73.9835   27.8643    0.0000 C   0  0  0  0  0  0  0  0  0  0  0  0
   74.6979   28.2768    0.0000 O   0  0  0  0  0  0  0  0  0  0  0  0
   75.4124   27.8643    0.0000 C   0  0  0  0  0  0  0  0  0  0  0  0
   76.1269   28.2768    0.0000 C   0  0  0  0  0  0  0  0  0  0  0  0
   76.8413   27.8643    0.0000 O   0  0  0  0  0  0  0  0  0  0  0  0
   77.5558   28.2768    0.0000 C   0  0  0  0  0  0  0  0  0  0  0  0
   78.2703   27.8643    0.0000 C   0  0  0  0  0  0  0  0  0  0  0  0
   78.9848   28.2768    0.0000 O   0  0  0  0  0  0  0  0  0  0  0  0
   79.6992   27.8643    0.0000 C   0  0  0  0  0  0  0  0  0  0  0  0
   80.4137   28.2768    0.0000 C   0  0  0  0  0  0  0  0  0  0  0  0
   81.1282   27.8643    0.0000 O   0  0  0  0  0  0  0  0  0  0  0  0
   81.8426   28.2768    0.0000 C   0  0  0  0  0  0  0  0  0  0  0  0
   82.5571   27.8643    0.0000 C   0  0  0  0  0  0  0  0  0  0  0  0
   83.2716   28.2768    0.0000 O   0  0  0  0  0  0  0  0  0  0  0  0
   83.9860   27.8643    0.0000 C   0  0  0  0  0  0  0  0  0  0  0  0
   84.7005   28.2768    0.0000 C   0  0  0  0  0  0  0  0  0  0  0  0
   85.4150   27.8643    0.0000 O   0  0  0  0  0  0  0  0  0  0  0  0
   86.1295   28.2768    0.0000 C   0  0  0  0  0  0  0  0  0  0  0  0
   86.8439   27.8643    0.0000 C   0  0  0  0  0  0  0  0  0  0  0  0
   87.5584   28.2768    0.0000 O   0  0  0  0  0  0  0  0  0  0  0  0
   88.2729   27.8643    0.0000 C   0  0  0  0  0  0  0  0  0  0  0  0
   88.9873   28.2768    0.0000 C   0  0  0  0  0  0  0  0  0  0  0  0
   89.7018   27.8643    0.0000 O   0  0  0  0  0  0  0  0  0  0  0  0
   90.4163   28.2768    0.0000 C   0  0  0  0  0  0  0  0  0  0  0  0
   91.1308   27.8643    0.0000 C   0  0  0  0  0  0  0  0  0  0  0  0
   91.8452   28.2768    0.0000 O   0  0  0  0  0  0  0  0  0  0  0  0
   92.5597   27.8643    0.0000 C   0  0  0  0  0  0  0  0  0  0  0  0
   93.2742   28.2768    0.0000 C   0  0  0  0  0  0  0  0  0  0  0  0
   93.9886   27.8643    0.0000 O   0  0  0  0  0  0  0  0  0  0  0  0
   94.7031   28.2768    0.0000 C   0  0  0  0  0  0  0  0  0  0  0  0
   95.4176   27.8643    0.0000 C   0  0  0  0  0  0  0  0  0  0  0  0
   96.1321   28.2768    0.0000 O   0  0  0  0  0  0  0  0  0  0  0  0
   96.8465   27.8643    0.0000 C   0  0  0  0  0  0  0  0  0  0  0  0
   97.5610   28.2768    0.0000 C   0  0  0  0  0  0  0  0  0  0  0  0
   98.2755   27.8643    0.0000 O   0  0  0  0  0  0  0  0  0  0  0  0
   98.9899   28.2768    0.0000 C   0  0  0  0  0  0  0  0  0  0  0  0
   99.7044   27.8643    0.0000 C   0  0  0  0  0  0  0  0  0  0  0  0
  100.4189   28.2768    0.0000 O   0  0  0  0  0  0  0  0  0  0  0  0
  101.1334   27.8643    0.0000 C   0  0  0  0  0  0  0  0  0  0  0  0
  101.8478   28.2768    0.0000 C   0  0  0  0  0  0  0  0  0  0  0  0
  102.5623   27.8643    0.0000 O   0  0  0  0  0  0  0  0  0  0  0  0
  103.2768   28.2768    0.0000 C   0  0  0  0  0  0  0  0  0  0  0  0
  103.9912   27.8643    0.0000 C   0  0  0  0  0  0  0  0  0  0  0  0
  104.7057   28.2768    0.0000 O   0  0  0  0  0  0  0  0  0  0  0  0
   46.4211   28.5788    0.0000 H   0  0  0  0  0  0  0  0  0  0  0  0
   46.1191   27.4518    0.0000 H   0  0  0  0  0  0  0  0  0  0  0  0
   47.2461   27.1498    0.0000 H   0  0  0  0  0  0  0  0  0  0  0  0
   47.9183   29.0141    0.0000 H   0  0  0  0  0  0  0  0  0  0  0  0
   47.1778   29.0141    0.0000 H   0  0  0  0  0  0  0  0  0  0  0  0
   47.8922   27.1271    0.0000 H   0  0  0  0  0  0  0  0  0  0  0  0
   48.6328   27.1271    0.0000 H   0  0  0  0  0  0  0  0  0  0  0  0
   49.3472   29.0141    0.0000 H   0  0  0  0  0  0  0  0  0  0  0  0
   48.6067   29.0141    0.0000 H   0  0  0  0  0  0  0  0  0  0  0  0
   49.3212   27.1271    0.0000 H   0  0  0  0  0  0  0  0  0  0  0  0
   50.0617   27.1271    0.0000 H   0  0  0  0  0  0  0  0  0  0  0  0
   50.7762   29.0141    0.0000 H   0  0  0  0  0  0  0  0  0  0  0  0
   50.0357   29.0141    0.0000 H   0  0  0  0  0  0  0  0  0  0  0  0
   50.7501   27.1271    0.0000 H   0  0  0  0  0  0  0  0  0  0  0  0
   51.4906   27.1271    0.0000 H   0  0  0  0  0  0  0  0  0  0  0  0
   52.2051   29.0141    0.0000 H   0  0  0  0  0  0  0  0  0  0  0  0
   51.4646   29.0141    0.0000 H   0  0  0  0  0  0  0  0  0  0  0  0
   52.1791   27.1271    0.0000 H   0  0  0  0  0  0  0  0  0  0  0  0
   52.9196   27.1271    0.0000 H   0  0  0  0  0  0  0  0  0  0  0  0
   53.6341   29.0141    0.0000 H   0  0  0  0  0  0  0  0  0  0  0  0
   52.8935   29.0141    0.0000 H   0  0  0  0  0  0  0  0  0  0  0  0
   53.6080   27.1271    0.0000 H   0  0  0  0  0  0  0  0  0  0  0  0
   54.3485   27.1271    0.0000 H   0  0  0  0  0  0  0  0  0  0  0  0
   55.0630   29.0141    0.0000 H   0  0  0  0  0  0  0  0  0  0  0  0
   54.3225   29.0141    0.0000 H   0  0  0  0  0  0  0  0  0  0  0  0
   56.4919   29.0141    0.0000 H   0  0  0  0  0  0  0  0  0  0  0  0
   55.7514   29.0141    0.0000 H   0  0  0  0  0  0  0  0  0  0  0  0
   56.4659   27.1271    0.0000 H   0  0  0  0  0  0  0  0  0  0  0  0
   57.2064   27.1271    0.0000 H   0  0  0  0  0  0  0  0  0  0  0  0
   57.8948   27.1271    0.0000 H   0  0  0  0  0  0  0  0  0  0  0  0
   58.6354   27.1271    0.0000 H   0  0  0  0  0  0  0  0  0  0  0  0
   59.3498   29.0141    0.0000 H   0  0  0  0  0  0  0  0  0  0  0  0
   58.6093   29.0141    0.0000 H   0  0  0  0  0  0  0  0  0  0  0  0
   60.7788   29.0141    0.0000 H   0  0  0  0  0  0  0  0  0  0  0  0
   60.0382   29.0141    0.0000 H   0  0  0  0  0  0  0  0  0  0  0  0
   60.7527   27.1271    0.0000 H   0  0  0  0  0  0  0  0  0  0  0  0
   61.4932   27.1271    0.0000 H   0  0  0  0  0  0  0  0  0  0  0  0
   62.1817   27.1271    0.0000 H   0  0  0  0  0  0  0  0  0  0  0  0
   62.9222   27.1271    0.0000 H   0  0  0  0  0  0  0  0  0  0  0  0
   63.6367   29.0141    0.0000 H   0  0  0  0  0  0  0  0  0  0  0  0
   62.8961   29.0141    0.0000 H   0  0  0  0  0  0  0  0  0  0  0  0
   65.0656   29.0141    0.0000 H   0  0  0  0  0  0  0  0  0  0  0  0
   64.3251   29.0141    0.0000 H   0  0  0  0  0  0  0  0  0  0  0  0
   65.0395   27.1271    0.0000 H   0  0  0  0  0  0  0  0  0  0  0  0
   65.7801   27.1271    0.0000 H   0  0  0  0  0  0  0  0  0  0  0  0
   66.4685   27.1271    0.0000 H   0  0  0  0  0  0  0  0  0  0  0  0
   67.2090   27.1271    0.0000 H   0  0  0  0  0  0  0  0  0  0  0  0
   67.9235   29.0141    0.0000 H   0  0  0  0  0  0  0  0  0  0  0  0
   67.1830   29.0141    0.0000 H   0  0  0  0  0  0  0  0  0  0  0  0
   69.3524   29.0141    0.0000 H   0  0  0  0  0  0  0  0  0  0  0  0
   68.6119   29.0141    0.0000 H   0  0  0  0  0  0  0  0  0  0  0  0
   69.3264   27.1271    0.0000 H   0  0  0  0  0  0  0  0  0  0  0  0
   70.0669   27.1271    0.0000 H   0  0  0  0  0  0  0  0  0  0  0  0
   70.7553   27.1271    0.0000 H   0  0  0  0  0  0  0  0  0  0  0  0
   71.4958   27.1271    0.0000 H   0  0  0  0  0  0  0  0  0  0  0  0
   72.2103   29.0141    0.0000 H   0  0  0  0  0  0  0  0  0  0  0  0
   71.4698   29.0141    0.0000 H   0  0  0  0  0  0  0  0  0  0  0  0
   73.6392   29.0141    0.0000 H   0  0  0  0  0  0  0  0  0  0  0  0
   72.8987   29.0141    0.0000 H   0  0  0  0  0  0  0  0  0  0  0  0
   73.6132   27.1271    0.0000 H   0  0  0  0  0  0  0  0  0  0  0  0
   74.3537   27.1271    0.0000 H   0  0  0  0  0  0  0  0  0  0  0  0
   75.0421   27.1271    0.0000 H   0  0  0  0  0  0  0  0  0  0  0  0
   75.7827   27.1271    0.0000 H   0  0  0  0  0  0  0  0  0  0  0  0
   76.4971   29.0141    0.0000 H   0  0  0  0  0  0  0  0  0  0  0  0
   75.7566   29.0141    0.0000 H   0  0  0  0  0  0  0  0  0  0  0  0
   77.9261   29.0141    0.0000 H   0  0  0  0  0  0  0  0  0  0  0  0
   77.1856   29.0141    0.0000 H   0  0  0  0  0  0  0  0  0  0  0  0
   77.9000   27.1271    0.0000 H   0  0  0  0  0  0  0  0  0  0  0  0
   78.6405   27.1271    0.0000 H   0  0  0  0  0  0  0  0  0  0  0  0
   79.3290   27.1271    0.0000 H   0  0  0  0  0  0  0  0  0  0  0  0
   80.0695   27.1271    0.0000 H   0  0  0  0  0  0  0  0  0  0  0  0
   80.7840   29.0141    0.0000 H   0  0  0  0  0  0  0  0  0  0  0  0
   80.0434   29.0141    0.0000 H   0  0  0  0  0  0  0  0  0  0  0  0
   82.2129   29.0141    0.0000 H   0  0  0  0  0  0  0  0  0  0  0  0
   81.4724   29.0141    0.0000 H   0  0  0  0  0  0  0  0  0  0  0  0
   82.1868   27.1271    0.0000 H   0  0  0  0  0  0  0  0  0  0  0  0
   82.9274   27.1271    0.0000 H   0  0  0  0  0  0  0  0  0  0  0  0
   83.6158   27.1271    0.0000 H   0  0  0  0  0  0  0  0  0  0  0  0
   84.3563   27.1271    0.0000 H   0  0  0  0  0  0  0  0  0  0  0  0
   85.0708   29.0141    0.0000 H   0  0  0  0  0  0  0  0  0  0  0  0
   84.3303   29.0141    0.0000 H   0  0  0  0  0  0  0  0  0  0  0  0
   86.4997   29.0141    0.0000 H   0  0  0  0  0  0  0  0  0  0  0  0
   85.7592   29.0141    0.0000 H   0  0  0  0  0  0  0  0  0  0  0  0
   86.4737   27.1271    0.0000 H   0  0  0  0  0  0  0  0  0  0  0  0
   87.2142   27.1271    0.0000 H   0  0  0  0  0  0  0  0  0  0  0  0
   87.9026   27.1271    0.0000 H   0  0  0  0  0  0  0  0  0  0  0  0
   88.6431   27.1271    0.0000 H   0  0  0  0  0  0  0  0  0  0  0  0
   89.3576   29.0141    0.0000 H   0  0  0  0  0  0  0  0  0  0  0  0
   88.6171   29.0141    0.0000 H   0  0  0  0  0  0  0  0  0  0  0  0
   90.7865   29.0141    0.0000 H   0  0  0  0  0  0  0  0  0  0  0  0
   90.0460   29.0141    0.0000 H   0  0  0  0  0  0  0  0  0  0  0  0
   90.7605   27.1271    0.0000 H   0  0  0  0  0  0  0  0  0  0  0  0
   91.5010   27.1271    0.0000 H   0  0  0  0  0  0  0  0  0  0  0  0
   92.1894   27.1271    0.0000 H   0  0  0  0  0  0  0  0  0  0  0  0
   92.9300   27.1271    0.0000 H   0  0  0  0  0  0  0  0  0  0  0  0
   93.6444   29.0141    0.0000 H   0  0  0  0  0  0  0  0  0  0  0  0
   92.9039   29.0141    0.0000 H   0  0  0  0  0  0  0  0  0  0  0  0
   95.0734   29.0141    0.0000 H   0  0  0  0  0  0  0  0  0  0  0  0
   94.3329   29.0141    0.0000 H   0  0  0  0  0  0  0  0  0  0  0  0
   95.0473   27.1271    0.0000 H   0  0  0  0  0  0  0  0  0  0  0  0
   95.7878   27.1271    0.0000 H   0  0  0  0  0  0  0  0  0  0  0  0
   96.4763   27.1271    0.0000 H   0  0  0  0  0  0  0  0  0  0  0  0
   97.2168   27.1271    0.0000 H   0  0  0  0  0  0  0  0  0  0  0  0
   97.9313   29.0141    0.0000 H   0  0  0  0  0  0  0  0  0  0  0  0
   97.1907   29.0141    0.0000 H   0  0  0  0  0  0  0  0  0  0  0  0
   99.3602   29.0141    0.0000 H   0  0  0  0  0  0  0  0  0  0  0  0
   98.6197   29.0141    0.0000 H   0  0  0  0  0  0  0  0  0  0  0  0
   99.3342   27.1271    0.0000 H   0  0  0  0  0  0  0  0  0  0  0  0
  100.0747   27.1271    0.0000 H   0  0  0  0  0  0  0  0  0  0  0  0
  100.7631   27.1271    0.0000 H   0  0  0  0  0  0  0  0  0  0  0  0
  101.5036   27.1271    0.0000 H   0  0  0  0  0  0  0  0  0  0  0  0
  102.2181   29.0141    0.0000 H   0  0  0  0  0  0  0  0  0  0  0  0
  101.4776   29.0141    0.0000 H   0  0  0  0  0  0  0  0  0  0  0  0
  103.6470   29.0141    0.0000 H   0  0  0  0  0  0  0  0  0  0  0  0
  102.9065   29.0141    0.0000 H   0  0  0  0  0  0  0  0  0  0  0  0
  103.6210   27.1271    0.0000 H   0  0  0  0  0  0  0  0  0  0  0  0
  104.3615   27.1271    0.0000 H   0  0  0  0  0  0  0  0  0  0  0  0
  105.4202   27.8643    0.0000 H   0  0  0  0  0  0  0  0  0  0  0  0
  1  2  1  0  0  0  0
  2  3  1  0  0  0  0
  3  4  1  0  0  0  0
  4  5  1  0  0  0  0
  5  6  1  0  0  0  0
  6  7  1  0  0  0  0
  7  8  1  0  0  0  0
  8  9  1  0  0  0  0
  9 10  1  0  0  0  0
 10 11  1  0  0  0  0
 11 12  1  0  0  0  0
 12 13  1  0  0  0  0
 13 14  1  0  0  0  0
 14 15  1  0  0  0  0
 15 16  1  0  0  0  0
 16 17  1  0  0  0  0
 17 18  1  0  0  0  0
 18 19  1  0  0  0  0
 19 20  1  0  0  0  0
 20 21  1  0  0  0  0
 21 22  1  0  0  0  0
 22 23  1  0  0  0  0
 23 24  1  0  0  0  0
 24 25  1  0  0  0  0
 25 26  1  0  0  0  0
 26 27  1  0  0  0  0
 27 28  1  0  0  0  0
 28 29  1  0  0  0  0
 29 30  1  0  0  0  0
 30 31  1  0  0  0  0
 31 32  1  0  0  0  0
 32 33  1  0  0  0  0
 33 34  1  0  0  0  0
 34 35  1  0  0  0  0
 35 36  1  0  0  0  0
 36 37  1  0  0  0  0
 37 38  1  0  0  0  0
 38 39  1  0  0  0  0
 39 40  1  0  0  0  0
 40 41  1  0  0  0  0
 41 42  1  0  0  0  0
 42 43  1  0  0  0  0
 43 44  1  0  0  0  0
 44 45  1  0  0  0  0
 45 46  1  0  0  0  0
 46 47  1  0  0  0  0
 47 48  1  0  0  0  0
 48 49  1  0  0  0  0
 49 50  1  0  0  0  0
 50 51  1  0  0  0  0
 51 52  1  0  0  0  0
 52 53  1  0  0  0  0
 53 54  1  0  0  0  0
 54 55  1  0  0  0  0
 55 56  1  0  0  0  0
 56 57  1  0  0  0  0
 57 58  1  0  0  0  0
 58 59  1  0  0  0  0
 59 60  1  0  0  0  0
 60 61  1  0  0  0  0
 61 62  1  0  0  0  0
 62 63  1  0  0  0  0
 63 64  1  0  0  0  0
 64 65  1  0  0  0  0
 65 66  1  0  0  0  0
 66 67  1  0  0  0  0
 67 68  1  0  0  0  0
 68 69  1  0  0  0  0
 69 70  1  0  0  0  0
 70 71  1  0  0  0  0
 71 72  1  0  0  0  0
 72 73  1  0  0  0  0
 73 74  1  0  0  0  0
 74 75  1  0  0  0  0
 75 76  1  0  0  0  0
 76 77  1  0  0  0  0
 77 78  1  0  0  0  0
 78 79  1  0  0  0  0
 79 80  1  0  0  0  0
 80 81  1  0  0  0  0
 81 82  1  0  0  0  0
  1 83  1  0  0  0  0
  1 84  1  0  0  0  0
  1 85  1  0  0  0  0
  2 86  1  0  0  0  0
  2 87  1  0  0  0  0
  3 88  1  0  0  0  0
  3 89  1  0  0  0  0
  4 90  1  0  0  0  0
  4 91  1  0  0  0  0
  5 92  1  0  0  0  0
  5 93  1  0  0  0  0
  6 94  1  0  0  0  0
  6 95  1  0  0  0  0
  7 96  1  0  0  0  0
  7 97  1  0  0  0  0
  8 98  1  0  0  0  0
  8 99  1  0  0  0  0
  9100  1  0  0  0  0
  9101  1  0  0  0  0
 10102  1  0  0  0  0
 10103  1  0  0  0  0
 11104  1  0  0  0  0
 11105  1  0  0  0  0
 12106  1  0  0  0  0
 12107  1  0  0  0  0
 14108  1  0  0  0  0
 14109  1  0  0  0  0
 15110  1  0  0  0  0
 15111  1  0  0  0  0
 17112  1  0  0  0  0
 17113  1  0  0  0  0
 18114  1  0  0  0  0
 18115  1  0  0  0  0
 20116  1  0  0  0  0
 20117  1  0  0  0  0
 21118  1  0  0  0  0
 21119  1  0  0  0  0
 23120  1  0  0  0  0
 23121  1  0  0  0  0
 24122  1  0  0  0  0
 24123  1  0  0  0  0
 26124  1  0  0  0  0
 26125  1  0  0  0  0
 27126  1  0  0  0  0
 27127  1  0  0  0  0
 29128  1  0  0  0  0
 29129  1  0  0  0  0
 30130  1  0  0  0  0
 30131  1  0  0  0  0
 32132  1  0  0  0  0
 32133  1  0  0  0  0
 33134  1  0  0  0  0
 33135  1  0  0  0  0
 35136  1  0  0  0  0
 35137  1  0  0  0  0
 36138  1  0  0  0  0
 36139  1  0  0  0  0
 38140  1  0  0  0  0
 38141  1  0  0  0  0
 39142  1  0  0  0  0
 39143  1  0  0  0  0
 41144  1  0  0  0  0
 41145  1  0  0  0  0
 42146  1  0  0  0  0
 42147  1  0  0  0  0
 44148  1  0  0  0  0
 44149  1  0  0  0  0
 45150  1  0  0  0  0
 45151  1  0  0  0  0
 47152  1  0  0  0  0
 47153  1  0  0  0  0
 48154  1  0  0  0  0
 48155  1  0  0  0  0
 50156  1  0  0  0  0
 50157  1  0  0  0  0
 51158  1  0  0  0  0
 51159  1  0  0  0  0
 53160  1  0  0  0  0
 53161  1  0  0  0  0
 54162  1  0  0  0  0
 54163  1  0  0  0  0
 56164  1  0  0  0  0
 56165  1  0  0  0  0
 57166  1  0  0  0  0
 57167  1  0  0  0  0
 59168  1  0  0  0  0
 59169  1  0  0  0  0
 60170  1  0  0  0  0
 60171  1  0  0  0  0
 62172  1  0  0  0  0
 62173  1  0  0  0  0
 63174  1  0  0  0  0
 63175  1  0  0  0  0
 65176  1  0  0  0  0
 65177  1  0  0  0  0
 66178  1  0  0  0  0
 66179  1  0  0  0  0
 68180  1  0  0  0  0
 68181  1  0  0  0  0
 69182  1  0  0  0  0
 69183  1  0  0  0  0
 71184  1  0  0  0  0
 71185  1  0  0  0  0
 72186  1  0  0  0  0
 72187  1  0  0  0  0
 74188  1  0  0  0  0
 74189  1  0  0  0  0
 75190  1  0  0  0  0
 75191  1  0  0  0  0
 77192  1  0  0  0  0
 77193  1  0  0  0  0
 78194  1  0  0  0  0
 78195  1  0  0  0  0
 80196  1  0  0  0  0
 80197  1  0  0  0  0
 81198  1  0  0  0  0
 81199  1  0  0  0  0
 82200  1  0  0  0  0
M  END
>  <InChIKey>
IEQAICDLOKRSRL-UHFFFAOYSA-N

>  <UN GHS>
1

>  <CASRN>
68439-50-9

> <Outcome>
1

>  <Index>
304

>  <StandardizerResult>
Clear Stereo (ID: ClearStereo)
Wedge Clean (ID: WedgeClean)
Mesomerize (ID: Mesomerize)
Tautomerize (ID: Tautomerize)
Add Explicit Hydrogens (ID: AddExplicitH)
Neutralize (ID: Neutralize)
Clean 2D (ID: Clean2D)

> <knn Distance>


> <CpId>
304

$$$$
306
  Mrv1532301301811342D          

 47 48  0  0  0  0            999 V2000
    2.1875   -0.4121    0.0000 C   0  0  0  0  0  0  0  0  0  0  0  0
    2.1875   -1.2371    0.0000 C   0  0  0  0  0  0  0  0  0  0  0  0
    2.9020   -1.6496    0.0000 C   0  0  0  0  0  0  0  0  0  0  0  0
    2.9020   -2.4746    0.0000 C   0  0  0  0  0  0  0  0  0  0  0  0
    3.6164   -2.8871    0.0000 C   0  0  0  0  0  0  0  0  0  0  0  0
    3.6164   -3.7121    0.0000 C   0  0  0  0  0  0  0  0  0  0  0  0
    4.3309   -4.1246    0.0000 C   0  0  0  0  0  0  0  0  0  0  0  0
    4.3309   -4.9496    0.0000 C   0  0  0  0  0  0  0  0  0  0  0  0
    3.6164   -5.3621    0.0000 C   0  0  0  0  0  0  0  0  0  0  0  0
    3.6164   -6.1871    0.0000 N   0  0  0  0  0  0  0  0  0  0  0  0
    2.9020   -4.9496    0.0000 C   0  0  0  0  0  0  0  0  0  0  0  0
    2.1875   -5.3621    0.0000 C   0  0  0  0  0  0  0  0  0  0  0  0
    2.9020   -4.1246    0.0000 C   0  0  0  0  0  0  0  0  0  0  0  0
    2.1875   -2.8871    0.0000 C   0  0  0  0  0  0  0  0  0  0  0  0
    1.4730   -2.4746    0.0000 C   0  0  0  0  0  0  0  0  0  0  0  0
    1.4730   -1.6496    0.0000 C   0  0  0  0  0  0  0  0  0  0  0  0
    0.7586   -1.2371    0.0000 N   0  0  0  0  0  0  0  0  0  0  0  0
    3.0125   -0.4121    0.0000 H   0  0  0  0  0  0  0  0  0  0  0  0
    2.1875    0.4129    0.0000 H   0  0  0  0  0  0  0  0  0  0  0  0
    1.3625   -0.4121    0.0000 H   0  0  0  0  0  0  0  0  0  0  0  0
    1.4730   -0.8246    0.0000 H   0  0  0  0  0  0  0  0  0  0  0  0
    3.7256   -1.6017    0.0000 H   0  0  0  0  0  0  0  0  0  0  0  0
    3.3553   -0.9604    0.0000 H   0  0  0  0  0  0  0  0  0  0  0  0
    2.9020   -3.2996    0.0000 H   0  0  0  0  0  0  0  0  0  0  0  0
    4.4400   -2.8392    0.0000 H   0  0  0  0  0  0  0  0  0  0  0  0
    4.0698   -2.1979    0.0000 H   0  0  0  0  0  0  0  0  0  0  0  0
    4.3309   -3.2996    0.0000 H   0  0  0  0  0  0  0  0  0  0  0  0
    5.1062   -4.4068    0.0000 H   0  0  0  0  0  0  0  0  0  0  0  0
    5.1062   -3.8425    0.0000 H   0  0  0  0  0  0  0  0  0  0  0  0
    4.5017   -5.7568    0.0000 H   0  0  0  0  0  0  0  0  0  0  0  0
    4.9903   -5.4455    0.0000 H   0  0  0  0  0  0  0  0  0  0  0  0
    2.9020   -5.7746    0.0000 H   0  0  0  0  0  0  0  0  0  0  0  0
    3.5685   -7.0108    0.0000 H   0  0  0  0  0  0  0  0  0  0  0  0
    4.3537   -6.5574    0.0000 H   0  0  0  0  0  0  0  0  0  0  0  0
    2.1875   -4.5371    0.0000 H   0  0  0  0  0  0  0  0  0  0  0  0
    1.4730   -4.9496    0.0000 H   0  0  0  0  0  0  0  0  0  0  0  0
    1.4730   -5.7746    0.0000 H   0  0  0  0  0  0  0  0  0  0  0  0
    2.1875   -6.1871    0.0000 H   0  0  0  0  0  0  0  0  0  0  0  0
    2.1875   -3.7121    0.0000 H   0  0  0  0  0  0  0  0  0  0  0  0
    3.6164   -4.5371    0.0000 H   0  0  0  0  0  0  0  0  0  0  0  0
    1.4730   -3.2996    0.0000 H   0  0  0  0  0  0  0  0  0  0  0  0
    2.1875   -2.0621    0.0000 H   0  0  0  0  0  0  0  0  0  0  0  0
    0.6978   -2.1925    0.0000 H   0  0  0  0  0  0  0  0  0  0  0  0
    0.6978   -2.7568    0.0000 H   0  0  0  0  0  0  0  0  0  0  0  0
    1.0605   -0.9352    0.0000 H   0  0  0  0  0  0  0  0  0  0  0  0
    0.2164   -0.6153    0.0000 H   0  0  0  0  0  0  0  0  0  0  0  0
   -0.0664   -1.2411    0.0000 H   0  0  0  0  0  0  0  0  0  0  0  0
  1  2  1  0  0  0  0
  2  3  1  0  0  0  0
  3  4  1  0  0  0  0
  4  5  1  0  0  0  0
  5  6  1  0  0  0  0
  6  7  1  0  0  0  0
  7  8  1  0  0  0  0
  8  9  1  0  0  0  0
  9 10  1  0  0  0  0
  9 11  1  0  0  0  0
 11 12  1  0  0  0  0
 11 13  1  0  0  0  0
  6 13  1  0  0  0  0
  4 14  1  0  0  0  0
 14 15  1  0  0  0  0
 15 16  1  0  0  0  0
  2 16  1  0  0  0  0
 16 17  1  0  0  0  0
  1 18  1  0  0  0  0
  1 19  1  0  0  0  0
  1 20  1  0  0  0  0
  2 21  1  0  0  0  0
  3 22  1  0  0  0  0
  3 23  1  0  0  0  0
  4 24  1  0  0  0  0
  5 25  1  0  0  0  0
  5 26  1  0  0  0  0
  6 27  1  0  0  0  0
  7 28  1  0  0  0  0
  7 29  1  0  0  0  0
  8 30  1  0  0  0  0
  8 31  1  0  0  0  0
  9 32  1  0  0  0  0
 10 33  1  0  0  0  0
 10 34  1  0  0  0  0
 11 35  1  0  0  0  0
 12 36  1  0  0  0  0
 12 37  1  0  0  0  0
 12 38  1  0  0  0  0
 13 39  1  0  0  0  0
 13 40  1  0  0  0  0
 14 41  1  0  0  0  0
 14 42  1  0  0  0  0
 15 43  1  0  0  0  0
 15 44  1  0  0  0  0
 16 45  1  0  0  0  0
 17 46  1  0  0  0  0
 17 47  1  0  0  0  0
M  END
>  <InChIKey>
IGSBHTZEJMPDSZ-UHFFFAOYSA-N

>  <UN GHS>
1

>  <CASRN>
6864-37-5

> <Outcome>
1

>  <Index>
306

>  <StandardizerResult>
Clear Stereo (ID: ClearStereo)
Wedge Clean (ID: WedgeClean)
Mesomerize (ID: Mesomerize)
Tautomerize (ID: Tautomerize)
Add Explicit Hydrogens (ID: AddExplicitH)
Neutralize (ID: Neutralize)
Clean 2D (ID: Clean2D)

> <knn Distance>


> <CpId>
306

$$$$
313
  Mrv1532301301811342D          

 30 29  0  0  0  0            999 V2000
    3.6831    2.1585    0.0000 C   0  0  0  0  0  0  0  0  0  0  0  0
    3.2706    1.4440    0.0000 C   0  0  0  0  0  0  0  0  0  0  0  0
    3.6831    0.7295    0.0000 O   0  0  0  0  0  0  0  0  0  0  0  0
    2.4456    1.4440    0.0000 C   0  0  0  0  0  0  0  0  0  0  0  0
    2.0331    0.7295    0.0000 O   0  0  0  0  0  0  0  0  0  0  0  0
    1.2081    0.7295    0.0000 O   0  0  0  0  0  0  0  0  0  0  0  0
    0.7956    0.0150    0.0000 C   0  0  0  0  0  0  0  0  0  0  0  0
   -0.0294    0.0150    0.0000 C   0  0  0  0  0  0  0  0  0  0  0  0
   -0.4419   -0.6994    0.0000 C   0  0  0  0  0  0  0  0  0  0  0  0
   -0.4419    0.7295    0.0000 O   0  0  0  0  0  0  0  0  0  0  0  0
    1.2081   -0.6994    0.0000 C   0  0  0  0  0  0  0  0  0  0  0  0
    0.7956   -1.4139    0.0000 C   0  0  0  0  0  0  0  0  0  0  0  0
    2.0331   -0.6994    0.0000 O   0  0  0  0  0  0  0  0  0  0  0  0
    2.0331    2.1585    0.0000 C   0  0  0  0  0  0  0  0  0  0  0  0
    1.2081    2.1585    0.0000 C   0  0  0  0  0  0  0  0  0  0  0  0
    2.4456    2.8729    0.0000 O   0  0  0  0  0  0  0  0  0  0  0  0
    4.3976    1.7460    0.0000 H   0  0  0  0  0  0  0  0  0  0  0  0
    4.0956    2.8729    0.0000 H   0  0  0  0  0  0  0  0  0  0  0  0
    2.9686    2.5710    0.0000 H   0  0  0  0  0  0  0  0  0  0  0  0
    3.2706    0.0150    0.0000 H   0  0  0  0  0  0  0  0  0  0  0  0
   -1.1564   -0.2869    0.0000 H   0  0  0  0  0  0  0  0  0  0  0  0
   -0.8544   -1.4139    0.0000 H   0  0  0  0  0  0  0  0  0  0  0  0
    0.2726   -1.1119    0.0000 H   0  0  0  0  0  0  0  0  0  0  0  0
   -0.0294    1.4440    0.0000 H   0  0  0  0  0  0  0  0  0  0  0  0
    0.1411   -1.9161    0.0000 H   0  0  0  0  0  0  0  0  0  0  0  0
    1.0091   -2.2108    0.0000 H   0  0  0  0  0  0  0  0  0  0  0  0
    1.6135   -1.5216    0.0000 H   0  0  0  0  0  0  0  0  0  0  0  0
    1.2081    2.9835    0.0000 H   0  0  0  0  0  0  0  0  0  0  0  0
    0.3831    2.1585    0.0000 H   0  0  0  0  0  0  0  0  0  0  0  0
    1.2081    1.3335    0.0000 H   0  0  0  0  0  0  0  0  0  0  0  0
  2  1  1  4  0  0  0
  2  3  1  0  0  0  0
  2  4  2  0  0  0  0
  4  5  1  0  0  0  0
  5  6  1  0  0  0  0
  6  7  1  0  0  0  0
  7  8  2  0  0  0  0
  8  9  1  4  0  0  0
  8 10  1  0  0  0  0
  7 11  1  0  0  0  0
 11 12  1  0  0  0  0
 11 13  2  0  0  0  0
  4 14  1  0  0  0  0
 14 15  1  0  0  0  0
 14 16  2  0  0  0  0
  1 17  1  0  0  0  0
  1 18  1  0  0  0  0
  1 19  1  0  0  0  0
  3 20  1  0  0  0  0
  9 21  1  0  0  0  0
  9 22  1  0  0  0  0
  9 23  1  0  0  0  0
 10 24  1  0  0  0  0
 12 25  1  0  0  0  0
 12 26  1  0  0  0  0
 12 27  1  0  0  0  0
 15 28  1  0  0  0  0
 15 29  1  0  0  0  0
 15 30  1  0  0  0  0
M  END
>  <InChIKey>
ILENATNBFPBMHG-UHFFFAOYSA-N

>  <UN GHS>
2A

>  <CASRN>
37187-22-7

> <Outcome>
1

>  <Index>
313

>  <StandardizerResult>
Clear Stereo (ID: ClearStereo)
Wedge Clean (ID: WedgeClean)
Mesomerize (ID: Mesomerize)
Tautomerize (ID: Tautomerize)
Add Explicit Hydrogens (ID: AddExplicitH)
Neutralize (ID: Neutralize)
Clean 2D (ID: Clean2D)

> <knn Distance>


> <CpId>
313

$$$$
314
  Mrv1532301301811342D          

 21 20  0  0  0  0            999 V2000
    1.7349    1.8610    0.0000 C   0  0  0  0  0  0  0  0  0  0  0  0
    2.4494    1.4485    0.0000 C   0  0  0  0  0  0  0  0  0  0  0  0
    3.1639    1.8610    0.0000 C   0  0  0  0  0  0  0  0  0  0  0  0
    3.8784    1.4485    0.0000 O   0  0  0  0  0  0  0  0  0  0  0  0
    4.5928    1.8610    0.0000 C   0  0  0  0  0  0  0  0  0  0  0  0
    4.5928    2.6860    0.0000 O   0  0  0  0  0  0  0  0  0  0  0  0
    5.3073    1.4485    0.0000 C   0  0  0  0  0  0  0  0  0  0  0  0
    6.0218    1.8610    0.0000 C   0  0  0  0  0  0  0  0  0  0  0  0
    5.3073    0.6235    0.0000 O   0  0  0  0  0  0  0  0  0  0  0  0
    2.1474    2.5755    0.0000 H   0  0  0  0  0  0  0  0  0  0  0  0
    1.0205    2.2735    0.0000 H   0  0  0  0  0  0  0  0  0  0  0  0
    1.3224    1.1466    0.0000 H   0  0  0  0  0  0  0  0  0  0  0  0
    2.0792    0.7113    0.0000 H   0  0  0  0  0  0  0  0  0  0  0  0
    2.8197    0.7113    0.0000 H   0  0  0  0  0  0  0  0  0  0  0  0
    3.5341    2.5983    0.0000 H   0  0  0  0  0  0  0  0  0  0  0  0
    2.7936    2.5983    0.0000 H   0  0  0  0  0  0  0  0  0  0  0  0
    5.3073    2.2735    0.0000 H   0  0  0  0  0  0  0  0  0  0  0  0
    6.2353    1.0642    0.0000 H   0  0  0  0  0  0  0  0  0  0  0  0
    6.8468    1.8610    0.0000 H   0  0  0  0  0  0  0  0  0  0  0  0
    6.2353    2.6579    0.0000 H   0  0  0  0  0  0  0  0  0  0  0  0
    4.5928    0.2110    0.0000 H   0  0  0  0  0  0  0  0  0  0  0  0
  1  2  1  0  0  0  0
  2  3  1  0  0  0  0
  3  4  1  0  0  0  0
  4  5  1  0  0  0  0
  5  6  2  0  0  0  0
  5  7  1  0  0  0  0
  7  8  1  0  0  0  0
  7  9  1  0  0  0  0
  1 10  1  0  0  0  0
  1 11  1  0  0  0  0
  1 12  1  0  0  0  0
  2 13  1  0  0  0  0
  2 14  1  0  0  0  0
  3 15  1  0  0  0  0
  3 16  1  0  0  0  0
  7 17  1  0  0  0  0
  8 18  1  0  0  0  0
  8 19  1  0  0  0  0
  8 20  1  0  0  0  0
  9 21  1  0  0  0  0
M  END
>  <InChIKey>
ILVGAIQLOCKNQA-YFKPBYRVSA-N

>  <UN GHS>
1

>  <CASRN>
53651-69-7

> <Outcome>
1

>  <Index>
314

>  <StandardizerResult>
Clear Stereo (ID: ClearStereo)
Wedge Clean (ID: WedgeClean)
Mesomerize (ID: Mesomerize)
Tautomerize (ID: Tautomerize)
Add Explicit Hydrogens (ID: AddExplicitH)
Neutralize (ID: Neutralize)
Clean 2D (ID: Clean2D)

> <knn Distance>


> <CpId>
314

$$$$
315
  Mrv1532301301811342D          

 20 21  0  0  0  0            999 V2000
   -0.0039    0.0403    0.0000 C   0  0  0  0  0  0  0  0  0  0  0  0
   -0.0039    0.8653    0.0000 C   0  0  0  0  0  0  0  0  0  0  0  0
    0.7105    1.2778    0.0000 N   0  0  0  0  0  0  0  0  0  0  0  0
    1.4250    0.8653    0.0000 C   0  0  0  0  0  0  0  0  0  0  0  0
    1.4250    0.0403    0.0000 C   0  0  0  0  0  0  0  0  0  0  0  0
    0.7105   -0.3722    0.0000 N   0  0  0  0  0  0  0  0  0  0  0  0
    0.8480    0.1778    0.0000 C   0  0  0  0  0  0  0  0  0  0  0  0
    0.8480    0.7278    0.0000 C   0  0  0  0  0  0  0  0  0  0  0  0
   -0.8275   -0.0077    0.0000 H   0  0  0  0  0  0  0  0  0  0  0  0
   -0.4573   -0.6490    0.0000 H   0  0  0  0  0  0  0  0  0  0  0  0
   -0.4573    1.5546    0.0000 H   0  0  0  0  0  0  0  0  0  0  0  0
   -0.8275    0.9133    0.0000 H   0  0  0  0  0  0  0  0  0  0  0  0
    2.2486    0.9133    0.0000 H   0  0  0  0  0  0  0  0  0  0  0  0
    1.8784    1.5546    0.0000 H   0  0  0  0  0  0  0  0  0  0  0  0
    1.8784   -0.6490    0.0000 H   0  0  0  0  0  0  0  0  0  0  0  0
    2.2486   -0.0077    0.0000 H   0  0  0  0  0  0  0  0  0  0  0  0
    0.3980    0.8693    0.0000 H   0  0  0  0  0  0  0  0  0  0  0  0
    0.0937    0.5119    0.0000 H   0  0  0  0  0  0  0  0  0  0  0  0
    1.1302   -0.0474    0.0000 H   0  0  0  0  0  0  0  0  0  0  0  0
    0.1829    0.2397    0.0000 H   0  0  0  0  0  0  0  0  0  0  0  0
  1  2  1  0  0  0  0
  2  3  1  0  0  0  0
  3  4  1  0  0  0  0
  4  5  1  0  0  0  0
  5  6  1  0  0  0  0
  1  6  1  0  0  0  0
  6  7  1  0  0  0  0
  7  8  1  0  0  0  0
  3  8  1  0  0  0  0
  1  9  1  0  0  0  0
  1 10  1  0  0  0  0
  2 11  1  0  0  0  0
  2 12  1  0  0  0  0
  4 13  1  0  0  0  0
  4 14  1  0  0  0  0
  5 15  1  0  0  0  0
  5 16  1  0  0  0  0
  7 17  1  0  0  0  0
  7 18  1  0  0  0  0
  8 19  1  0  0  0  0
  8 20  1  0  0  0  0
M  END
>  <InChIKey>
IMNIMPAHZVJRPE-UHFFFAOYSA-N

>  <UN GHS>
1

>  <CASRN>
280-57-9

> <Outcome>
1

>  <Index>
315

>  <StandardizerResult>
Clear Stereo (ID: ClearStereo)
Wedge Clean (ID: WedgeClean)
Mesomerize (ID: Mesomerize)
Tautomerize (ID: Tautomerize)
Add Explicit Hydrogens (ID: AddExplicitH)
Neutralize (ID: Neutralize)
Clean 2D (ID: Clean2D)

> <knn Distance>


> <CpId>
315

$$$$
316
  Mrv1532301301811342D          

 57 56  0  0  0  0            999 V2000
    1.3293   -1.3957    0.0000 C   0  0  0  0  0  0  0  0  0  0  0  0
    2.0437   -1.8082    0.0000 C   0  0  0  0  0  0  0  0  0  0  0  0
    2.7582   -1.3957    0.0000 C   0  0  0  0  0  0  0  0  0  0  0  0
    3.4727   -1.8082    0.0000 C   0  0  0  0  0  0  0  0  0  0  0  0
    2.7582   -0.5707    0.0000 N   0  0  0  0  0  0  0  0  0  0  0  0
    2.0437   -0.1582    0.0000 O   0  0  0  0  0  0  0  0  0  0  0  0
    2.0437    0.6668    0.0000 Si  0  0  0  0  0  0  0  0  0  0  0  0
    2.0437    1.4918    0.0000 O   0  0  0  0  0  0  0  0  0  0  0  0
    1.3293    1.9043    0.0000 N   0  0  0  0  0  0  0  0  0  0  0  0
    0.6148    1.4918    0.0000 C   0  0  0  0  0  0  0  0  0  0  0  0
    0.6148    0.6668    0.0000 C   0  0  0  0  0  0  0  0  0  0  0  0
   -0.0997    1.9043    0.0000 C   0  0  0  0  0  0  0  0  0  0  0  0
   -0.8141    1.4918    0.0000 C   0  0  0  0  0  0  0  0  0  0  0  0
    2.8687    0.6668    0.0000 O   0  0  0  0  0  0  0  0  0  0  0  0
    3.2812    1.3813    0.0000 N   0  0  0  0  0  0  0  0  0  0  0  0
    2.8687    2.0957    0.0000 C   0  0  0  0  0  0  0  0  0  0  0  0
    3.2812    2.8102    0.0000 C   0  0  0  0  0  0  0  0  0  0  0  0
    2.0437    2.0957    0.0000 C   0  0  0  0  0  0  0  0  0  0  0  0
    1.6312    2.8102    0.0000 C   0  0  0  0  0  0  0  0  0  0  0  0
    1.2187    0.6668    0.0000 O   0  0  0  0  0  0  0  0  0  0  0  0
    0.8062   -0.0477    0.0000 N   0  0  0  0  0  0  0  0  0  0  0  0
   -0.0188   -0.0477    0.0000 C   0  0  0  0  0  0  0  0  0  0  0  0
   -0.4313    0.6668    0.0000 C   0  0  0  0  0  0  0  0  0  0  0  0
   -0.4313   -0.7621    0.0000 C   0  0  0  0  0  0  0  0  0  0  0  0
   -1.2563   -0.7621    0.0000 C   0  0  0  0  0  0  0  0  0  0  0  0
    1.7418   -0.6812    0.0000 H   0  0  0  0  0  0  0  0  0  0  0  0
    0.6148   -0.9832    0.0000 H   0  0  0  0  0  0  0  0  0  0  0  0
    0.9168   -2.1102    0.0000 H   0  0  0  0  0  0  0  0  0  0  0  0
    1.6735   -2.5454    0.0000 H   0  0  0  0  0  0  0  0  0  0  0  0
    2.4140   -2.5454    0.0000 H   0  0  0  0  0  0  0  0  0  0  0  0
    3.0602   -2.5227    0.0000 H   0  0  0  0  0  0  0  0  0  0  0  0
    4.1872   -2.2207    0.0000 H   0  0  0  0  0  0  0  0  0  0  0  0
    3.8852   -1.0937    0.0000 H   0  0  0  0  0  0  0  0  0  0  0  0
    0.0199    1.2384    0.0000 H   0  0  0  0  0  0  0  0  0  0  0  0
   -0.2095    0.6338    0.0000 H   0  0  0  0  0  0  0  0  0  0  0  0
    1.1982    1.2502    0.0000 H   0  0  0  0  0  0  0  0  0  0  0  0
    0.2706    2.6416    0.0000 H   0  0  0  0  0  0  0  0  0  0  0  0
   -0.4699    2.6416    0.0000 H   0  0  0  0  0  0  0  0  0  0  0  0
   -0.9036    2.3119    0.0000 H   0  0  0  0  0  0  0  0  0  0  0  0
   -1.6007    1.7406    0.0000 H   0  0  0  0  0  0  0  0  0  0  0  0
   -1.3589    0.8723    0.0000 H   0  0  0  0  0  0  0  0  0  0  0  0
    3.9957    2.3977    0.0000 H   0  0  0  0  0  0  0  0  0  0  0  0
    3.6937    3.5247    0.0000 H   0  0  0  0  0  0  0  0  0  0  0  0
    2.5668    3.2227    0.0000 H   0  0  0  0  0  0  0  0  0  0  0  0
    2.4562    2.8102    0.0000 H   0  0  0  0  0  0  0  0  0  0  0  0
    2.6271    1.5124    0.0000 H   0  0  0  0  0  0  0  0  0  0  0  0
    2.0072    3.5446    0.0000 H   0  0  0  0  0  0  0  0  0  0  0  0
    1.1489    3.4795    0.0000 H   0  0  0  0  0  0  0  0  0  0  0  0
    0.8157    2.6858    0.0000 H   0  0  0  0  0  0  0  0  0  0  0  0
   -1.1334    0.2336    0.0000 H   0  0  0  0  0  0  0  0  0  0  0  0
   -0.6331   -0.1331    0.0000 H   0  0  0  0  0  0  0  0  0  0  0  0
   -0.3351    1.4862    0.0000 H   0  0  0  0  0  0  0  0  0  0  0  0
   -0.3833   -1.5857    0.0000 H   0  0  0  0  0  0  0  0  0  0  0  0
    0.2580   -1.2155    0.0000 H   0  0  0  0  0  0  0  0  0  0  0  0
   -1.7170   -0.0778    0.0000 H   0  0  0  0  0  0  0  0  0  0  0  0
   -2.0177   -1.0796    0.0000 H   0  0  0  0  0  0  0  0  0  0  0  0
   -1.0944   -1.5711    0.0000 H   0  0  0  0  0  0  0  0  0  0  0  0
  1  2  1  0  0  0  0
  2  3  1  0  0  0  0
  3  4  1  0  0  0  0
  3  5  2  0  0  0  0
  5  6  1  4  0  0  0
  6  7  1  0  0  0  0
  7  8  1  0  0  0  0
  9  8  1  4  0  0  0
  9 10  2  0  0  0  0
 10 11  1  0  0  0  0
 10 12  1  0  0  0  0
 12 13  1  0  0  0  0
  7 14  1  0  0  0  0
 15 14  1  4  0  0  0
 15 16  2  0  0  0  0
 16 17  1  0  0  0  0
 16 18  1  0  0  0  0
 18 19  1  0  0  0  0
  7 20  1  0  0  0  0
 21 20  1  4  0  0  0
 21 22  2  0  0  0  0
 22 23  1  0  0  0  0
 22 24  1  0  0  0  0
 24 25  1  0  0  0  0
  1 26  1  0  0  0  0
  1 27  1  0  0  0  0
  1 28  1  0  0  0  0
  2 29  1  0  0  0  0
  2 30  1  0  0  0  0
  4 31  1  0  0  0  0
  4 32  1  0  0  0  0
  4 33  1  0  0  0  0
 11 34  1  0  0  0  0
 11 35  1  0  0  0  0
 11 36  1  0  0  0  0
 12 37  1  0  0  0  0
 12 38  1  0  0  0  0
 13 39  1  0  0  0  0
 13 40  1  0  0  0  0
 13 41  1  0  0  0  0
 17 42  1  0  0  0  0
 17 43  1  0  0  0  0
 17 44  1  0  0  0  0
 18 45  1  0  0  0  0
 18 46  1  0  0  0  0
 19 47  1  0  0  0  0
 19 48  1  0  0  0  0
 19 49  1  0  0  0  0
 23 50  1  0  0  0  0
 23 51  1  0  0  0  0
 23 52  1  0  0  0  0
 24 53  1  0  0  0  0
 24 54  1  0  0  0  0
 25 55  1  0  0  0  0
 25 56  1  0  0  0  0
 25 57  1  0  0  0  0
M  END
>  <InChIKey>
INETXKGLHYNTHK-AQWWNALJSA-N

>  <UN GHS>
2A

>  <CASRN>
34206-40-1

> <Outcome>
1

>  <Index>
316

>  <StandardizerResult>
Clear Stereo (ID: ClearStereo)
Wedge Clean (ID: WedgeClean)
Mesomerize (ID: Mesomerize)
Tautomerize (ID: Tautomerize)
Add Explicit Hydrogens (ID: AddExplicitH)
Neutralize (ID: Neutralize)
Clean 2D (ID: Clean2D)

> <knn Distance>


> <CpId>
316

$$$$
317
  Mrv1532301301811342D          

  5  4  0  0  0  0            999 V2000
    0.8250    0.0000    0.0000 C   0  0  0  0  0  0  0  0  0  0  0  0
   -0.0000    0.0000    0.0000 I   0  0  0  0  0  0  0  0  0  0  0  0
    0.8250   -0.8250    0.0000 H   0  0  0  0  0  0  0  0  0  0  0  0
    1.6500   -0.0000    0.0000 H   0  0  0  0  0  0  0  0  0  0  0  0
    0.8250    0.8250    0.0000 H   0  0  0  0  0  0  0  0  0  0  0  0
  1  2  1  0  0  0  0
  1  3  1  0  0  0  0
  1  4  1  0  0  0  0
  1  5  1  0  0  0  0
M  END
>  <InChIKey>
INQOMBQAUSQDDS-UHFFFAOYSA-N

>  <UN GHS>
2A

>  <CASRN>
74-88-4

> <Outcome>
1

>  <Index>
317

>  <StandardizerResult>
Mesomerize (ID: Mesomerize)
Tautomerize (ID: Tautomerize)
Add Explicit Hydrogens (ID: AddExplicitH)
Neutralize (ID: Neutralize)
Clean 2D (ID: Clean2D)

> <knn Distance>


> <CpId>
317

$$$$
319
  Mrv1532301301811342D          

 28 27  0  0  0  0            999 V2000
    2.9980    2.5565    0.0000 C   0  0  0  0  0  0  0  0  0  0  0  0
    3.7125    2.1440    0.0000 C   0  0  0  0  0  0  0  0  0  0  0  0
    4.4270    2.5565    0.0000 C   0  0  0  0  0  0  0  0  0  0  0  0
    5.1414    2.1440    0.0000 C   0  0  0  0  0  0  0  0  0  0  0  0
    5.8559    2.5565    0.0000 C   0  0  0  0  0  0  0  0  0  0  0  0
    6.5704    2.1440    0.0000 C   0  0  0  0  0  0  0  0  0  0  0  0
    7.2849    2.5565    0.0000 C   0  0  0  0  0  0  0  0  0  0  0  0
    7.9993    2.1440    0.0000 C   0  0  0  0  0  0  0  0  0  0  0  0
    8.7138    2.5565    0.0000 N   0  0  0  0  0  0  0  0  0  0  0  0
    3.4105    3.2710    0.0000 H   0  0  0  0  0  0  0  0  0  0  0  0
    2.2836    2.9690    0.0000 H   0  0  0  0  0  0  0  0  0  0  0  0
    2.5855    1.8421    0.0000 H   0  0  0  0  0  0  0  0  0  0  0  0
    3.3422    1.4068    0.0000 H   0  0  0  0  0  0  0  0  0  0  0  0
    4.0828    1.4068    0.0000 H   0  0  0  0  0  0  0  0  0  0  0  0
    4.7972    3.2938    0.0000 H   0  0  0  0  0  0  0  0  0  0  0  0
    4.0567    3.2938    0.0000 H   0  0  0  0  0  0  0  0  0  0  0  0
    4.7712    1.4068    0.0000 H   0  0  0  0  0  0  0  0  0  0  0  0
    5.5117    1.4068    0.0000 H   0  0  0  0  0  0  0  0  0  0  0  0
    6.2262    3.2938    0.0000 H   0  0  0  0  0  0  0  0  0  0  0  0
    5.4857    3.2938    0.0000 H   0  0  0  0  0  0  0  0  0  0  0  0
    6.2001    1.4068    0.0000 H   0  0  0  0  0  0  0  0  0  0  0  0
    6.9406    1.4068    0.0000 H   0  0  0  0  0  0  0  0  0  0  0  0
    7.6551    3.2938    0.0000 H   0  0  0  0  0  0  0  0  0  0  0  0
    6.9146    3.2938    0.0000 H   0  0  0  0  0  0  0  0  0  0  0  0
    7.6291    1.4068    0.0000 H   0  0  0  0  0  0  0  0  0  0  0  0
    8.3696    1.4068    0.0000 H   0  0  0  0  0  0  0  0  0  0  0  0
    9.4283    2.1440    0.0000 H   0  0  0  0  0  0  0  0  0  0  0  0
    8.7138    3.3815    0.0000 H   0  0  0  0  0  0  0  0  0  0  0  0
  1  2  1  0  0  0  0
  2  3  1  0  0  0  0
  3  4  1  0  0  0  0
  4  5  1  0  0  0  0
  5  6  1  0  0  0  0
  6  7  1  0  0  0  0
  7  8  1  0  0  0  0
  8  9  1  0  0  0  0
  1 10  1  0  0  0  0
  1 11  1  0  0  0  0
  1 12  1  0  0  0  0
  2 13  1  0  0  0  0
  2 14  1  0  0  0  0
  3 15  1  0  0  0  0
  3 16  1  0  0  0  0
  4 17  1  0  0  0  0
  4 18  1  0  0  0  0
  5 19  1  0  0  0  0
  5 20  1  0  0  0  0
  6 21  1  0  0  0  0
  6 22  1  0  0  0  0
  7 23  1  0  0  0  0
  7 24  1  0  0  0  0
  8 25  1  0  0  0  0
  8 26  1  0  0  0  0
  9 27  1  0  0  0  0
  9 28  1  0  0  0  0
M  END
>  <InChIKey>
IOQPZZOEVPZRBK-UHFFFAOYSA-N

>  <UN GHS>
1

>  <CASRN>
111-86-4

> <Outcome>
1

>  <Index>
319

>  <StandardizerResult>
Clear Stereo (ID: ClearStereo)
Wedge Clean (ID: WedgeClean)
Mesomerize (ID: Mesomerize)
Tautomerize (ID: Tautomerize)
Add Explicit Hydrogens (ID: AddExplicitH)
Neutralize (ID: Neutralize)
Clean 2D (ID: Clean2D)

> <knn Distance>


> <CpId>
319

$$$$
323
  Mrv1532301301811342D          

 37 37  0  0  0  0            999 V2000
   -0.7481    3.8679    0.0000 C   0  0  0  0  0  0  0  0  0  0  0  0
   -0.0337    3.4554    0.0000 C   0  0  0  0  0  0  0  0  0  0  0  0
   -0.4462    2.7409    0.0000 C   0  0  0  0  0  0  0  0  0  0  0  0
    0.3788    4.1698    0.0000 C   0  0  0  0  0  0  0  0  0  0  0  0
    0.6808    3.0429    0.0000 C   0  0  0  0  0  0  0  0  0  0  0  0
    0.6808    2.2179    0.0000 C   0  0  0  0  0  0  0  0  0  0  0  0
   -0.1442    2.2179    0.0000 C   0  0  0  0  0  0  0  0  0  0  0  0
    1.5058    2.2179    0.0000 C   0  0  0  0  0  0  0  0  0  0  0  0
    0.6808    1.3929    0.0000 C   0  0  0  0  0  0  0  0  0  0  0  0
    1.3953    0.9804    0.0000 C   0  0  0  0  0  0  0  0  0  0  0  0
    1.3953    0.1554    0.0000 C   0  0  0  0  0  0  0  0  0  0  0  0
    0.6808   -0.2571    0.0000 C   0  0  0  0  0  0  0  0  0  0  0  0
    0.6808   -1.0821    0.0000 O   0  0  0  0  0  0  0  0  0  0  0  0
   -0.0337    0.1554    0.0000 C   0  0  0  0  0  0  0  0  0  0  0  0
   -0.0337    0.9804    0.0000 C   0  0  0  0  0  0  0  0  0  0  0  0
   -0.3356    4.5823    0.0000 H   0  0  0  0  0  0  0  0  0  0  0  0
   -1.4626    4.2804    0.0000 H   0  0  0  0  0  0  0  0  0  0  0  0
   -1.1606    3.1534    0.0000 H   0  0  0  0  0  0  0  0  0  0  0  0
   -1.2214    2.4587    0.0000 H   0  0  0  0  0  0  0  0  0  0  0  0
   -0.7283    1.9657    0.0000 H   0  0  0  0  0  0  0  0  0  0  0  0
    0.3788    2.7409    0.0000 H   0  0  0  0  0  0  0  0  0  0  0  0
    0.8811    3.5153    0.0000 H   0  0  0  0  0  0  0  0  0  0  0  0
    1.1757    4.3834    0.0000 H   0  0  0  0  0  0  0  0  0  0  0  0
    0.4865    4.9878    0.0000 H   0  0  0  0  0  0  0  0  0  0  0  0
    1.3339    2.5389    0.0000 H   0  0  0  0  0  0  0  0  0  0  0  0
    1.4788    3.2520    0.0000 H   0  0  0  0  0  0  0  0  0  0  0  0
   -0.5250    1.4860    0.0000 H   0  0  0  0  0  0  0  0  0  0  0  0
    0.0228    1.4099    0.0000 H   0  0  0  0  0  0  0  0  0  0  0  0
    0.4955    1.6969    0.0000 H   0  0  0  0  0  0  0  0  0  0  0  0
    1.2859    1.4227    0.0000 H   0  0  0  0  0  0  0  0  0  0  0  0
    2.2136    1.7940    0.0000 H   0  0  0  0  0  0  0  0  0  0  0  0
    2.1030    2.7871    0.0000 H   0  0  0  0  0  0  0  0  0  0  0  0
    2.2142    1.0801    0.0000 H   0  0  0  0  0  0  0  0  0  0  0  0
    2.1097   -0.2571    0.0000 H   0  0  0  0  0  0  0  0  0  0  0  0
   -0.0337   -1.4946    0.0000 H   0  0  0  0  0  0  0  0  0  0  0  0
   -0.7481   -0.2571    0.0000 H   0  0  0  0  0  0  0  0  0  0  0  0
   -0.7981    0.6701    0.0000 H   0  0  0  0  0  0  0  0  0  0  0  0
  1  2  1  0  0  0  0
  2  3  1  0  0  0  0
  2  4  1  0  0  0  0
  2  5  1  0  0  0  0
  5  6  1  0  0  0  0
  6  7  1  0  0  0  0
  6  8  1  0  0  0  0
  6  9  1  0  0  0  0
  9 10  4  0  0  0  0
 10 11  4  0  0  0  0
 11 12  4  0  0  0  0
 12 13  1  0  0  0  0
 12 14  4  0  0  0  0
 14 15  4  0  0  0  0
  9 15  4  0  0  0  0
  1 16  1  0  0  0  0
  1 17  1  0  0  0  0
  1 18  1  0  0  0  0
  3 19  1  0  0  0  0
  3 20  1  0  0  0  0
  3 21  1  0  0  0  0
  4 22  1  0  0  0  0
  4 23  1  0  0  0  0
  4 24  1  0  0  0  0
  5 25  1  0  0  0  0
  5 26  1  0  0  0  0
  7 27  1  0  0  0  0
  7 28  1  0  0  0  0
  7 29  1  0  0  0  0
  8 30  1  0  0  0  0
  8 31  1  0  0  0  0
  8 32  1  0  0  0  0
 10 33  1  0  0  0  0
 11 34  1  0  0  0  0
 13 35  1  0  0  0  0
 14 36  1  0  0  0  0
 15 37  1  0  0  0  0
M  END
>  <InChIKey>
ISAVYTVYFVQUDY-UHFFFAOYSA-N

>  <UN GHS>
1

>  <CASRN>
140-66-9

> <Outcome>
1

>  <Index>
323

>  <StandardizerResult>
Dearomatize (ID: Dearomatize)
Clear Stereo (ID: ClearStereo)
Wedge Clean (ID: WedgeClean)
Mesomerize (ID: Mesomerize)
Tautomerize (ID: Tautomerize)
Aromatize (ID: Aromatize)
Add Explicit Hydrogens (ID: AddExplicitH)
Neutralize (ID: Neutralize)
Clean 2D (ID: Clean2D)

> <knn Distance>


> <CpId>
323

$$$$
337
  Mrv1532301301811342D          

 25 26  0  0  0  0            999 V2000
    2.1434    0.4125    0.0000 O   0  0  0  0  0  0  0  0  0  0  0  0
    2.1434   -0.4125    0.0000 S   0  0  0  0  0  0  0  0  0  0  0  0
    1.3184   -0.4125    0.0000 O   0  0  0  0  0  0  0  0  0  0  0  0
    2.9684   -0.4125    0.0000 O   0  0  0  0  0  0  0  0  0  0  0  0
    2.1434   -1.2375    0.0000 C   0  0  0  0  0  0  0  0  0  0  0  0
    2.8579   -1.6500    0.0000 C   0  0  0  0  0  0  0  0  0  0  0  0
    2.8579   -2.4750    0.0000 C   0  0  0  0  0  0  0  0  0  0  0  0
    2.1434   -2.8875    0.0000 C   0  0  0  0  0  0  0  0  0  0  0  0
    2.1434   -3.7125    0.0000 N   0  0  0  0  0  0  0  0  0  0  0  0
    1.4289   -4.1250    0.0000 C   0  0  0  0  0  0  0  0  0  0  0  0
    1.4289   -4.9500    0.0000 N   0  0  0  0  0  0  0  0  0  0  0  0
    0.7145   -5.3625    0.0000 C   0  0  0  0  0  0  0  0  0  0  0  0
    0.7145   -6.1875    0.0000 Cl  0  0  0  0  0  0  0  0  0  0  0  0
   -0.0000   -4.9500    0.0000 N   0  0  0  0  0  0  0  0  0  0  0  0
   -0.0000   -4.1250    0.0000 C   0  0  0  0  0  0  0  0  0  0  0  0
   -0.7145   -3.7125    0.0000 Cl  0  0  0  0  0  0  0  0  0  0  0  0
    0.7145   -3.7125    0.0000 N   0  0  0  0  0  0  0  0  0  0  0  0
    1.4289   -2.4750    0.0000 C   0  0  0  0  0  0  0  0  0  0  0  0
    1.4289   -1.6500    0.0000 C   0  0  0  0  0  0  0  0  0  0  0  0
    2.8579    0.8250    0.0000 H   0  0  0  0  0  0  0  0  0  0  0  0
    3.5723   -1.2375    0.0000 H   0  0  0  0  0  0  0  0  0  0  0  0
    3.5723   -2.8875    0.0000 H   0  0  0  0  0  0  0  0  0  0  0  0
    2.8579   -4.1250    0.0000 H   0  0  0  0  0  0  0  0  0  0  0  0
    0.7145   -2.8875    0.0000 H   0  0  0  0  0  0  0  0  0  0  0  0
    0.7145   -1.2375    0.0000 H   0  0  0  0  0  0  0  0  0  0  0  0
  1  2  1  0  0  0  0
  2  3  2  0  0  0  0
  2  4  2  0  0  0  0
  2  5  1  0  0  0  0
  5  6  4  0  0  0  0
  6  7  4  0  0  0  0
  7  8  4  0  0  0  0
  8  9  1  0  0  0  0
  9 10  1  0  0  0  0
 10 11  4  0  0  0  0
 11 12  4  0  0  0  0
 12 13  1  0  0  0  0
 12 14  4  0  0  0  0
 14 15  4  0  0  0  0
 15 16  1  0  0  0  0
 15 17  4  0  0  0  0
 10 17  4  0  0  0  0
  8 18  4  0  0  0  0
 18 19  4  0  0  0  0
  5 19  4  0  0  0  0
  1 20  1  0  0  0  0
  6 21  1  0  0  0  0
  7 22  1  0  0  0  0
  9 23  1  0  0  0  0
 18 24  1  0  0  0  0
 19 25  1  0  0  0  0
M  END
>  <InChIKey>
JDBGDMZILOWAHV-UHFFFAOYSA-M

>  <UN GHS>
1

>  <CASRN>
4156-21-2

> <Outcome>
1

>  <Index>
337

>  <StandardizerResult>
Dearomatize (ID: Dearomatize)
Clear Stereo (ID: ClearStereo)
Wedge Clean (ID: WedgeClean)
Mesomerize (ID: Mesomerize)
Tautomerize (ID: Tautomerize)
Aromatize (ID: Aromatize)
Add Explicit Hydrogens (ID: AddExplicitH)
Neutralize (ID: Neutralize)
Clean 2D (ID: Clean2D)

> <knn Distance>


> <CpId>
337

$$$$
338
  Mrv1532301301811342D          

 17 16  0  0  0  0            999 V2000
    1.7605    1.8404    0.0000 O   0  0  0  0  0  0  0  0  0  0  0  0
    2.4750    1.4279    0.0000 C   0  0  0  0  0  0  0  0  0  0  0  0
    2.4750    0.6029    0.0000 O   0  0  0  0  0  0  0  0  0  0  0  0
    3.1895    1.8404    0.0000 C   0  0  0  0  0  0  0  0  0  0  0  0
    3.9039    1.4279    0.0000 C   0  0  0  0  0  0  0  0  0  0  0  0
    4.6184    1.8404    0.0000 C   0  0  0  0  0  0  0  0  0  0  0  0
    5.3329    1.4279    0.0000 C   0  0  0  0  0  0  0  0  0  0  0  0
    6.0474    1.8404    0.0000 O   0  0  0  0  0  0  0  0  0  0  0  0
    5.3329    0.6029    0.0000 O   0  0  0  0  0  0  0  0  0  0  0  0
    1.7605    2.6654    0.0000 H   0  0  0  0  0  0  0  0  0  0  0  0
    3.5597    2.5776    0.0000 H   0  0  0  0  0  0  0  0  0  0  0  0
    2.8192    2.5776    0.0000 H   0  0  0  0  0  0  0  0  0  0  0  0
    3.5337    0.6906    0.0000 H   0  0  0  0  0  0  0  0  0  0  0  0
    4.2742    0.6906    0.0000 H   0  0  0  0  0  0  0  0  0  0  0  0
    4.9887    2.5776    0.0000 H   0  0  0  0  0  0  0  0  0  0  0  0
    4.2482    2.5776    0.0000 H   0  0  0  0  0  0  0  0  0  0  0  0
    6.7618    1.4279    0.0000 H   0  0  0  0  0  0  0  0  0  0  0  0
  1  2  1  0  0  0  0
  2  3  2  0  0  0  0
  2  4  1  0  0  0  0
  4  5  1  0  0  0  0
  5  6  1  0  0  0  0
  6  7  1  0  0  0  0
  7  8  1  0  0  0  0
  7  9  2  0  0  0  0
  1 10  1  0  0  0  0
  4 11  1  0  0  0  0
  4 12  1  0  0  0  0
  5 13  1  0  0  0  0
  5 14  1  0  0  0  0
  6 15  1  0  0  0  0
  6 16  1  0  0  0  0
  8 17  1  0  0  0  0
M  END
>  <InChIKey>
JFCQEDHGNNZCLN-UHFFFAOYSA-N

>  <UN GHS>
2A

>  <CASRN>
68603-87-2

> <Outcome>
1

>  <Index>
338

>  <StandardizerResult>
Clear Stereo (ID: ClearStereo)
Wedge Clean (ID: WedgeClean)
Mesomerize (ID: Mesomerize)
Tautomerize (ID: Tautomerize)
Add Explicit Hydrogens (ID: AddExplicitH)
Neutralize (ID: Neutralize)
Clean 2D (ID: Clean2D)

> <knn Distance>


> <CpId>
338

$$$$
343
  Mrv1532301301811342D          

 13 12  0  0  0  0            999 V2000
    1.2692    0.7558    0.0000 C   0  0  0  0  0  0  0  0  0  0  0  0
    0.8567    0.0414    0.0000 C   0  0  0  0  0  0  0  0  0  0  0  0
    1.2692   -0.6731    0.0000 C   0  0  0  0  0  0  0  0  0  0  0  0
    0.0317    0.0414    0.0000 N   0  0  0  0  0  0  0  0  0  0  0  0
    1.9837    0.3433    0.0000 H   0  0  0  0  0  0  0  0  0  0  0  0
    1.6817    1.4703    0.0000 H   0  0  0  0  0  0  0  0  0  0  0  0
    0.5548    1.1683    0.0000 H   0  0  0  0  0  0  0  0  0  0  0  0
    1.6817    0.0414    0.0000 H   0  0  0  0  0  0  0  0  0  0  0  0
    0.4723   -0.8866    0.0000 H   0  0  0  0  0  0  0  0  0  0  0  0
    1.2692   -1.4981    0.0000 H   0  0  0  0  0  0  0  0  0  0  0  0
    2.0661   -0.8866    0.0000 H   0  0  0  0  0  0  0  0  0  0  0  0
   -0.3808    0.7558    0.0000 H   0  0  0  0  0  0  0  0  0  0  0  0
   -0.3808   -0.6731    0.0000 H   0  0  0  0  0  0  0  0  0  0  0  0
  1  2  1  0  0  0  0
  2  3  1  0  0  0  0
  2  4  1  0  0  0  0
  1  5  1  0  0  0  0
  1  6  1  0  0  0  0
  1  7  1  0  0  0  0
  2  8  1  0  0  0  0
  3  9  1  0  0  0  0
  3 10  1  0  0  0  0
  3 11  1  0  0  0  0
  4 12  1  0  0  0  0
  4 13  1  0  0  0  0
M  END
>  <InChIKey>
JJWLVOIRVHMVIS-UHFFFAOYSA-N

>  <UN GHS>
1

>  <CASRN>
75-31-0

> <Outcome>
1

>  <Index>
343

>  <StandardizerResult>
Clear Stereo (ID: ClearStereo)
Wedge Clean (ID: WedgeClean)
Mesomerize (ID: Mesomerize)
Tautomerize (ID: Tautomerize)
Add Explicit Hydrogens (ID: AddExplicitH)
Neutralize (ID: Neutralize)
Clean 2D (ID: Clean2D)

> <knn Distance>


> <CpId>
343

$$$$
353
  Mrv1532301301811342D          

 28 27  0  0  0  0            999 V2000
    2.9980    2.5572    0.0000 C   0  0  0  0  0  0  0  0  0  0  0  0
    3.7125    2.1447    0.0000 C   0  0  0  0  0  0  0  0  0  0  0  0
    4.4270    2.5572    0.0000 C   0  0  0  0  0  0  0  0  0  0  0  0
    5.1414    2.1447    0.0000 C   0  0  0  0  0  0  0  0  0  0  0  0
    5.8559    2.5572    0.0000 N   0  0  0  0  0  0  0  0  0  0  0  0
    6.5704    2.1447    0.0000 C   0  0  0  0  0  0  0  0  0  0  0  0
    7.2849    2.5572    0.0000 C   0  0  0  0  0  0  0  0  0  0  0  0
    7.9993    2.1447    0.0000 C   0  0  0  0  0  0  0  0  0  0  0  0
    8.7138    2.5572    0.0000 C   0  0  0  0  0  0  0  0  0  0  0  0
    3.4105    3.2716    0.0000 H   0  0  0  0  0  0  0  0  0  0  0  0
    2.2836    2.9697    0.0000 H   0  0  0  0  0  0  0  0  0  0  0  0
    2.5855    1.8427    0.0000 H   0  0  0  0  0  0  0  0  0  0  0  0
    3.3422    1.4074    0.0000 H   0  0  0  0  0  0  0  0  0  0  0  0
    4.0828    1.4074    0.0000 H   0  0  0  0  0  0  0  0  0  0  0  0
    4.7972    3.2944    0.0000 H   0  0  0  0  0  0  0  0  0  0  0  0
    4.0567    3.2944    0.0000 H   0  0  0  0  0  0  0  0  0  0  0  0
    4.7712    1.4074    0.0000 H   0  0  0  0  0  0  0  0  0  0  0  0
    5.5117    1.4074    0.0000 H   0  0  0  0  0  0  0  0  0  0  0  0
    5.8559    3.3822    0.0000 H   0  0  0  0  0  0  0  0  0  0  0  0
    6.2001    1.4074    0.0000 H   0  0  0  0  0  0  0  0  0  0  0  0
    6.9406    1.4074    0.0000 H   0  0  0  0  0  0  0  0  0  0  0  0
    7.6551    3.2944    0.0000 H   0  0  0  0  0  0  0  0  0  0  0  0
    6.9146    3.2944    0.0000 H   0  0  0  0  0  0  0  0  0  0  0  0
    7.6291    1.4074    0.0000 H   0  0  0  0  0  0  0  0  0  0  0  0
    8.3696    1.4074    0.0000 H   0  0  0  0  0  0  0  0  0  0  0  0
    9.1263    1.8427    0.0000 H   0  0  0  0  0  0  0  0  0  0  0  0
    9.4283    2.9697    0.0000 H   0  0  0  0  0  0  0  0  0  0  0  0
    8.3013    3.2716    0.0000 H   0  0  0  0  0  0  0  0  0  0  0  0
  1  2  1  0  0  0  0
  2  3  1  0  0  0  0
  3  4  1  0  0  0  0
  4  5  1  0  0  0  0
  5  6  1  0  0  0  0
  6  7  1  0  0  0  0
  7  8  1  0  0  0  0
  8  9  1  0  0  0  0
  1 10  1  0  0  0  0
  1 11  1  0  0  0  0
  1 12  1  0  0  0  0
  2 13  1  0  0  0  0
  2 14  1  0  0  0  0
  3 15  1  0  0  0  0
  3 16  1  0  0  0  0
  4 17  1  0  0  0  0
  4 18  1  0  0  0  0
  5 19  1  0  0  0  0
  6 20  1  0  0  0  0
  6 21  1  0  0  0  0
  7 22  1  0  0  0  0
  7 23  1  0  0  0  0
  8 24  1  0  0  0  0
  8 25  1  0  0  0  0
  9 26  1  0  0  0  0
  9 27  1  0  0  0  0
  9 28  1  0  0  0  0
M  END
>  <InChIKey>
JQVDAXLFBXTEQA-UHFFFAOYSA-N

>  <UN GHS>
1

>  <CASRN>
111-92-2

> <Outcome>
1

>  <Index>
353

>  <StandardizerResult>
Clear Stereo (ID: ClearStereo)
Wedge Clean (ID: WedgeClean)
Mesomerize (ID: Mesomerize)
Tautomerize (ID: Tautomerize)
Add Explicit Hydrogens (ID: AddExplicitH)
Neutralize (ID: Neutralize)
Clean 2D (ID: Clean2D)

> <knn Distance>


> <CpId>
353

$$$$
354
  Mrv1532301301811342D          

 12 11  0  0  0  0            999 V2000
    0.1105   -2.8875    0.0000 O   0  0  0  0  0  0  0  0  0  0  0  0
    0.1105   -2.0625    0.0000 S   0  0  0  0  0  0  0  0  0  0  0  0
    0.9355   -2.0625    0.0000 O   0  0  0  0  0  0  0  0  0  0  0  0
   -0.7145   -2.0625    0.0000 O   0  0  0  0  0  0  0  0  0  0  0  0
    0.1105   -1.2375    0.0000 O   0  0  0  0  0  0  0  0  0  0  0  0
    0.8250   -0.8250    0.0000 O   0  0  0  0  0  0  0  0  0  0  0  0
    0.8250   -0.0000    0.0000 S   0  0  0  0  0  0  0  0  0  0  0  0
    0.8250    0.8250    0.0000 O   0  0  0  0  0  0  0  0  0  0  0  0
    1.6500   -0.0000    0.0000 O   0  0  0  0  0  0  0  0  0  0  0  0
   -0.0000   -0.0000    0.0000 O   0  0  0  0  0  0  0  0  0  0  0  0
   -0.6040   -3.3000    0.0000 H   0  0  0  0  0  0  0  0  0  0  0  0
    1.5395    1.2375    0.0000 H   0  0  0  0  0  0  0  0  0  0  0  0
  1  2  1  0  0  0  0
  2  3  2  0  0  0  0
  2  4  2  0  0  0  0
  2  5  1  0  0  0  0
  5  6  1  0  0  0  0
  6  7  1  0  0  0  0
  7  8  1  0  0  0  0
  7  9  2  0  0  0  0
  7 10  2  0  0  0  0
  1 11  1  0  0  0  0
  8 12  1  0  0  0  0
M  END
>  <InChIKey>
JRKICGRDRMAZLK-UHFFFAOYSA-L

>  <UN GHS>
2B

>  <CASRN>
7727-54-0

> <Outcome>
1

>  <Index>
354

>  <StandardizerResult>
Clear Stereo (ID: ClearStereo)
Wedge Clean (ID: WedgeClean)
Mesomerize (ID: Mesomerize)
Tautomerize (ID: Tautomerize)
Add Explicit Hydrogens (ID: AddExplicitH)
Neutralize (ID: Neutralize)
Clean 2D (ID: Clean2D)

> <knn Distance>


> <CpId>
354

$$$$
357
  Mrv1532301301811342D          

 40 40  0  0  0  0            999 V2000
    2.0936   -5.2971    0.0000 C   0  0  0  0  0  0  0  0  0  0  0  0
    2.8081   -4.8846    0.0000 C   0  0  0  0  0  0  0  0  0  0  0  0
    2.8081   -4.0596    0.0000 C   0  0  0  0  0  0  0  0  0  0  0  0
    3.5226   -5.2971    0.0000 C   0  0  0  0  0  0  0  0  0  0  0  0
    4.2370   -4.8846    0.0000 C   0  0  0  0  0  0  0  0  0  0  0  0
    4.9515   -5.2971    0.0000 C   0  0  0  0  0  0  0  0  0  0  0  0
    5.6660   -4.8846    0.0000 C   0  0  0  0  0  0  0  0  0  0  0  0
    6.3804   -5.2971    0.0000 C   0  0  0  0  0  0  0  0  0  0  0  0
    7.0949   -4.8846    0.0000 C   0  0  0  0  0  0  0  0  0  0  0  0
    7.8094   -5.2971    0.0000 C   0  0  0  0  0  0  0  0  0  0  0  0
    8.5239   -4.8846    0.0000 C   0  0  0  0  0  0  0  0  0  0  0  0
    9.2383   -5.2971    0.0000 C   0  0  0  0  0  0  0  0  0  0  0  0
    9.2383   -6.1221    0.0000 C   0  0  0  0  0  0  0  0  0  0  0  0
    9.9528   -6.5346    0.0000 O   0  0  0  0  0  0  0  0  0  0  0  0
    8.5239   -6.5346    0.0000 C   0  0  0  0  0  0  0  0  0  0  0  0
    7.8094   -6.1221    0.0000 C   0  0  0  0  0  0  0  0  0  0  0  0
    1.6811   -4.5826    0.0000 H   0  0  0  0  0  0  0  0  0  0  0  0
    1.3792   -5.7096    0.0000 H   0  0  0  0  0  0  0  0  0  0  0  0
    2.5061   -6.0116    0.0000 H   0  0  0  0  0  0  0  0  0  0  0  0
    2.0936   -4.4721    0.0000 H   0  0  0  0  0  0  0  0  0  0  0  0
    3.6050   -4.2731    0.0000 H   0  0  0  0  0  0  0  0  0  0  0  0
    3.2206   -3.3451    0.0000 H   0  0  0  0  0  0  0  0  0  0  0  0
    2.2247   -3.4762    0.0000 H   0  0  0  0  0  0  0  0  0  0  0  0
    3.1523   -6.0343    0.0000 H   0  0  0  0  0  0  0  0  0  0  0  0
    3.8928   -6.0343    0.0000 H   0  0  0  0  0  0  0  0  0  0  0  0
    4.7338   -4.2260    0.0000 H   0  0  0  0  0  0  0  0  0  0  0  0
    4.2370   -5.7096    0.0000 H   0  0  0  0  0  0  0  0  0  0  0  0
    5.0948   -6.1096    0.0000 H   0  0  0  0  0  0  0  0  0  0  0  0
    5.5835   -5.8274    0.0000 H   0  0  0  0  0  0  0  0  0  0  0  0
    6.0362   -4.1474    0.0000 H   0  0  0  0  0  0  0  0  0  0  0  0
    5.2957   -4.1474    0.0000 H   0  0  0  0  0  0  0  0  0  0  0  0
    6.4154   -6.1214    0.0000 H   0  0  0  0  0  0  0  0  0  0  0  0
    7.1035   -5.6944    0.0000 H   0  0  0  0  0  0  0  0  0  0  0  0
    7.4652   -4.1474    0.0000 H   0  0  0  0  0  0  0  0  0  0  0  0
    6.7247   -4.1474    0.0000 H   0  0  0  0  0  0  0  0  0  0  0  0
    8.5239   -4.0596    0.0000 H   0  0  0  0  0  0  0  0  0  0  0  0
    9.9528   -4.8846    0.0000 H   0  0  0  0  0  0  0  0  0  0  0  0
    9.9528   -7.3596    0.0000 H   0  0  0  0  0  0  0  0  0  0  0  0
    8.5239   -7.3596    0.0000 H   0  0  0  0  0  0  0  0  0  0  0  0
    7.3894   -6.8322    0.0000 H   0  0  0  0  0  0  0  0  0  0  0  0
  1  2  1  0  0  0  0
  2  3  1  0  0  0  0
  2  4  1  0  0  0  0
  4  5  1  0  0  0  0
  5  6  1  0  0  0  0
  6  7  1  0  0  0  0
  7  8  1  0  0  0  0
  8  9  1  0  0  0  0
  9 10  1  0  0  0  0
 10 11  4  0  0  0  0
 11 12  4  0  0  0  0
 12 13  4  0  0  0  0
 13 14  1  0  0  0  0
 13 15  4  0  0  0  0
 15 16  4  0  0  0  0
 10 16  4  0  0  0  0
  1 17  1  0  0  0  0
  1 18  1  0  0  0  0
  1 19  1  0  0  0  0
  2 20  1  0  0  0  0
  3 21  1  0  0  0  0
  3 22  1  0  0  0  0
  3 23  1  0  0  0  0
  4 24  1  0  0  0  0
  4 25  1  0  0  0  0
  5 26  1  0  0  0  0
  5 27  1  0  0  0  0
  6 28  1  0  0  0  0
  6 29  1  0  0  0  0
  7 30  1  0  0  0  0
  7 31  1  0  0  0  0
  8 32  1  0  0  0  0
  8 33  1  0  0  0  0
  9 34  1  0  0  0  0
  9 35  1  0  0  0  0
 11 36  1  0  0  0  0
 12 37  1  0  0  0  0
 14 38  1  0  0  0  0
 15 39  1  0  0  0  0
 16 40  1  0  0  0  0
M  END
>  <InChIKey>
JSFITYFUKSFPBZ-UHFFFAOYSA-N

>  <UN GHS>
1

>  <CASRN>
84852-15-3

> <Outcome>
1

>  <Index>
357

>  <StandardizerResult>
Dearomatize (ID: Dearomatize)
Clear Stereo (ID: ClearStereo)
Wedge Clean (ID: WedgeClean)
Mesomerize (ID: Mesomerize)
Tautomerize (ID: Tautomerize)
Aromatize (ID: Aromatize)
Add Explicit Hydrogens (ID: AddExplicitH)
Neutralize (ID: Neutralize)
Clean 2D (ID: Clean2D)

> <knn Distance>


> <CpId>
357

$$$$
360
  Mrv1532301301811342D          

 11 11  0  0  0  0            999 V2000
    0.7145    1.2375    0.0000 C   0  0  0  0  0  0  0  0  0  0  0  0
    1.4289    0.8250    0.0000 C   0  0  0  0  0  0  0  0  0  0  0  0
    1.4289   -0.0000    0.0000 C   0  0  0  0  0  0  0  0  0  0  0  0
    0.7145   -0.4125    0.0000 N   0  0  0  0  0  0  0  0  0  0  0  0
   -0.0000   -0.0000    0.0000 C   0  0  0  0  0  0  0  0  0  0  0  0
   -0.0000    0.8250    0.0000 C   0  0  0  0  0  0  0  0  0  0  0  0
    0.7145    2.0625    0.0000 H   0  0  0  0  0  0  0  0  0  0  0  0
    2.1434    1.2375    0.0000 H   0  0  0  0  0  0  0  0  0  0  0  0
    2.1434   -0.4125    0.0000 H   0  0  0  0  0  0  0  0  0  0  0  0
   -0.7145   -0.4125    0.0000 H   0  0  0  0  0  0  0  0  0  0  0  0
   -0.7145    1.2375    0.0000 H   0  0  0  0  0  0  0  0  0  0  0  0
  1  2  4  0  0  0  0
  2  3  4  0  0  0  0
  3  4  4  0  0  0  0
  4  5  4  0  0  0  0
  5  6  4  0  0  0  0
  1  6  4  0  0  0  0
  1  7  1  0  0  0  0
  2  8  1  0  0  0  0
  3  9  1  0  0  0  0
  5 10  1  0  0  0  0
  6 11  1  0  0  0  0
M  END
>  <InChIKey>
JUJWROOIHBZHMG-UHFFFAOYSA-N

>  <UN GHS>
1

>  <CASRN>
110-86-1

> <Outcome>
1

>  <Index>
360

>  <StandardizerResult>
Dearomatize (ID: Dearomatize)
Clear Stereo (ID: ClearStereo)
Wedge Clean (ID: WedgeClean)
Mesomerize (ID: Mesomerize)
Tautomerize (ID: Tautomerize)
Aromatize (ID: Aromatize)
Add Explicit Hydrogens (ID: AddExplicitH)
Neutralize (ID: Neutralize)
Clean 2D (ID: Clean2D)

> <knn Distance>


> <CpId>
360

$$$$
361
  Mrv1532301301811342D          

 16 15  0  0  0  0            999 V2000
    1.7045    1.5234    0.0000 C   0  0  0  0  0  0  0  0  0  0  0  0
    1.2920    0.8089    0.0000 C   0  0  0  0  0  0  0  0  0  0  0  0
    0.5775    1.2214    0.0000 C   0  0  0  0  0  0  0  0  0  0  0  0
    2.0065    0.3964    0.0000 C   0  0  0  0  0  0  0  0  0  0  0  0
    0.8795    0.0944    0.0000 C   0  0  0  0  0  0  0  0  0  0  0  0
    1.2920   -0.6200    0.0000 Cl  0  0  0  0  0  0  0  0  0  0  0  0
    0.0545    0.0944    0.0000 O   0  0  0  0  0  0  0  0  0  0  0  0
    2.4190    1.1109    0.0000 H   0  0  0  0  0  0  0  0  0  0  0  0
    2.1170    2.2378    0.0000 H   0  0  0  0  0  0  0  0  0  0  0  0
    0.9900    1.9359    0.0000 H   0  0  0  0  0  0  0  0  0  0  0  0
    0.0753    1.8759    0.0000 H   0  0  0  0  0  0  0  0  0  0  0  0
   -0.2193    1.0079    0.0000 H   0  0  0  0  0  0  0  0  0  0  0  0
    0.4699    0.4035    0.0000 H   0  0  0  0  0  0  0  0  0  0  0  0
    1.3520   -0.1058    0.0000 H   0  0  0  0  0  0  0  0  0  0  0  0
    2.2200   -0.4005    0.0000 H   0  0  0  0  0  0  0  0  0  0  0  0
    2.8244    0.2887    0.0000 H   0  0  0  0  0  0  0  0  0  0  0  0
  1  2  1  0  0  0  0
  2  3  1  0  0  0  0
  2  4  1  0  0  0  0
  2  5  1  0  0  0  0
  5  6  1  0  0  0  0
  5  7  2  0  0  0  0
  1  8  1  0  0  0  0
  1  9  1  0  0  0  0
  1 10  1  0  0  0  0
  3 11  1  0  0  0  0
  3 12  1  0  0  0  0
  3 13  1  0  0  0  0
  4 14  1  0  0  0  0
  4 15  1  0  0  0  0
  4 16  1  0  0  0  0
M  END
>  <InChIKey>
JVSFQJZRHXAUGT-UHFFFAOYSA-N

>  <UN GHS>
1

>  <CASRN>
3282-30-2

> <Outcome>
1

>  <Index>
361

>  <StandardizerResult>
Clear Stereo (ID: ClearStereo)
Wedge Clean (ID: WedgeClean)
Mesomerize (ID: Mesomerize)
Tautomerize (ID: Tautomerize)
Add Explicit Hydrogens (ID: AddExplicitH)
Neutralize (ID: Neutralize)
Clean 2D (ID: Clean2D)

> <knn Distance>


> <CpId>
361

$$$$
363
  Mrv1532301301811342D          

 23 23  0  0  0  0            999 V2000
    2.8239    0.9339    0.0000 C   0  0  0  0  0  0  0  0  0  0  0  0
    2.2627    0.3291    0.0000 C   0  0  0  0  0  0  0  0  0  0  0  0
    1.4584    0.5127    0.0000 N   0  0  0  0  0  0  0  0  0  0  0  0
    0.9441   -0.1323    0.0000 C   0  0  0  0  0  0  0  0  0  0  0  0
    0.1191   -0.1323    0.0000 C   0  0  0  0  0  0  0  0  0  0  0  0
   -0.3953    0.5127    0.0000 C   0  0  0  0  0  0  0  0  0  0  0  0
   -0.2117    1.3170    0.0000 C   0  0  0  0  0  0  0  0  0  0  0  0
    0.5316    1.6750    0.0000 C   0  0  0  0  0  0  0  0  0  0  0  0
    1.2749    1.3170    0.0000 C   0  0  0  0  0  0  0  0  0  0  0  0
    1.9199    1.8314    0.0000 O   0  0  0  0  0  0  0  0  0  0  0  0
    3.6282    0.7503    0.0000 H   0  0  0  0  0  0  0  0  0  0  0  0
    2.5807    1.7222    0.0000 H   0  0  0  0  0  0  0  0  0  0  0  0
    2.5059   -0.4592    0.0000 H   0  0  0  0  0  0  0  0  0  0  0  0
    0.9441   -0.9573    0.0000 H   0  0  0  0  0  0  0  0  0  0  0  0
    1.5891   -0.6467    0.0000 H   0  0  0  0  0  0  0  0  0  0  0  0
   -0.5260   -0.6467    0.0000 H   0  0  0  0  0  0  0  0  0  0  0  0
    0.1191   -0.9573    0.0000 H   0  0  0  0  0  0  0  0  0  0  0  0
   -1.1996    0.6963    0.0000 H   0  0  0  0  0  0  0  0  0  0  0  0
   -1.0403   -0.0017    0.0000 H   0  0  0  0  0  0  0  0  0  0  0  0
   -0.5697    2.0603    0.0000 H   0  0  0  0  0  0  0  0  0  0  0  0
   -1.0161    1.5006    0.0000 H   0  0  0  0  0  0  0  0  0  0  0  0
    0.8895    2.4183    0.0000 H   0  0  0  0  0  0  0  0  0  0  0  0
    0.1736    2.4183    0.0000 H   0  0  0  0  0  0  0  0  0  0  0  0
  1  2  2  0  0  0  0
  2  3  1  0  0  0  0
  3  4  1  0  0  0  0
  4  5  1  0  0  0  0
  5  6  1  0  0  0  0
  6  7  1  0  0  0  0
  7  8  1  0  0  0  0
  8  9  1  0  0  0  0
  3  9  1  0  0  0  0
  9 10  2  0  0  0  0
  1 11  1  0  0  0  0
  1 12  1  0  0  0  0
  2 13  1  0  0  0  0
  4 14  1  0  0  0  0
  4 15  1  0  0  0  0
  5 16  1  0  0  0  0
  5 17  1  0  0  0  0
  6 18  1  0  0  0  0
  6 19  1  0  0  0  0
  7 20  1  0  0  0  0
  7 21  1  0  0  0  0
  8 22  1  0  0  0  0
  8 23  1  0  0  0  0
M  END
>  <InChIKey>
JWYVGKFDLWWQJX-UHFFFAOYSA-N

>  <UN GHS>
2A

>  <CASRN>
2235-00-9

> <Outcome>
1

>  <Index>
363

>  <StandardizerResult>
Clear Stereo (ID: ClearStereo)
Wedge Clean (ID: WedgeClean)
Mesomerize (ID: Mesomerize)
Tautomerize (ID: Tautomerize)
Add Explicit Hydrogens (ID: AddExplicitH)
Neutralize (ID: Neutralize)
Clean 2D (ID: Clean2D)

> <knn Distance>


> <CpId>
363

$$$$
364
  Mrv1532301301811342D          

 47 50  0  0  0  0            999 V2000
    6.4389    3.3454    0.0000 C   0  0  0  0  0  0  0  0  0  0  0  0
    6.4647    2.5208    0.0000 C   0  0  0  0  0  0  0  0  0  0  0  0
    5.7635    2.0862    0.0000 O   0  0  0  0  0  0  0  0  0  0  0  0
    5.7892    1.2616    0.0000 C   0  0  0  0  0  0  0  0  0  0  0  0
    6.5162    0.8716    0.0000 O   0  0  0  0  0  0  0  0  0  0  0  0
    5.0880    0.8270    0.0000 C   0  0  0  0  0  0  0  0  0  0  0  0
    5.1138    0.0024    0.0000 N   0  0  0  0  0  0  0  0  0  0  0  0
    5.8408   -0.3876    0.0000 N   0  0  0  0  0  0  0  0  0  0  0  0
    5.8665   -1.2122    0.0000 C   0  0  0  0  0  0  0  0  0  0  0  0
    6.5935   -1.6022    0.0000 C   0  0  0  0  0  0  0  0  0  0  0  0
    6.6193   -2.4268    0.0000 C   0  0  0  0  0  0  0  0  0  0  0  0
    5.9180   -2.8614    0.0000 C   0  0  0  0  0  0  0  0  0  0  0  0
    5.1910   -2.4714    0.0000 C   0  0  0  0  0  0  0  0  0  0  0  0
    5.1653   -1.6468    0.0000 C   0  0  0  0  0  0  0  0  0  0  0  0
    5.9438   -3.6860    0.0000 N   0  0  0  0  0  0  0  0  0  0  0  0
    5.2426   -4.1206    0.0000 O   0  0  0  0  0  0  0  0  0  0  0  0
    6.6708   -4.0760    0.0000 O   0  0  0  0  0  0  0  0  0  0  0  0
    4.3610    1.2170    0.0000 C   0  0  0  0  0  0  0  0  0  0  0  0
    4.3352    2.0416    0.0000 O   0  0  0  0  0  0  0  0  0  0  0  0
    3.6597    0.7824    0.0000 C   0  0  0  0  0  0  0  0  0  0  0  0
    2.8960    1.0942    0.0000 N   0  0  0  0  0  0  0  0  0  0  0  0
    2.3633    0.4642    0.0000 N   0  0  0  0  0  0  0  0  0  0  0  0
    2.7980   -0.2371    0.0000 C   0  0  0  0  0  0  0  0  0  0  0  0
    2.4080   -0.9641    0.0000 N   0  0  0  0  0  0  0  0  0  0  0  0
    1.5834   -0.9898    0.0000 C   0  0  0  0  0  0  0  0  0  0  0  0
    1.1934   -1.7168    0.0000 O   0  0  0  0  0  0  0  0  0  0  0  0
    1.1488   -0.2886    0.0000 C   0  0  0  0  0  0  0  0  0  0  0  0
    0.3242   -0.3143    0.0000 C   0  0  0  0  0  0  0  0  0  0  0  0
   -0.1104    0.3869    0.0000 C   0  0  0  0  0  0  0  0  0  0  0  0
    0.2795    1.1139    0.0000 C   0  0  0  0  0  0  0  0  0  0  0  0
    1.1041    1.1397    0.0000 C   0  0  0  0  0  0  0  0  0  0  0  0
    1.5387    0.4384    0.0000 C   0  0  0  0  0  0  0  0  0  0  0  0
    3.5992   -0.0404    0.0000 S   0  0  0  0  0  0  0  0  0  0  0  0
    7.2635    3.3712    0.0000 H   0  0  0  0  0  0  0  0  0  0  0  0
    6.4132    4.1700    0.0000 H   0  0  0  0  0  0  0  0  0  0  0  0
    5.6144    3.3196    0.0000 H   0  0  0  0  0  0  0  0  0  0  0  0
    6.9394    1.8460    0.0000 H   0  0  0  0  0  0  0  0  0  0  0  0
    7.2894    2.4986    0.0000 H   0  0  0  0  0  0  0  0  0  0  0  0
    6.5420    0.0470    0.0000 H   0  0  0  0  0  0  0  0  0  0  0  0
    7.2948   -1.1676    0.0000 H   0  0  0  0  0  0  0  0  0  0  0  0
    7.3463   -2.8168    0.0000 H   0  0  0  0  0  0  0  0  0  0  0  0
    4.4898   -2.9060    0.0000 H   0  0  0  0  0  0  0  0  0  0  0  0
    4.4383   -1.2568    0.0000 H   0  0  0  0  0  0  0  0  0  0  0  0
   -0.0658   -1.0413    0.0000 H   0  0  0  0  0  0  0  0  0  0  0  0
   -0.9350    0.3611    0.0000 H   0  0  0  0  0  0  0  0  0  0  0  0
   -0.1551    1.8151    0.0000 H   0  0  0  0  0  0  0  0  0  0  0  0
    1.4941    1.8667    0.0000 H   0  0  0  0  0  0  0  0  0  0  0  0
  1  2  1  0  0  0  0
  2  3  1  0  0  0  0
  3  4  1  0  0  0  0
  4  5  2  0  0  0  0
  4  6  1  0  0  0  0
  6  7  2  0  0  0  0
  7  8  1  4  0  0  0
  8  9  1  0  0  0  0
  9 10  4  0  0  0  0
 10 11  4  0  0  0  0
 11 12  4  0  0  0  0
 12 13  4  0  0  0  0
 13 14  4  0  0  0  0
  9 14  4  0  0  0  0
 12 15  1  0  0  0  0
 15 16  2  0  0  0  0
 15 17  2  0  0  0  0
  6 18  1  0  0  0  0
 18 19  2  0  0  0  0
 18 20  1  0  0  0  0
 20 21  2  0  0  0  0
 21 22  1  0  0  0  0
 22 23  1  0  0  0  0
 23 24  2  0  0  0  0
 24 25  1  0  0  0  0
 25 26  2  0  0  0  0
 25 27  1  0  0  0  0
 27 28  4  0  0  0  0
 28 29  4  0  0  0  0
 29 30  4  0  0  0  0
 30 31  4  0  0  0  0
 31 32  4  0  0  0  0
 22 32  1  0  0  0  0
 27 32  4  0  0  0  0
 23 33  1  0  0  0  0
 20 33  1  0  0  0  0
  1 34  1  0  0  0  0
  1 35  1  0  0  0  0
  1 36  1  0  0  0  0
  2 37  1  0  0  0  0
  2 38  1  0  0  0  0
  8 39  1  0  0  0  0
 10 40  1  0  0  0  0
 11 41  1  0  0  0  0
 13 42  1  0  0  0  0
 14 43  1  0  0  0  0
 28 44  1  0  0  0  0
 29 45  1  0  0  0  0
 30 46  1  0  0  0  0
 31 47  1  0  0  0  0
M  END
>  <InChIKey>
KBAQMIYTOZVRBC-HZHRSRAPSA-N

>  <UN GHS>
1

>  <CASRN>
5809-08-05

> <Outcome>
1

>  <Index>
364

>  <StandardizerResult>
Dearomatize (ID: Dearomatize)
Clear Stereo (ID: ClearStereo)
Wedge Clean (ID: WedgeClean)
Mesomerize (ID: Mesomerize)
Tautomerize (ID: Tautomerize)
Aromatize (ID: Aromatize)
Add Explicit Hydrogens (ID: AddExplicitH)
Neutralize (ID: Neutralize)
Clean 2D (ID: Clean2D)

> <knn Distance>


> <CpId>
364

$$$$
365
  Mrv1532301301811342D          

 57 59  0  0  0  0            999 V2000
    5.3381   -0.2770    0.0000 C   0  0  0  0  0  0  0  0  0  0  0  0
    4.9256    0.4375    0.0000 C   0  0  0  0  0  0  0  0  0  0  0  0
    5.3381    1.1520    0.0000 C   0  0  0  0  0  0  0  0  0  0  0  0
    4.1006    0.4375    0.0000 C   0  0  0  0  0  0  0  0  0  0  0  0
    3.6881    1.1520    0.0000 C   0  0  0  0  0  0  0  0  0  0  0  0
    2.8631    1.1520    0.0000 C   0  0  0  0  0  0  0  0  0  0  0  0
    2.4506    0.4375    0.0000 C   0  0  0  0  0  0  0  0  0  0  0  0
    2.8631   -0.2770    0.0000 C   0  0  0  0  0  0  0  0  0  0  0  0
    2.4506   -0.9914    0.0000 C   0  0  0  0  0  0  0  0  0  0  0  0
    1.6256   -0.9914    0.0000 C   0  0  0  0  0  0  0  0  0  0  0  0
    1.2131   -0.2770    0.0000 C   0  0  0  0  0  0  0  0  0  0  0  0
    0.3881   -0.2770    0.0000 C   0  0  0  0  0  0  0  0  0  0  0  0
    0.5314   -1.0894    0.0000 C   0  0  0  0  0  0  0  0  0  0  0  0
   -0.3871   -0.5591    0.0000 C   0  0  0  0  0  0  0  0  0  0  0  0
   -0.5304   -1.3716    0.0000 O   0  0  0  0  0  0  0  0  0  0  0  0
   -0.0244    0.4375    0.0000 C   0  0  0  0  0  0  0  0  0  0  0  0
    0.3881    1.1520    0.0000 C   0  0  0  0  0  0  0  0  0  0  0  0
    1.2131    1.1520    0.0000 C   0  0  0  0  0  0  0  0  0  0  0  0
    1.6256    0.4375    0.0000 C   0  0  0  0  0  0  0  0  0  0  0  0
    2.0381    1.1520    0.0000 C   0  0  0  0  0  0  0  0  0  0  0  0
    3.6881   -0.2770    0.0000 C   0  0  0  0  0  0  0  0  0  0  0  0
    4.6237   -0.6895    0.0000 H   0  0  0  0  0  0  0  0  0  0  0  0
    5.7506   -0.9914    0.0000 H   0  0  0  0  0  0  0  0  0  0  0  0
    6.0526    0.1355    0.0000 H   0  0  0  0  0  0  0  0  0  0  0  0
    5.7506    0.4375    0.0000 H   0  0  0  0  0  0  0  0  0  0  0  0
    6.1350    1.3655    0.0000 H   0  0  0  0  0  0  0  0  0  0  0  0
    5.3381    1.9770    0.0000 H   0  0  0  0  0  0  0  0  0  0  0  0
    4.5412    1.3655    0.0000 H   0  0  0  0  0  0  0  0  0  0  0  0
    4.5131   -0.2770    0.0000 H   0  0  0  0  0  0  0  0  0  0  0  0
    3.5872    1.9708    0.0000 H   0  0  0  0  0  0  0  0  0  0  0  0
    3.2756    0.4375    0.0000 H   0  0  0  0  0  0  0  0  0  0  0  0
    3.1453    1.9272    0.0000 H   0  0  0  0  0  0  0  0  0  0  0  0
    2.5810    1.9272    0.0000 H   0  0  0  0  0  0  0  0  0  0  0  0
    2.0381   -0.2770    0.0000 H   0  0  0  0  0  0  0  0  0  0  0  0
    3.2756   -0.9914    0.0000 H   0  0  0  0  0  0  0  0  0  0  0  0
    2.1685   -1.7667    0.0000 H   0  0  0  0  0  0  0  0  0  0  0  0
    2.7328   -1.7667    0.0000 H   0  0  0  0  0  0  0  0  0  0  0  0
    0.8185   -1.1622    0.0000 H   0  0  0  0  0  0  0  0  0  0  0  0
    1.1298   -1.6508    0.0000 H   0  0  0  0  0  0  0  0  0  0  0  0
    0.8006    0.4375    0.0000 H   0  0  0  0  0  0  0  0  0  0  0  0
   -0.2114   -0.7305    0.0000 H   0  0  0  0  0  0  0  0  0  0  0  0
   -0.1942   -1.4820    0.0000 H   0  0  0  0  0  0  0  0  0  0  0  0
    0.4254   -1.9076    0.0000 H   0  0  0  0  0  0  0  0  0  0  0  0
   -0.7139    0.1984    0.0000 H   0  0  0  0  0  0  0  0  0  0  0  0
   -1.1899   -0.3689    0.0000 H   0  0  0  0  0  0  0  0  0  0  0  0
   -1.2382   -1.7954    0.0000 H   0  0  0  0  0  0  0  0  0  0  0  0
   -0.2570    1.2290    0.0000 H   0  0  0  0  0  0  0  0  0  0  0  0
   -0.7578    0.8152    0.0000 H   0  0  0  0  0  0  0  0  0  0  0  0
    0.8286    1.8495    0.0000 H   0  0  0  0  0  0  0  0  0  0  0  0
    0.0335    1.8969    0.0000 H   0  0  0  0  0  0  0  0  0  0  0  0
    1.8486    1.6781    0.0000 H   0  0  0  0  0  0  0  0  0  0  0  0
    1.3671    1.9625    0.0000 H   0  0  0  0  0  0  0  0  0  0  0  0
    2.1472    1.9697    0.0000 H   0  0  0  0  0  0  0  0  0  0  0  0
    2.7526    0.7395    0.0000 H   0  0  0  0  0  0  0  0  0  0  0  0
    1.3631    1.6263    0.0000 H   0  0  0  0  0  0  0  0  0  0  0  0
    3.8314   -1.0894    0.0000 H   0  0  0  0  0  0  0  0  0  0  0  0
    4.3201   -0.8073    0.0000 H   0  0  0  0  0  0  0  0  0  0  0  0
  1  2  1  0  0  0  0
  2  3  1  0  0  0  0
  2  4  1  0  0  0  0
  4  5  1  0  0  0  0
  5  6  1  0  0  0  0
  6  7  1  0  0  0  0
  7  8  1  0  0  0  0
  8  9  1  0  0  0  0
  9 10  1  0  0  0  0
 10 11  1  0  0  0  0
 11 12  1  0  0  0  0
 12 13  1  0  0  0  0
 12 14  1  0  0  0  0
 14 15  1  0  0  0  0
 12 16  1  0  0  0  0
 16 17  1  0  0  0  0
 17 18  1  0  0  0  0
 18 19  1  0  0  0  0
  7 19  1  0  0  0  0
 11 19  1  0  0  0  0
 19 20  1  0  0  0  0
  8 21  1  0  0  0  0
  4 21  1  0  0  0  0
  1 22  1  0  0  0  0
  1 23  1  0  0  0  0
  1 24  1  0  0  0  0
  2 25  1  0  0  0  0
  3 26  1  0  0  0  0
  3 27  1  0  0  0  0
  3 28  1  0  0  0  0
  4 29  1  0  0  0  0
  5 30  1  0  0  0  0
  5 31  1  0  0  0  0
  6 32  1  0  0  0  0
  6 33  1  0  0  0  0
  7 34  1  0  0  0  0
  8 35  1  0  0  0  0
  9 36  1  0  0  0  0
  9 37  1  0  0  0  0
 10 38  1  0  0  0  0
 10 39  1  0  0  0  0
 11 40  1  0  0  0  0
 13 41  1  0  0  0  0
 13 42  1  0  0  0  0
 13 43  1  0  0  0  0
 14 44  1  0  0  0  0
 14 45  1  0  0  0  0
 15 46  1  0  0  0  0
 16 47  1  0  0  0  0
 16 48  1  0  0  0  0
 17 49  1  0  0  0  0
 17 50  1  0  0  0  0
 18 51  1  0  0  0  0
 18 52  1  0  0  0  0
 20 53  1  0  0  0  0
 20 54  1  0  0  0  0
 20 55  1  0  0  0  0
 21 56  1  0  0  0  0
 21 57  1  0  0  0  0
M  END
>  <InChIKey>
KBAYQFWFCOOCIC-UHFFFAOYSA-N

>  <UN GHS>
2B

>  <CASRN>
13393-93-6

> <Outcome>
1

>  <Index>
365

>  <StandardizerResult>
Clear Stereo (ID: ClearStereo)
Wedge Clean (ID: WedgeClean)
Mesomerize (ID: Mesomerize)
Tautomerize (ID: Tautomerize)
Add Explicit Hydrogens (ID: AddExplicitH)
Neutralize (ID: Neutralize)
Clean 2D (ID: Clean2D)

> <knn Distance>


> <CpId>
365

$$$$
366
  Mrv1532301301811342D          

 27 26  0  0  0  0            999 V2000
    2.9980    2.5566    0.0000 C   0  0  0  0  0  0  0  0  0  0  0  0
    3.7125    2.1441    0.0000 C   0  0  0  0  0  0  0  0  0  0  0  0
    4.4270    2.5566    0.0000 C   0  0  0  0  0  0  0  0  0  0  0  0
    5.1414    2.1441    0.0000 C   0  0  0  0  0  0  0  0  0  0  0  0
    5.8559    2.5566    0.0000 C   0  0  0  0  0  0  0  0  0  0  0  0
    6.5704    2.1441    0.0000 C   0  0  0  0  0  0  0  0  0  0  0  0
    7.2849    2.5566    0.0000 C   0  0  0  0  0  0  0  0  0  0  0  0
    7.9993    2.1441    0.0000 C   0  0  0  0  0  0  0  0  0  0  0  0
    8.7138    2.5566    0.0000 O   0  0  0  0  0  0  0  0  0  0  0  0
    3.4105    3.2710    0.0000 H   0  0  0  0  0  0  0  0  0  0  0  0
    2.2836    2.9691    0.0000 H   0  0  0  0  0  0  0  0  0  0  0  0
    2.5855    1.8421    0.0000 H   0  0  0  0  0  0  0  0  0  0  0  0
    3.3422    1.4068    0.0000 H   0  0  0  0  0  0  0  0  0  0  0  0
    4.0828    1.4068    0.0000 H   0  0  0  0  0  0  0  0  0  0  0  0
    4.7972    3.2938    0.0000 H   0  0  0  0  0  0  0  0  0  0  0  0
    4.0567    3.2938    0.0000 H   0  0  0  0  0  0  0  0  0  0  0  0
    4.7712    1.4068    0.0000 H   0  0  0  0  0  0  0  0  0  0  0  0
    5.5117    1.4068    0.0000 H   0  0  0  0  0  0  0  0  0  0  0  0
    6.2262    3.2938    0.0000 H   0  0  0  0  0  0  0  0  0  0  0  0
    5.4857    3.2938    0.0000 H   0  0  0  0  0  0  0  0  0  0  0  0
    6.2001    1.4068    0.0000 H   0  0  0  0  0  0  0  0  0  0  0  0
    6.9406    1.4068    0.0000 H   0  0  0  0  0  0  0  0  0  0  0  0
    7.6551    3.2938    0.0000 H   0  0  0  0  0  0  0  0  0  0  0  0
    6.9146    3.2938    0.0000 H   0  0  0  0  0  0  0  0  0  0  0  0
    7.6291    1.4068    0.0000 H   0  0  0  0  0  0  0  0  0  0  0  0
    8.3696    1.4068    0.0000 H   0  0  0  0  0  0  0  0  0  0  0  0
    9.4283    2.1441    0.0000 H   0  0  0  0  0  0  0  0  0  0  0  0
  1  2  1  0  0  0  0
  2  3  1  0  0  0  0
  3  4  1  0  0  0  0
  4  5  1  0  0  0  0
  5  6  1  0  0  0  0
  6  7  1  0  0  0  0
  7  8  1  0  0  0  0
  8  9  1  0  0  0  0
  1 10  1  0  0  0  0
  1 11  1  0  0  0  0
  1 12  1  0  0  0  0
  2 13  1  0  0  0  0
  2 14  1  0  0  0  0
  3 15  1  0  0  0  0
  3 16  1  0  0  0  0
  4 17  1  0  0  0  0
  4 18  1  0  0  0  0
  5 19  1  0  0  0  0
  5 20  1  0  0  0  0
  6 21  1  0  0  0  0
  6 22  1  0  0  0  0
  7 23  1  0  0  0  0
  7 24  1  0  0  0  0
  8 25  1  0  0  0  0
  8 26  1  0  0  0  0
  9 27  1  0  0  0  0
M  END
>  <InChIKey>
KBPLFHHGFOOTCA-UHFFFAOYSA-N

>  <UN GHS>
2A

>  <CASRN>
111-87-5

> <Outcome>
1

>  <Index>
366

>  <StandardizerResult>
Clear Stereo (ID: ClearStereo)
Wedge Clean (ID: WedgeClean)
Mesomerize (ID: Mesomerize)
Tautomerize (ID: Tautomerize)
Add Explicit Hydrogens (ID: AddExplicitH)
Neutralize (ID: Neutralize)
Clean 2D (ID: Clean2D)

> <knn Distance>


> <CpId>
366

$$$$
367
  Mrv1532301301811342D          

 15 15  0  0  0  0            999 V2000
   -0.0010    2.4744    0.0000 Cl  0  0  0  0  0  0  0  0  0  0  0  0
    0.7135    2.0619    0.0000 C   0  0  0  0  0  0  0  0  0  0  0  0
    0.7135    1.2369    0.0000 C   0  0  0  0  0  0  0  0  0  0  0  0
    1.4279    0.8244    0.0000 C   0  0  0  0  0  0  0  0  0  0  0  0
    1.4279   -0.0006    0.0000 C   0  0  0  0  0  0  0  0  0  0  0  0
    0.7135   -0.4131    0.0000 C   0  0  0  0  0  0  0  0  0  0  0  0
   -0.0010   -0.0006    0.0000 C   0  0  0  0  0  0  0  0  0  0  0  0
   -0.0010    0.8244    0.0000 C   0  0  0  0  0  0  0  0  0  0  0  0
    1.5371    2.1099    0.0000 H   0  0  0  0  0  0  0  0  0  0  0  0
    1.1668    2.7512    0.0000 H   0  0  0  0  0  0  0  0  0  0  0  0
    2.1424    1.2369    0.0000 H   0  0  0  0  0  0  0  0  0  0  0  0
    2.1424   -0.4131    0.0000 H   0  0  0  0  0  0  0  0  0  0  0  0
    0.7135   -1.2381    0.0000 H   0  0  0  0  0  0  0  0  0  0  0  0
   -0.7155   -0.4131    0.0000 H   0  0  0  0  0  0  0  0  0  0  0  0
   -0.7155    1.2369    0.0000 H   0  0  0  0  0  0  0  0  0  0  0  0
  1  2  1  0  0  0  0
  2  3  1  0  0  0  0
  3  4  4  0  0  0  0
  4  5  4  0  0  0  0
  5  6  4  0  0  0  0
  6  7  4  0  0  0  0
  7  8  4  0  0  0  0
  3  8  4  0  0  0  0
  2  9  1  0  0  0  0
  2 10  1  0  0  0  0
  4 11  1  0  0  0  0
  5 12  1  0  0  0  0
  6 13  1  0  0  0  0
  7 14  1  0  0  0  0
  8 15  1  0  0  0  0
M  END
>  <InChIKey>
KCXMKQUNVWSEMD-UHFFFAOYSA-N

>  <UN GHS>
2B

>  <CASRN>
100-44-7

> <Outcome>
1

>  <Index>
367

>  <StandardizerResult>
Dearomatize (ID: Dearomatize)
Clear Stereo (ID: ClearStereo)
Wedge Clean (ID: WedgeClean)
Mesomerize (ID: Mesomerize)
Tautomerize (ID: Tautomerize)
Aromatize (ID: Aromatize)
Add Explicit Hydrogens (ID: AddExplicitH)
Neutralize (ID: Neutralize)
Clean 2D (ID: Clean2D)

> <knn Distance>


> <CpId>
367

$$$$
368
  Mrv1532301301811342D          

 36 35  0  0  0  0            999 V2000
    5.0308    0.9660    0.0000 O   0  0  0  0  0  0  0  0  0  0  0  0
    5.8409    1.1219    0.0000 C   0  0  0  0  0  0  0  0  0  0  0  0
    6.1109    1.9014    0.0000 O   0  0  0  0  0  0  0  0  0  0  0  0
    6.3810    0.4982    0.0000 C   0  0  0  0  0  0  0  0  0  0  0  0
    6.1109   -0.2813    0.0000 N   0  0  0  0  0  0  0  0  0  0  0  0
    5.3008   -0.4372    0.0000 C   0  0  0  0  0  0  0  0  0  0  0  0
    5.0308   -1.2168    0.0000 C   0  0  0  0  0  0  0  0  0  0  0  0
    4.2206   -1.3727    0.0000 N   0  0  0  0  0  0  0  0  0  0  0  0
    3.9506   -2.1523    0.0000 C   0  0  0  0  0  0  0  0  0  0  0  0
    4.4907   -2.7759    0.0000 C   0  0  0  0  0  0  0  0  0  0  0  0
    5.3008   -2.6200    0.0000 O   0  0  0  0  0  0  0  0  0  0  0  0
    4.2206   -3.5554    0.0000 O   0  0  0  0  0  0  0  0  0  0  0  0
    3.6805   -0.7491    0.0000 C   0  0  0  0  0  0  0  0  0  0  0  0
    2.8704   -0.9050    0.0000 C   0  0  0  0  0  0  0  0  0  0  0  0
    2.3303   -0.2813    0.0000 O   0  0  0  0  0  0  0  0  0  0  0  0
    2.6004   -1.6845    0.0000 O   0  0  0  0  0  0  0  0  0  0  0  0
    6.6510   -0.9050    0.0000 C   0  0  0  0  0  0  0  0  0  0  0  0
    7.4612   -0.7491    0.0000 C   0  0  0  0  0  0  0  0  0  0  0  0
    7.7312    0.0305    0.0000 O   0  0  0  0  0  0  0  0  0  0  0  0
    8.0013   -1.3727    0.0000 O   0  0  0  0  0  0  0  0  0  0  0  0
    4.4907    1.5896    0.0000 H   0  0  0  0  0  0  0  0  0  0  0  0
    7.1749    0.2740    0.0000 H   0  0  0  0  0  0  0  0  0  0  0  0
    7.0350    1.0011    0.0000 H   0  0  0  0  0  0  0  0  0  0  0  0
    5.0981    0.3625    0.0000 H   0  0  0  0  0  0  0  0  0  0  0  0
    4.5383   -0.1223    0.0000 H   0  0  0  0  0  0  0  0  0  0  0  0
    5.2335   -2.0165    0.0000 H   0  0  0  0  0  0  0  0  0  0  0  0
    5.7933   -1.5317    0.0000 H   0  0  0  0  0  0  0  0  0  0  0  0
    3.1567   -1.9280    0.0000 H   0  0  0  0  0  0  0  0  0  0  0  0
    3.2966   -2.6552    0.0000 H   0  0  0  0  0  0  0  0  0  0  0  0
    5.9651   -3.1092    0.0000 H   0  0  0  0  0  0  0  0  0  0  0  0
    4.2717   -0.1736    0.0000 H   0  0  0  0  0  0  0  0  0  0  0  0
    3.5720    0.0688    0.0000 H   0  0  0  0  0  0  0  0  0  0  0  0
    2.6004    0.4982    0.0000 H   0  0  0  0  0  0  0  0  0  0  0  0
    6.0599   -1.4804    0.0000 H   0  0  0  0  0  0  0  0  0  0  0  0
    6.7596   -1.7228    0.0000 H   0  0  0  0  0  0  0  0  0  0  0  0
    8.4871    0.3612    0.0000 H   0  0  0  0  0  0  0  0  0  0  0  0
  1  2  1  0  0  0  0
  2  3  2  0  0  0  0
  2  4  1  0  0  0  0
  4  5  1  0  0  0  0
  5  6  1  0  0  0  0
  6  7  1  0  0  0  0
  7  8  1  0  0  0  0
  8  9  1  0  0  0  0
  9 10  1  0  0  0  0
 10 11  1  0  0  0  0
 10 12  2  0  0  0  0
  8 13  1  0  0  0  0
 13 14  1  0  0  0  0
 14 15  1  0  0  0  0
 14 16  2  0  0  0  0
  5 17  1  0  0  0  0
 17 18  1  0  0  0  0
 18 19  1  0  0  0  0
 18 20  2  0  0  0  0
  1 21  1  0  0  0  0
  4 22  1  0  0  0  0
  4 23  1  0  0  0  0
  6 24  1  0  0  0  0
  6 25  1  0  0  0  0
  7 26  1  0  0  0  0
  7 27  1  0  0  0  0
  9 28  1  0  0  0  0
  9 29  1  0  0  0  0
 11 30  1  0  0  0  0
 13 31  1  0  0  0  0
 13 32  1  0  0  0  0
 15 33  1  0  0  0  0
 17 34  1  0  0  0  0
 17 35  1  0  0  0  0
 19 36  1  0  0  0  0
M  END
>  <InChIKey>
KCXVZYZYPLLWCC-UHFFFAOYSA-J

>  <UN GHS>
2A

>  <CASRN>
64-02-8

> <Outcome>
1

>  <Index>
368

>  <StandardizerResult>
Clear Stereo (ID: ClearStereo)
Wedge Clean (ID: WedgeClean)
Mesomerize (ID: Mesomerize)
Tautomerize (ID: Tautomerize)
Add Explicit Hydrogens (ID: AddExplicitH)
Neutralize (ID: Neutralize)
Clean 2D (ID: Clean2D)

> <knn Distance>


> <CpId>
368

$$$$
369
  Mrv1532301301811342D          

 18 17  0  0  0  0            999 V2000
    2.0769    0.7157    0.0000 C   0  0  0  0  0  0  0  0  0  0  0  0
    1.6644    0.0012    0.0000 C   0  0  0  0  0  0  0  0  0  0  0  0
    2.0769   -0.7132    0.0000 O   0  0  0  0  0  0  0  0  0  0  0  0
    0.8394    0.0012    0.0000 C   0  0  0  0  0  0  0  0  0  0  0  0
    0.0144    0.0012    0.0000 C   0  0  0  0  0  0  0  0  0  0  0  0
   -0.8106    0.0012    0.0000 C   0  0  0  0  0  0  0  0  0  0  0  0
   -1.2231   -0.7132    0.0000 C   0  0  0  0  0  0  0  0  0  0  0  0
   -1.2231    0.7157    0.0000 O   0  0  0  0  0  0  0  0  0  0  0  0
    2.7914    0.3032    0.0000 H   0  0  0  0  0  0  0  0  0  0  0  0
    2.4894    1.4302    0.0000 H   0  0  0  0  0  0  0  0  0  0  0  0
    1.3624    1.1282    0.0000 H   0  0  0  0  0  0  0  0  0  0  0  0
    2.4894    0.0012    0.0000 H   0  0  0  0  0  0  0  0  0  0  0  0
    2.0769   -1.5382    0.0000 H   0  0  0  0  0  0  0  0  0  0  0  0
   -0.3981   -0.7132    0.0000 H   0  0  0  0  0  0  0  0  0  0  0  0
   -1.8065   -0.1299    0.0000 H   0  0  0  0  0  0  0  0  0  0  0  0
   -1.9376   -1.1257    0.0000 H   0  0  0  0  0  0  0  0  0  0  0  0
   -1.0096   -1.5101    0.0000 H   0  0  0  0  0  0  0  0  0  0  0  0
   -0.8106    1.4302    0.0000 H   0  0  0  0  0  0  0  0  0  0  0  0
  1  2  1  0  0  0  0
  2  3  1  0  0  0  0
  2  4  1  0  0  0  0
  4  5  3  0  0  0  0
  5  6  1  0  0  0  0
  6  7  1  0  0  0  0
  6  8  1  0  0  0  0
  1  9  1  0  0  0  0
  1 10  1  0  0  0  0
  1 11  1  0  0  0  0
  2 12  1  0  0  0  0
  3 13  1  0  0  0  0
  6 14  1  0  0  0  0
  7 15  1  0  0  0  0
  7 16  1  0  0  0  0
  7 17  1  0  0  0  0
  8 18  1  0  0  0  0
M  END
>  <InChIKey>
KDOWHHULNTXTNS-UHFFFAOYSA-N

>  <UN GHS>
1

>  <CASRN>
3031-66-1

> <Outcome>
1

>  <Index>
369

>  <StandardizerResult>
Clear Stereo (ID: ClearStereo)
Wedge Clean (ID: WedgeClean)
Mesomerize (ID: Mesomerize)
Tautomerize (ID: Tautomerize)
Add Explicit Hydrogens (ID: AddExplicitH)
Neutralize (ID: Neutralize)
Clean 2D (ID: Clean2D)

> <knn Distance>


> <CpId>
369

$$$$
371
  Mrv1532301301811342D          

 14 13  0  0  0  0            999 V2000
   -0.1914    0.7145    0.0000 O   0  0  0  0  0  0  0  0  0  0  0  0
    0.5230    1.1270    0.0000 C   0  0  0  0  0  0  0  0  0  0  0  0
    0.5230    1.9520    0.0000 O   0  0  0  0  0  0  0  0  0  0  0  0
    1.2375    0.7145    0.0000 C   0  0  0  0  0  0  0  0  0  0  0  0
    1.9520    1.1270    0.0000 C   0  0  0  0  0  0  0  0  0  0  0  0
    2.6664    0.7145    0.0000 C   0  0  0  0  0  0  0  0  0  0  0  0
    3.3809    1.1270    0.0000 O   0  0  0  0  0  0  0  0  0  0  0  0
    2.6664   -0.1105    0.0000 O   0  0  0  0  0  0  0  0  0  0  0  0
   -0.9059    1.1270    0.0000 H   0  0  0  0  0  0  0  0  0  0  0  0
    0.8672   -0.0228    0.0000 H   0  0  0  0  0  0  0  0  0  0  0  0
    1.6078   -0.0228    0.0000 H   0  0  0  0  0  0  0  0  0  0  0  0
    2.3222    1.8642    0.0000 H   0  0  0  0  0  0  0  0  0  0  0  0
    1.5817    1.8642    0.0000 H   0  0  0  0  0  0  0  0  0  0  0  0
    4.0954    0.7145    0.0000 H   0  0  0  0  0  0  0  0  0  0  0  0
  1  2  1  0  0  0  0
  2  3  2  0  0  0  0
  2  4  1  0  0  0  0
  4  5  1  0  0  0  0
  5  6  1  0  0  0  0
  6  7  1  0  0  0  0
  6  8  2  0  0  0  0
  1  9  1  0  0  0  0
  4 10  1  0  0  0  0
  4 11  1  0  0  0  0
  5 12  1  0  0  0  0
  5 13  1  0  0  0  0
  7 14  1  0  0  0  0
M  END
>  <InChIKey>
KDYFGRWQOYBRFD-UHFFFAOYSA-N

>  <UN GHS>
1

>  <CASRN>
110-15-6

> <Outcome>
1

>  <Index>
371

>  <StandardizerResult>
Clear Stereo (ID: ClearStereo)
Wedge Clean (ID: WedgeClean)
Mesomerize (ID: Mesomerize)
Tautomerize (ID: Tautomerize)
Add Explicit Hydrogens (ID: AddExplicitH)
Neutralize (ID: Neutralize)
Clean 2D (ID: Clean2D)

> <knn Distance>


> <CpId>
371

$$$$
374
  Mrv1532301301811342D          

 43 42  0  0  0  0            999 V2000
    3.4395    2.8691    0.0000 C   0  0  0  0  0  0  0  0  0  0  0  0
    4.1540    3.2816    0.0000 C   0  0  0  0  0  0  0  0  0  0  0  0
    4.8684    2.8691    0.0000 C   0  0  0  0  0  0  0  0  0  0  0  0
    5.5829    3.2816    0.0000 C   0  0  0  0  0  0  0  0  0  0  0  0
    5.5829    4.1066    0.0000 C   0  0  0  0  0  0  0  0  0  0  0  0
    6.2974    4.5191    0.0000 C   0  0  0  0  0  0  0  0  0  0  0  0
    6.2974    2.8691    0.0000 C   0  0  0  0  0  0  0  0  0  0  0  0
    7.0119    3.2816    0.0000 C   0  0  0  0  0  0  0  0  0  0  0  0
    7.7263    2.8691    0.0000 C   0  0  0  0  0  0  0  0  0  0  0  0
    8.4408    3.2816    0.0000 C   0  0  0  0  0  0  0  0  0  0  0  0
    9.1553    2.8691    0.0000 C   0  0  0  0  0  0  0  0  0  0  0  0
    9.8697    3.2816    0.0000 C   0  0  0  0  0  0  0  0  0  0  0  0
   10.5842    2.8691    0.0000 C   0  0  0  0  0  0  0  0  0  0  0  0
   11.2987    3.2816    0.0000 N   0  0  0  0  0  0  0  0  0  0  0  0
    3.0270    3.5835    0.0000 H   0  0  0  0  0  0  0  0  0  0  0  0
    2.7250    2.4566    0.0000 H   0  0  0  0  0  0  0  0  0  0  0  0
    3.8520    2.1546    0.0000 H   0  0  0  0  0  0  0  0  0  0  0  0
    4.5242    4.0188    0.0000 H   0  0  0  0  0  0  0  0  0  0  0  0
    3.7837    4.0188    0.0000 H   0  0  0  0  0  0  0  0  0  0  0  0
    4.4982    2.1318    0.0000 H   0  0  0  0  0  0  0  0  0  0  0  0
    5.2387    2.1318    0.0000 H   0  0  0  0  0  0  0  0  0  0  0  0
    4.8684    3.6941    0.0000 H   0  0  0  0  0  0  0  0  0  0  0  0
    5.4397    4.9190    0.0000 H   0  0  0  0  0  0  0  0  0  0  0  0
    4.9509    4.6369    0.0000 H   0  0  0  0  0  0  0  0  0  0  0  0
    6.5282    3.7270    0.0000 H   0  0  0  0  0  0  0  0  0  0  0  0
    7.1216    4.5551    0.0000 H   0  0  0  0  0  0  0  0  0  0  0  0
    6.4583    5.3282    0.0000 H   0  0  0  0  0  0  0  0  0  0  0  0
    5.9271    2.1318    0.0000 H   0  0  0  0  0  0  0  0  0  0  0  0
    6.6676    2.1318    0.0000 H   0  0  0  0  0  0  0  0  0  0  0  0
    7.5006    3.9463    0.0000 H   0  0  0  0  0  0  0  0  0  0  0  0
    7.0119    2.4566    0.0000 H   0  0  0  0  0  0  0  0  0  0  0  0
    7.8696    2.0566    0.0000 H   0  0  0  0  0  0  0  0  0  0  0  0
    8.3583    2.3388    0.0000 H   0  0  0  0  0  0  0  0  0  0  0  0
    8.8111    4.0188    0.0000 H   0  0  0  0  0  0  0  0  0  0  0  0
    8.0705    4.0188    0.0000 H   0  0  0  0  0  0  0  0  0  0  0  0
    9.1902    2.0448    0.0000 H   0  0  0  0  0  0  0  0  0  0  0  0
    9.8783    2.4718    0.0000 H   0  0  0  0  0  0  0  0  0  0  0  0
   10.2400    4.0188    0.0000 H   0  0  0  0  0  0  0  0  0  0  0  0
    9.4995    4.0188    0.0000 H   0  0  0  0  0  0  0  0  0  0  0  0
   10.7220    2.0557    0.0000 H   0  0  0  0  0  0  0  0  0  0  0  0
   11.2139    2.3361    0.0000 H   0  0  0  0  0  0  0  0  0  0  0  0
   12.0551    3.6110    0.0000 H   0  0  0  0  0  0  0  0  0  0  0  0
   11.2794    4.1063    0.0000 H   0  0  0  0  0  0  0  0  0  0  0  0
  1  2  1  0  0  0  0
  2  3  1  0  0  0  0
  3  4  1  0  0  0  0
  4  5  1  0  0  0  0
  5  6  1  0  0  0  0
  4  7  1  0  0  0  0
  7  8  1  0  0  0  0
  8  9  1  0  0  0  0
  9 10  1  0  0  0  0
 10 11  1  0  0  0  0
 11 12  1  0  0  0  0
 12 13  1  0  0  0  0
 13 14  1  0  0  0  0
  1 15  1  0  0  0  0
  1 16  1  0  0  0  0
  1 17  1  0  0  0  0
  2 18  1  0  0  0  0
  2 19  1  0  0  0  0
  3 20  1  0  0  0  0
  3 21  1  0  0  0  0
  4 22  1  0  0  0  0
  5 23  1  0  0  0  0
  5 24  1  0  0  0  0
  6 25  1  0  0  0  0
  6 26  1  0  0  0  0
  6 27  1  0  0  0  0
  7 28  1  0  0  0  0
  7 29  1  0  0  0  0
  8 30  1  0  0  0  0
  8 31  1  0  0  0  0
  9 32  1  0  0  0  0
  9 33  1  0  0  0  0
 10 34  1  0  0  0  0
 10 35  1  0  0  0  0
 11 36  1  0  0  0  0
 11 37  1  0  0  0  0
 12 38  1  0  0  0  0
 12 39  1  0  0  0  0
 13 40  1  0  0  0  0
 13 41  1  0  0  0  0
 14 42  1  0  0  0  0
 14 43  1  0  0  0  0
M  END
>  <InChIKey>
KFBNTNYCQVDLBK-UHFFFAOYSA-N

>  <UN GHS>
1

>  <CASRN>
86089-17-0

> <Outcome>
1

>  <Index>
374

>  <StandardizerResult>
Clear Stereo (ID: ClearStereo)
Wedge Clean (ID: WedgeClean)
Mesomerize (ID: Mesomerize)
Tautomerize (ID: Tautomerize)
Add Explicit Hydrogens (ID: AddExplicitH)
Neutralize (ID: Neutralize)
Clean 2D (ID: Clean2D)

> <knn Distance>


> <CpId>
374

$$$$
377
  Mrv1532301301811342D          

  9  8  0  0  0  0            999 V2000
    2.0625   -0.7145    0.0000 C   0  0  0  0  0  0  0  0  0  0  0  0
    1.2375   -0.7145    0.0000 C   0  0  0  0  0  0  0  0  0  0  0  0
    0.8250   -1.4290    0.0000 O   0  0  0  0  0  0  0  0  0  0  0  0
    0.8250   -0.0000    0.0000 O   0  0  0  0  0  0  0  0  0  0  0  0
    0.0000   -0.0000    0.0000 O   0  0  0  0  0  0  0  0  0  0  0  0
    2.0625   -1.5395    0.0000 H   0  0  0  0  0  0  0  0  0  0  0  0
    2.8875   -0.7145    0.0000 H   0  0  0  0  0  0  0  0  0  0  0  0
    2.0625    0.1105    0.0000 H   0  0  0  0  0  0  0  0  0  0  0  0
   -0.4125    0.7145    0.0000 H   0  0  0  0  0  0  0  0  0  0  0  0
  1  2  1  0  0  0  0
  2  3  2  0  0  0  0
  2  4  1  0  0  0  0
  4  5  1  0  0  0  0
  1  6  1  0  0  0  0
  1  7  1  0  0  0  0
  1  8  1  0  0  0  0
  5  9  1  0  0  0  0
M  END
>  <InChIKey>
KFSLWBXXFJQRDL-UHFFFAOYSA-N

>  <UN GHS>
2B

>  <CASRN>
79-21-0

> <Outcome>
1

>  <Index>
377

>  <StandardizerResult>
Clear Stereo (ID: ClearStereo)
Wedge Clean (ID: WedgeClean)
Mesomerize (ID: Mesomerize)
Tautomerize (ID: Tautomerize)
Add Explicit Hydrogens (ID: AddExplicitH)
Neutralize (ID: Neutralize)
Clean 2D (ID: Clean2D)

> <knn Distance>


> <CpId>
377

$$$$
385
  Mrv1532301301811342D          

 36 35  0  0  0  0            999 V2000
    5.4730    3.9849    0.0000 C   0  0  0  0  0  0  0  0  0  0  0  0
    6.1875    3.5724    0.0000 O   0  0  0  0  0  0  0  0  0  0  0  0
    6.9020    3.9849    0.0000 C   0  0  0  0  0  0  0  0  0  0  0  0
    6.9020    4.8099    0.0000 O   0  0  0  0  0  0  0  0  0  0  0  0
    7.6164    3.5724    0.0000 C   0  0  0  0  0  0  0  0  0  0  0  0
    8.3309    3.9849    0.0000 C   0  0  0  0  0  0  0  0  0  0  0  0
    9.0454    3.5724    0.0000 C   0  0  0  0  0  0  0  0  0  0  0  0
    9.7599    3.9849    0.0000 C   0  0  0  0  0  0  0  0  0  0  0  0
   10.4743    3.5724    0.0000 C   0  0  0  0  0  0  0  0  0  0  0  0
   11.1888    3.9849    0.0000 C   0  0  0  0  0  0  0  0  0  0  0  0
   11.9033    3.5724    0.0000 C   0  0  0  0  0  0  0  0  0  0  0  0
   12.6177    3.9849    0.0000 C   0  0  0  0  0  0  0  0  0  0  0  0
   13.3322    3.5724    0.0000 C   0  0  0  0  0  0  0  0  0  0  0  0
   14.0467    3.9849    0.0000 C   0  0  0  0  0  0  0  0  0  0  0  0
    5.8855    4.6994    0.0000 H   0  0  0  0  0  0  0  0  0  0  0  0
    4.7586    4.3974    0.0000 H   0  0  0  0  0  0  0  0  0  0  0  0
    5.0605    3.2704    0.0000 H   0  0  0  0  0  0  0  0  0  0  0  0
    7.2462    2.8352    0.0000 H   0  0  0  0  0  0  0  0  0  0  0  0
    7.9867    2.8352    0.0000 H   0  0  0  0  0  0  0  0  0  0  0  0
    8.7012    4.7221    0.0000 H   0  0  0  0  0  0  0  0  0  0  0  0
    7.9606    4.7221    0.0000 H   0  0  0  0  0  0  0  0  0  0  0  0
    8.6751    2.8352    0.0000 H   0  0  0  0  0  0  0  0  0  0  0  0
    9.4156    2.8352    0.0000 H   0  0  0  0  0  0  0  0  0  0  0  0
   10.1301    4.7221    0.0000 H   0  0  0  0  0  0  0  0  0  0  0  0
    9.3896    4.7221    0.0000 H   0  0  0  0  0  0  0  0  0  0  0  0
   10.1041    2.8352    0.0000 H   0  0  0  0  0  0  0  0  0  0  0  0
   10.8446    2.8352    0.0000 H   0  0  0  0  0  0  0  0  0  0  0  0
   11.5591    4.7221    0.0000 H   0  0  0  0  0  0  0  0  0  0  0  0
   10.8185    4.7221    0.0000 H   0  0  0  0  0  0  0  0  0  0  0  0
   11.5330    2.8352    0.0000 H   0  0  0  0  0  0  0  0  0  0  0  0
   12.2735    2.8352    0.0000 H   0  0  0  0  0  0  0  0  0  0  0  0
   12.9880    4.7221    0.0000 H   0  0  0  0  0  0  0  0  0  0  0  0
   12.2475    4.7221    0.0000 H   0  0  0  0  0  0  0  0  0  0  0  0
   13.3322    2.7474    0.0000 H   0  0  0  0  0  0  0  0  0  0  0  0
   14.7611    3.5724    0.0000 H   0  0  0  0  0  0  0  0  0  0  0  0
   14.0467    4.8099    0.0000 H   0  0  0  0  0  0  0  0  0  0  0  0
  1  2  1  0  0  0  0
  2  3  1  0  0  0  0
  3  4  2  0  0  0  0
  3  5  1  0  0  0  0
  5  6  1  0  0  0  0
  6  7  1  0  0  0  0
  7  8  1  0  0  0  0
  8  9  1  0  0  0  0
  9 10  1  0  0  0  0
 10 11  1  0  0  0  0
 11 12  1  0  0  0  0
 12 13  1  0  0  0  0
 13 14  2  0  0  0  0
  1 15  1  0  0  0  0
  1 16  1  0  0  0  0
  1 17  1  0  0  0  0
  5 18  1  0  0  0  0
  5 19  1  0  0  0  0
  6 20  1  0  0  0  0
  6 21  1  0  0  0  0
  7 22  1  0  0  0  0
  7 23  1  0  0  0  0
  8 24  1  0  0  0  0
  8 25  1  0  0  0  0
  9 26  1  0  0  0  0
  9 27  1  0  0  0  0
 10 28  1  0  0  0  0
 10 29  1  0  0  0  0
 11 30  1  0  0  0  0
 11 31  1  0  0  0  0
 12 32  1  0  0  0  0
 12 33  1  0  0  0  0
 13 34  1  0  0  0  0
 14 35  1  0  0  0  0
 14 36  1  0  0  0  0
M  END
>  <InChIKey>
KISVAASFGZJBCY-UHFFFAOYSA-N

>  <UN GHS>
2B

>  <CASRN>
111-81-9

> <Outcome>
1

>  <Index>
385

>  <StandardizerResult>
Clear Stereo (ID: ClearStereo)
Wedge Clean (ID: WedgeClean)
Mesomerize (ID: Mesomerize)
Tautomerize (ID: Tautomerize)
Add Explicit Hydrogens (ID: AddExplicitH)
Neutralize (ID: Neutralize)
Clean 2D (ID: Clean2D)

> <knn Distance>


> <CpId>
385

$$$$
390
  Mrv1532301301811342D          

 29 28  0  0  0  0            999 V2000
    5.8559    3.3879    0.0000 C   0  0  0  0  0  0  0  0  0  0  0  0
    5.8559    2.5629    0.0000 N   0  0  0  0  0  0  0  0  0  0  0  0
    5.1414    2.1504    0.0000 C   0  0  0  0  0  0  0  0  0  0  0  0
    4.4270    2.5629    0.0000 C   0  0  0  0  0  0  0  0  0  0  0  0
    3.7125    2.1504    0.0000 C   0  0  0  0  0  0  0  0  0  0  0  0
    2.9980    2.5629    0.0000 N   0  0  0  0  0  0  0  0  0  0  0  0
    6.5704    2.1504    0.0000 C   0  0  0  0  0  0  0  0  0  0  0  0
    7.2849    2.5629    0.0000 C   0  0  0  0  0  0  0  0  0  0  0  0
    7.9993    2.1504    0.0000 C   0  0  0  0  0  0  0  0  0  0  0  0
    8.7138    2.5629    0.0000 N   0  0  0  0  0  0  0  0  0  0  0  0
    6.6809    3.3879    0.0000 H   0  0  0  0  0  0  0  0  0  0  0  0
    5.8559    4.2129    0.0000 H   0  0  0  0  0  0  0  0  0  0  0  0
    5.0309    3.3879    0.0000 H   0  0  0  0  0  0  0  0  0  0  0  0
    4.7712    1.4132    0.0000 H   0  0  0  0  0  0  0  0  0  0  0  0
    5.5117    1.4132    0.0000 H   0  0  0  0  0  0  0  0  0  0  0  0
    4.7972    3.3002    0.0000 H   0  0  0  0  0  0  0  0  0  0  0  0
    4.0567    3.3002    0.0000 H   0  0  0  0  0  0  0  0  0  0  0  0
    3.3422    1.4132    0.0000 H   0  0  0  0  0  0  0  0  0  0  0  0
    4.0828    1.4132    0.0000 H   0  0  0  0  0  0  0  0  0  0  0  0
    2.9980    3.3879    0.0000 H   0  0  0  0  0  0  0  0  0  0  0  0
    2.2836    2.1504    0.0000 H   0  0  0  0  0  0  0  0  0  0  0  0
    6.2001    1.4132    0.0000 H   0  0  0  0  0  0  0  0  0  0  0  0
    6.9406    1.4132    0.0000 H   0  0  0  0  0  0  0  0  0  0  0  0
    7.6551    3.3002    0.0000 H   0  0  0  0  0  0  0  0  0  0  0  0
    6.9146    3.3002    0.0000 H   0  0  0  0  0  0  0  0  0  0  0  0
    7.6291    1.4132    0.0000 H   0  0  0  0  0  0  0  0  0  0  0  0
    8.3696    1.4132    0.0000 H   0  0  0  0  0  0  0  0  0  0  0  0
    9.4283    2.1504    0.0000 H   0  0  0  0  0  0  0  0  0  0  0  0
    8.7138    3.3879    0.0000 H   0  0  0  0  0  0  0  0  0  0  0  0
  1  2  1  0  0  0  0
  2  3  1  0  0  0  0
  3  4  1  0  0  0  0
  4  5  1  0  0  0  0
  5  6  1  0  0  0  0
  2  7  1  0  0  0  0
  7  8  1  0  0  0  0
  8  9  1  0  0  0  0
  9 10  1  0  0  0  0
  1 11  1  0  0  0  0
  1 12  1  0  0  0  0
  1 13  1  0  0  0  0
  3 14  1  0  0  0  0
  3 15  1  0  0  0  0
  4 16  1  0  0  0  0
  4 17  1  0  0  0  0
  5 18  1  0  0  0  0
  5 19  1  0  0  0  0
  6 20  1  0  0  0  0
  6 21  1  0  0  0  0
  7 22  1  0  0  0  0
  7 23  1  0  0  0  0
  8 24  1  0  0  0  0
  8 25  1  0  0  0  0
  9 26  1  0  0  0  0
  9 27  1  0  0  0  0
 10 28  1  0  0  0  0
 10 29  1  0  0  0  0
M  END
>  <InChIKey>
KMBPCQSCMCEPMU-UHFFFAOYSA-N

>  <UN GHS>
1

>  <CASRN>
105-83-9

> <Outcome>
1

>  <Index>
390

>  <StandardizerResult>
Clear Stereo (ID: ClearStereo)
Wedge Clean (ID: WedgeClean)
Mesomerize (ID: Mesomerize)
Tautomerize (ID: Tautomerize)
Add Explicit Hydrogens (ID: AddExplicitH)
Neutralize (ID: Neutralize)
Clean 2D (ID: Clean2D)

> <knn Distance>


> <CpId>
390

$$$$
391
  Mrv1532301301811342D          

 19 20  0  0  0  0            999 V2000
    0.8416   -2.0851    0.0000 O   0  0  0  0  0  0  0  0  0  0  0  0
    1.0966   -1.3005    0.0000 C   0  0  0  0  0  0  0  0  0  0  0  0
    0.6116   -0.6330    0.0000 O   0  0  0  0  0  0  0  0  0  0  0  0
    1.0966    0.0344    0.0000 C   0  0  0  0  0  0  0  0  0  0  0  0
    0.8416    0.8190    0.0000 O   0  0  0  0  0  0  0  0  0  0  0  0
    1.8812   -0.2205    0.0000 C   0  0  0  0  0  0  0  0  0  0  0  0
    2.5957    0.1920    0.0000 C   0  0  0  0  0  0  0  0  0  0  0  0
    3.3101   -0.2205    0.0000 C   0  0  0  0  0  0  0  0  0  0  0  0
    3.3101   -1.0455    0.0000 C   0  0  0  0  0  0  0  0  0  0  0  0
    2.5957   -1.4580    0.0000 C   0  0  0  0  0  0  0  0  0  0  0  0
    1.8812   -1.0455    0.0000 C   0  0  0  0  0  0  0  0  0  0  0  0
    2.5957   -0.6330    0.0000 H   0  0  0  0  0  0  0  0  0  0  0  0
    2.9659    0.9292    0.0000 H   0  0  0  0  0  0  0  0  0  0  0  0
    2.2254    0.9292    0.0000 H   0  0  0  0  0  0  0  0  0  0  0  0
    4.0246    0.1920    0.0000 H   0  0  0  0  0  0  0  0  0  0  0  0
    4.0246   -1.4580    0.0000 H   0  0  0  0  0  0  0  0  0  0  0  0
    2.2254   -2.1953    0.0000 H   0  0  0  0  0  0  0  0  0  0  0  0
    2.9659   -2.1953    0.0000 H   0  0  0  0  0  0  0  0  0  0  0  0
    1.7950   -1.8660    0.0000 H   0  0  0  0  0  0  0  0  0  0  0  0
  1  2  2  0  0  0  0
  2  3  1  0  0  0  0
  3  4  1  0  0  0  0
  4  5  2  0  0  0  0
  4  6  1  0  0  0  0
  6  7  1  0  0  0  0
  7  8  1  0  0  0  0
  8  9  2  0  0  0  0
  9 10  1  0  0  0  0
 10 11  1  0  0  0  0
  2 11  1  0  0  0  0
  6 11  1  0  0  0  0
  6 12  1  0  0  0  0
  7 13  1  0  0  0  0
  7 14  1  0  0  0  0
  8 15  1  0  0  0  0
  9 16  1  0  0  0  0
 10 17  1  0  0  0  0
 10 18  1  0  0  0  0
 11 19  1  0  0  0  0
M  END
>  <InChIKey>
KMOUUZVZFBCRAM-UHFFFAOYSA-N

>  <UN GHS>
1

>  <CASRN>
85-43-8

> <Outcome>
1

>  <Index>
391

>  <StandardizerResult>
Clear Stereo (ID: ClearStereo)
Wedge Clean (ID: WedgeClean)
Mesomerize (ID: Mesomerize)
Tautomerize (ID: Tautomerize)
Add Explicit Hydrogens (ID: AddExplicitH)
Neutralize (ID: Neutralize)
Clean 2D (ID: Clean2D)

> <knn Distance>


> <CpId>
391

$$$$
392
  Mrv1532301301811342D          

 10 10  0  0  0  0            999 V2000
    1.6475   -1.3806    0.0000 O   0  0  0  0  0  0  0  0  0  0  0  0
    1.1626   -0.7132    0.0000 C   0  0  0  0  0  0  0  0  0  0  0  0
    0.3376   -0.7132    0.0000 O   0  0  0  0  0  0  0  0  0  0  0  0
    0.0827    0.0714    0.0000 C   0  0  0  0  0  0  0  0  0  0  0  0
    0.7501    0.5563    0.0000 C   0  0  0  0  0  0  0  0  0  0  0  0
    1.4175    0.0714    0.0000 O   0  0  0  0  0  0  0  0  0  0  0  0
   -0.4904    0.6649    0.0000 H   0  0  0  0  0  0  0  0  0  0  0  0
   -0.7298   -0.0718    0.0000 H   0  0  0  0  0  0  0  0  0  0  0  0
    1.1374    1.2848    0.0000 H   0  0  0  0  0  0  0  0  0  0  0  0
    0.3628    1.2848    0.0000 H   0  0  0  0  0  0  0  0  0  0  0  0
  1  2  2  0  0  0  0
  2  3  1  0  0  0  0
  3  4  1  0  0  0  0
  4  5  1  0  0  0  0
  5  6  1  0  0  0  0
  2  6  1  0  0  0  0
  4  7  1  0  0  0  0
  4  8  1  0  0  0  0
  5  9  1  0  0  0  0
  5 10  1  0  0  0  0
M  END
>  <InChIKey>
KMTRUDSVKNLOMY-UHFFFAOYSA-N

>  <UN GHS>
2A

>  <CASRN>
96-49-1

> <Outcome>
1

>  <Index>
392

>  <StandardizerResult>
Clear Stereo (ID: ClearStereo)
Wedge Clean (ID: WedgeClean)
Mesomerize (ID: Mesomerize)
Tautomerize (ID: Tautomerize)
Add Explicit Hydrogens (ID: AddExplicitH)
Neutralize (ID: Neutralize)
Clean 2D (ID: Clean2D)

> <knn Distance>


> <CpId>
392

$$$$
395
  Mrv1532301301811342D          

 23 25  0  0  0  0            999 V2000
    1.3589   -0.1401    0.0000 C   0  0  0  0  0  0  0  0  0  0  0  0
    1.3589    0.6849    0.0000 C   0  0  0  0  0  0  0  0  0  0  0  0
    1.1526    1.5099    0.0000 C   0  0  0  0  0  0  0  0  0  0  0  0
    1.3589    2.3349    0.0000 C   0  0  0  0  0  0  0  0  0  0  0  0
    2.0734    1.9224    0.0000 C   0  0  0  0  0  0  0  0  0  0  0  0
    2.0734    1.0974    0.0000 C   0  0  0  0  0  0  0  0  0  0  0  0
    0.6444    1.9224    0.0000 C   0  0  0  0  0  0  0  0  0  0  0  0
    0.6444    1.0974    0.0000 C   0  0  0  0  0  0  0  0  0  0  0  0
   -0.1402    0.8425    0.0000 C   0  0  0  0  0  0  0  0  0  0  0  0
   -0.3951    0.0579    0.0000 O   0  0  0  0  0  0  0  0  0  0  0  0
   -0.6251    1.5099    0.0000 O   0  0  0  0  0  0  0  0  0  0  0  0
   -0.1402    2.1774    0.0000 C   0  0  0  0  0  0  0  0  0  0  0  0
   -0.3951    2.9620    0.0000 O   0  0  0  0  0  0  0  0  0  0  0  0
    0.5339   -0.1401    0.0000 H   0  0  0  0  0  0  0  0  0  0  0  0
    1.3589   -0.9651    0.0000 H   0  0  0  0  0  0  0  0  0  0  0  0
    2.1839   -0.1401    0.0000 H   0  0  0  0  0  0  0  0  0  0  0  0
    1.8984    1.1571    0.0000 H   0  0  0  0  0  0  0  0  0  0  0  0
    1.8984    1.8628    0.0000 H   0  0  0  0  0  0  0  0  0  0  0  0
    1.3589    3.1599    0.0000 H   0  0  0  0  0  0  0  0  0  0  0  0
    2.7878    2.3349    0.0000 H   0  0  0  0  0  0  0  0  0  0  0  0
    2.7878    0.6849    0.0000 H   0  0  0  0  0  0  0  0  0  0  0  0
    0.5582    2.7429    0.0000 H   0  0  0  0  0  0  0  0  0  0  0  0
    0.5582    0.2769    0.0000 H   0  0  0  0  0  0  0  0  0  0  0  0
  1  2  1  0  0  0  0
  2  3  1  0  0  0  0
  3  4  1  0  0  0  0
  4  5  1  0  0  0  0
  5  6  2  0  0  0  0
  2  6  1  0  0  0  0
  4  7  1  0  0  0  0
  7  8  1  0  0  0  0
  2  8  1  0  0  0  0
  8  9  1  0  0  0  0
  9 10  2  0  0  0  0
  9 11  1  0  0  0  0
 11 12  1  0  0  0  0
  7 12  1  0  0  0  0
 12 13  2  0  0  0  0
  1 14  1  0  0  0  0
  1 15  1  0  0  0  0
  1 16  1  0  0  0  0
  3 17  1  0  0  0  0
  3 18  1  0  0  0  0
  4 19  1  0  0  0  0
  5 20  1  0  0  0  0
  6 21  1  0  0  0  0
  7 22  1  0  0  0  0
  8 23  1  0  0  0  0
M  END
>  <InChIKey>
KNRCVAANTQNTPT-UHFFFAOYSA-N

>  <UN GHS>
1

>  <CASRN>
25134-21-8

> <Outcome>
1

>  <Index>
395

>  <StandardizerResult>
Clear Stereo (ID: ClearStereo)
Wedge Clean (ID: WedgeClean)
Mesomerize (ID: Mesomerize)
Tautomerize (ID: Tautomerize)
Add Explicit Hydrogens (ID: AddExplicitH)
Neutralize (ID: Neutralize)
Clean 2D (ID: Clean2D)

> <knn Distance>


> <CpId>
395

$$$$
401
  Mrv1532301301811342D          

 14 14  0  0  0  0            999 V2000
    0.7145    2.0625    0.0000 N   0  0  0  0  0  0  0  0  0  0  0  0
    0.7145    1.2375    0.0000 C   0  0  0  0  0  0  0  0  0  0  0  0
    1.4289    0.8250    0.0000 C   0  0  0  0  0  0  0  0  0  0  0  0
    1.4289   -0.0000    0.0000 C   0  0  0  0  0  0  0  0  0  0  0  0
    0.7145   -0.4125    0.0000 C   0  0  0  0  0  0  0  0  0  0  0  0
    0.7145   -1.2375    0.0000 F   0  0  0  0  0  0  0  0  0  0  0  0
    0.0000    0.0000    0.0000 C   0  0  0  0  0  0  0  0  0  0  0  0
    0.0000    0.8250    0.0000 C   0  0  0  0  0  0  0  0  0  0  0  0
    1.4289    2.4750    0.0000 H   0  0  0  0  0  0  0  0  0  0  0  0
    0.0000    2.4750    0.0000 H   0  0  0  0  0  0  0  0  0  0  0  0
    2.1434    1.2375    0.0000 H   0  0  0  0  0  0  0  0  0  0  0  0
    2.1434   -0.4125    0.0000 H   0  0  0  0  0  0  0  0  0  0  0  0
   -0.7145   -0.4125    0.0000 H   0  0  0  0  0  0  0  0  0  0  0  0
   -0.7145    1.2375    0.0000 H   0  0  0  0  0  0  0  0  0  0  0  0
  1  2  1  0  0  0  0
  2  3  4  0  0  0  0
  3  4  4  0  0  0  0
  4  5  4  0  0  0  0
  5  6  1  0  0  0  0
  5  7  4  0  0  0  0
  7  8  4  0  0  0  0
  2  8  4  0  0  0  0
  1  9  1  0  0  0  0
  1 10  1  0  0  0  0
  3 11  1  0  0  0  0
  4 12  1  0  0  0  0
  7 13  1  0  0  0  0
  8 14  1  0  0  0  0
M  END
>  <InChIKey>
KRZCOLNOCZKSDF-UHFFFAOYSA-N

>  <UN GHS>
2A

>  <CASRN>
371-40-4

> <Outcome>
1

>  <Index>
401

>  <StandardizerResult>
Dearomatize (ID: Dearomatize)
Clear Stereo (ID: ClearStereo)
Wedge Clean (ID: WedgeClean)
Mesomerize (ID: Mesomerize)
Tautomerize (ID: Tautomerize)
Aromatize (ID: Aromatize)
Add Explicit Hydrogens (ID: AddExplicitH)
Neutralize (ID: Neutralize)
Clean 2D (ID: Clean2D)

> <knn Distance>


> <CpId>
401

$$$$
404
  Mrv1532301301811342D          

 12 11  0  0  0  0            999 V2000
    2.8875   -0.7145    0.0000 C   0  0  0  0  0  0  0  0  0  0  0  0
    2.0625   -0.7145    0.0000 C   0  0  0  0  0  0  0  0  0  0  0  0
    1.6500   -0.0000    0.0000 C   0  0  0  0  0  0  0  0  0  0  0  0
    0.8250   -0.0000    0.0000 C   0  0  0  0  0  0  0  0  0  0  0  0
    0.0000   -0.0000    0.0000 N   0  0  0  0  0  0  0  0  0  0  0  0
    2.8875   -1.5395    0.0000 H   0  0  0  0  0  0  0  0  0  0  0  0
    3.7125   -0.7145    0.0000 H   0  0  0  0  0  0  0  0  0  0  0  0
    2.8875    0.1105    0.0000 H   0  0  0  0  0  0  0  0  0  0  0  0
    1.3732   -1.1678    0.0000 H   0  0  0  0  0  0  0  0  0  0  0  0
    2.0145   -1.5381    0.0000 H   0  0  0  0  0  0  0  0  0  0  0  0
    2.3393    0.4533    0.0000 H   0  0  0  0  0  0  0  0  0  0  0  0
    1.6980    0.8236    0.0000 H   0  0  0  0  0  0  0  0  0  0  0  0
  1  2  1  0  0  0  0
  2  3  1  0  0  0  0
  3  4  1  0  0  0  0
  4  5  3  0  0  0  0
  1  6  1  0  0  0  0
  1  7  1  0  0  0  0
  1  8  1  0  0  0  0
  2  9  1  0  0  0  0
  2 10  1  0  0  0  0
  3 11  1  0  0  0  0
  3 12  1  0  0  0  0
M  END
>  <InChIKey>
KVNRLNFWIYMESJ-UHFFFAOYSA-N

>  <UN GHS>
2B

>  <CASRN>
109-74-0

> <Outcome>
1

>  <Index>
404

>  <StandardizerResult>
Clear Stereo (ID: ClearStereo)
Wedge Clean (ID: WedgeClean)
Mesomerize (ID: Mesomerize)
Tautomerize (ID: Tautomerize)
Add Explicit Hydrogens (ID: AddExplicitH)
Neutralize (ID: Neutralize)
Clean 2D (ID: Clean2D)

> <knn Distance>


> <CpId>
404

$$$$
405
  Mrv1532301301811342D          

 57 56  0  0  0  0            999 V2000
    8.4711    5.7155    0.0000 C   0  0  0  0  0  0  0  0  0  0  0  0
    9.1855    6.1280    0.0000 C   0  0  0  0  0  0  0  0  0  0  0  0
    9.9000    5.7155    0.0000 C   0  0  0  0  0  0  0  0  0  0  0  0
   10.6145    6.1280    0.0000 C   0  0  0  0  0  0  0  0  0  0  0  0
   11.3289    5.7155    0.0000 C   0  0  0  0  0  0  0  0  0  0  0  0
   12.0434    6.1280    0.0000 C   0  0  0  0  0  0  0  0  0  0  0  0
   12.7579    5.7155    0.0000 C   0  0  0  0  0  0  0  0  0  0  0  0
   13.4724    6.1280    0.0000 C   0  0  0  0  0  0  0  0  0  0  0  0
   14.1868    5.7155    0.0000 C   0  0  0  0  0  0  0  0  0  0  0  0
   14.9013    6.1280    0.0000 C   0  0  0  0  0  0  0  0  0  0  0  0
   15.6158    5.7155    0.0000 C   0  0  0  0  0  0  0  0  0  0  0  0
   16.3302    6.1280    0.0000 C   0  0  0  0  0  0  0  0  0  0  0  0
   17.0447    5.7155    0.0000 C   0  0  0  0  0  0  0  0  0  0  0  0
   17.7592    6.1280    0.0000 C   0  0  0  0  0  0  0  0  0  0  0  0
   18.4737    5.7155    0.0000 C   0  0  0  0  0  0  0  0  0  0  0  0
   19.1881    6.1280    0.0000 C   0  0  0  0  0  0  0  0  0  0  0  0
   19.1881    6.9530    0.0000 O   0  0  0  0  0  0  0  0  0  0  0  0
   19.9026    5.7155    0.0000 N   0  0  0  0  0  0  0  0  0  0  0  0
   20.6171    6.1280    0.0000 C   0  0  0  0  0  0  0  0  0  0  0  0
   21.3315    5.7155    0.0000 C   0  0  0  0  0  0  0  0  0  0  0  0
   22.0460    6.1280    0.0000 O   0  0  0  0  0  0  0  0  0  0  0  0
   21.3315    4.8905    0.0000 O   0  0  0  0  0  0  0  0  0  0  0  0
    8.0586    6.4300    0.0000 H   0  0  0  0  0  0  0  0  0  0  0  0
    7.7566    5.3030    0.0000 H   0  0  0  0  0  0  0  0  0  0  0  0
    8.8836    5.0010    0.0000 H   0  0  0  0  0  0  0  0  0  0  0  0
    9.5558    6.8652    0.0000 H   0  0  0  0  0  0  0  0  0  0  0  0
    8.8153    6.8652    0.0000 H   0  0  0  0  0  0  0  0  0  0  0  0
    9.5297    4.9782    0.0000 H   0  0  0  0  0  0  0  0  0  0  0  0
   10.2703    4.9782    0.0000 H   0  0  0  0  0  0  0  0  0  0  0  0
   10.9847    6.8652    0.0000 H   0  0  0  0  0  0  0  0  0  0  0  0
   10.2442    6.8652    0.0000 H   0  0  0  0  0  0  0  0  0  0  0  0
   10.9587    4.9782    0.0000 H   0  0  0  0  0  0  0  0  0  0  0  0
   11.6992    4.9782    0.0000 H   0  0  0  0  0  0  0  0  0  0  0  0
   12.4137    6.8652    0.0000 H   0  0  0  0  0  0  0  0  0  0  0  0
   11.6732    6.8652    0.0000 H   0  0  0  0  0  0  0  0  0  0  0  0
   12.3876    4.9782    0.0000 H   0  0  0  0  0  0  0  0  0  0  0  0
   13.1281    4.9782    0.0000 H   0  0  0  0  0  0  0  0  0  0  0  0
   13.8426    6.8652    0.0000 H   0  0  0  0  0  0  0  0  0  0  0  0
   13.1021    6.8652    0.0000 H   0  0  0  0  0  0  0  0  0  0  0  0
   13.8166    4.9782    0.0000 H   0  0  0  0  0  0  0  0  0  0  0  0
   14.5571    4.9782    0.0000 H   0  0  0  0  0  0  0  0  0  0  0  0
   15.2716    6.8652    0.0000 H   0  0  0  0  0  0  0  0  0  0  0  0
   14.5310    6.8652    0.0000 H   0  0  0  0  0  0  0  0  0  0  0  0
   15.2455    4.9782    0.0000 H   0  0  0  0  0  0  0  0  0  0  0  0
   15.9860    4.9782    0.0000 H   0  0  0  0  0  0  0  0  0  0  0  0
   16.7005    6.8652    0.0000 H   0  0  0  0  0  0  0  0  0  0  0  0
   15.9600    6.8652    0.0000 H   0  0  0  0  0  0  0  0  0  0  0  0
   16.6745    4.9782    0.0000 H   0  0  0  0  0  0  0  0  0  0  0  0
   17.4150    4.9782    0.0000 H   0  0  0  0  0  0  0  0  0  0  0  0
   18.1294    6.8652    0.0000 H   0  0  0  0  0  0  0  0  0  0  0  0
   17.3889    6.8652    0.0000 H   0  0  0  0  0  0  0  0  0  0  0  0
   18.1034    4.9782    0.0000 H   0  0  0  0  0  0  0  0  0  0  0  0
   18.8439    4.9782    0.0000 H   0  0  0  0  0  0  0  0  0  0  0  0
   19.9026    4.8905    0.0000 H   0  0  0  0  0  0  0  0  0  0  0  0
   20.9873    6.8652    0.0000 H   0  0  0  0  0  0  0  0  0  0  0  0
   20.2468    6.8652    0.0000 H   0  0  0  0  0  0  0  0  0  0  0  0
   22.7605    5.7155    0.0000 H   0  0  0  0  0  0  0  0  0  0  0  0
  1  2  1  0  0  0  0
  2  3  1  0  0  0  0
  3  4  1  0  0  0  0
  4  5  1  0  0  0  0
  5  6  1  0  0  0  0
  6  7  1  0  0  0  0
  7  8  1  0  0  0  0
  8  9  1  0  0  0  0
  9 10  1  0  0  0  0
 10 11  1  0  0  0  0
 11 12  1  0  0  0  0
 12 13  1  0  0  0  0
 13 14  1  0  0  0  0
 14 15  1  0  0  0  0
 15 16  1  0  0  0  0
 16 17  2  0  0  0  0
 16 18  1  0  0  0  0
 18 19  1  0  0  0  0
 19 20  1  0  0  0  0
 20 21  1  0  0  0  0
 20 22  2  0  0  0  0
  1 23  1  0  0  0  0
  1 24  1  0  0  0  0
  1 25  1  0  0  0  0
  2 26  1  0  0  0  0
  2 27  1  0  0  0  0
  3 28  1  0  0  0  0
  3 29  1  0  0  0  0
  4 30  1  0  0  0  0
  4 31  1  0  0  0  0
  5 32  1  0  0  0  0
  5 33  1  0  0  0  0
  6 34  1  0  0  0  0
  6 35  1  0  0  0  0
  7 36  1  0  0  0  0
  7 37  1  0  0  0  0
  8 38  1  0  0  0  0
  8 39  1  0  0  0  0
  9 40  1  0  0  0  0
  9 41  1  0  0  0  0
 10 42  1  0  0  0  0
 10 43  1  0  0  0  0
 11 44  1  0  0  0  0
 11 45  1  0  0  0  0
 12 46  1  0  0  0  0
 12 47  1  0  0  0  0
 13 48  1  0  0  0  0
 13 49  1  0  0  0  0
 14 50  1  0  0  0  0
 14 51  1  0  0  0  0
 15 52  1  0  0  0  0
 15 53  1  0  0  0  0
 18 54  1  0  0  0  0
 19 55  1  0  0  0  0
 19 56  1  0  0  0  0
 21 57  1  0  0  0  0
M  END
>  <InChIKey>
KVTFEOAKFFQCCX-UHFFFAOYSA-N

>  <UN GHS>
2A

>  <CASRN>
2441-41-0

> <Outcome>
1

>  <Index>
405

>  <StandardizerResult>
Clear Stereo (ID: ClearStereo)
Wedge Clean (ID: WedgeClean)
Mesomerize (ID: Mesomerize)
Tautomerize (ID: Tautomerize)
Add Explicit Hydrogens (ID: AddExplicitH)
Neutralize (ID: Neutralize)
Clean 2D (ID: Clean2D)

> <knn Distance>


> <CpId>
405

$$$$
413
  Mrv1532301301811342D          

  7  6  0  0  0  0            999 V2000
    1.2375    0.7145    0.0000 N   0  0  0  0  0  0  0  0  0  0  0  0
    0.8250    0.0000    0.0000 C   0  0  0  0  0  0  0  0  0  0  0  0
    1.2375   -0.7145    0.0000 O   0  0  0  0  0  0  0  0  0  0  0  0
   -0.0000    0.0000    0.0000 O   0  0  0  0  0  0  0  0  0  0  0  0
    2.0625    0.7145    0.0000 H   0  0  0  0  0  0  0  0  0  0  0  0
    0.8250    1.4289    0.0000 H   0  0  0  0  0  0  0  0  0  0  0  0
    0.8250   -1.4289    0.0000 H   0  0  0  0  0  0  0  0  0  0  0  0
  1  2  1  0  0  0  0
  2  3  1  0  0  0  0
  2  4  2  0  0  0  0
  1  5  1  0  0  0  0
  1  6  1  0  0  0  0
  3  7  1  0  0  0  0
M  END
>  <InChIKey>
KXDHJXZQYSOELW-UHFFFAOYSA-M

>  <UN GHS>
1

>  <CASRN>
1111-78-0

> <Outcome>
1

>  <Index>
413

>  <StandardizerResult>
Clear Stereo (ID: ClearStereo)
Wedge Clean (ID: WedgeClean)
Mesomerize (ID: Mesomerize)
Tautomerize (ID: Tautomerize)
Add Explicit Hydrogens (ID: AddExplicitH)
Neutralize (ID: Neutralize)
Clean 2D (ID: Clean2D)

> <knn Distance>


> <CpId>
413

$$$$
415
  Mrv1532301301811342D          

 11 10  0  0  0  0            999 V2000
    0.8250    1.4289    0.0000 C   0  0  0  0  0  0  0  0  0  0  0  0
    1.2375    0.7144    0.0000 O   0  0  0  0  0  0  0  0  0  0  0  0
    0.8250   -0.0000    0.0000 C   0  0  0  0  0  0  0  0  0  0  0  0
    1.2375   -0.7145    0.0000 C   0  0  0  0  0  0  0  0  0  0  0  0
   -0.0000   -0.0000    0.0000 O   0  0  0  0  0  0  0  0  0  0  0  0
    1.5395    1.8414    0.0000 H   0  0  0  0  0  0  0  0  0  0  0  0
    0.4125    2.1434    0.0000 H   0  0  0  0  0  0  0  0  0  0  0  0
    0.1105    1.0164    0.0000 H   0  0  0  0  0  0  0  0  0  0  0  0
    0.5230   -1.1270    0.0000 H   0  0  0  0  0  0  0  0  0  0  0  0
    1.6500   -1.4290    0.0000 H   0  0  0  0  0  0  0  0  0  0  0  0
    1.9520   -0.3020    0.0000 H   0  0  0  0  0  0  0  0  0  0  0  0
  1  2  1  0  0  0  0
  2  3  1  0  0  0  0
  3  4  1  0  0  0  0
  3  5  2  0  0  0  0
  1  6  1  0  0  0  0
  1  7  1  0  0  0  0
  1  8  1  0  0  0  0
  4  9  1  0  0  0  0
  4 10  1  0  0  0  0
  4 11  1  0  0  0  0
M  END
>  <InChIKey>
KXKVLQRXCPHEJC-UHFFFAOYSA-N

>  <UN GHS>
2A

>  <CASRN>
79-20-9

> <Outcome>
1

>  <Index>
415

>  <StandardizerResult>
Clear Stereo (ID: ClearStereo)
Wedge Clean (ID: WedgeClean)
Mesomerize (ID: Mesomerize)
Tautomerize (ID: Tautomerize)
Add Explicit Hydrogens (ID: AddExplicitH)
Neutralize (ID: Neutralize)
Clean 2D (ID: Clean2D)

> <knn Distance>


> <CpId>
415

$$$$
422
  Mrv1532301301811342D          

 17 17  0  0  0  0            999 V2000
    1.8492    2.2324    0.0000 O   0  0  0  0  0  0  0  0  0  0  0  0
    1.8492    1.4074    0.0000 C   0  0  0  0  0  0  0  0  0  0  0  0
    1.1347    0.9949    0.0000 N   0  0  0  0  0  0  0  0  0  0  0  0
    1.1347    0.1699    0.0000 C   0  0  0  0  0  0  0  0  0  0  0  0
    0.4203   -0.2426    0.0000 C   0  0  0  0  0  0  0  0  0  0  0  0
   -0.2942    0.1699    0.0000 O   0  0  0  0  0  0  0  0  0  0  0  0
   -0.2942    0.9949    0.0000 C   0  0  0  0  0  0  0  0  0  0  0  0
    0.4203    1.4074    0.0000 C   0  0  0  0  0  0  0  0  0  0  0  0
    2.5637    0.9949    0.0000 H   0  0  0  0  0  0  0  0  0  0  0  0
    1.5881   -0.5194    0.0000 H   0  0  0  0  0  0  0  0  0  0  0  0
    1.9583    0.1219    0.0000 H   0  0  0  0  0  0  0  0  0  0  0  0
    0.0500   -0.9799    0.0000 H   0  0  0  0  0  0  0  0  0  0  0  0
    0.7905   -0.9799    0.0000 H   0  0  0  0  0  0  0  0  0  0  0  0
   -0.7475    1.6841    0.0000 H   0  0  0  0  0  0  0  0  0  0  0  0
   -1.1178    1.0428    0.0000 H   0  0  0  0  0  0  0  0  0  0  0  0
    0.7905    2.1446    0.0000 H   0  0  0  0  0  0  0  0  0  0  0  0
    0.0500    2.1446    0.0000 H   0  0  0  0  0  0  0  0  0  0  0  0
  1  2  2  0  0  0  0
  2  3  1  0  0  0  0
  3  4  1  0  0  0  0
  4  5  1  0  0  0  0
  5  6  1  0  0  0  0
  6  7  1  0  0  0  0
  7  8  1  0  0  0  0
  3  8  1  0  0  0  0
  2  9  1  0  0  0  0
  4 10  1  0  0  0  0
  4 11  1  0  0  0  0
  5 12  1  0  0  0  0
  5 13  1  0  0  0  0
  7 14  1  0  0  0  0
  7 15  1  0  0  0  0
  8 16  1  0  0  0  0
  8 17  1  0  0  0  0
M  END
>  <InChIKey>
LCEDQNDDFOCWGG-UHFFFAOYSA-N

>  <UN GHS>
2B

>  <CASRN>
4394-85-8

> <Outcome>
1

>  <Index>
422

>  <StandardizerResult>
Clear Stereo (ID: ClearStereo)
Wedge Clean (ID: WedgeClean)
Mesomerize (ID: Mesomerize)
Tautomerize (ID: Tautomerize)
Add Explicit Hydrogens (ID: AddExplicitH)
Neutralize (ID: Neutralize)
Clean 2D (ID: Clean2D)

> <knn Distance>


> <CpId>
422

$$$$
428
  Mrv1532301301811342D          

  7  6  0  0  0  0            999 V2000
    1.2375   -0.7145    0.0000 C   0  0  0  0  0  0  0  0  0  0  0  0
    0.8250   -0.0000    0.0000 N   0  0  0  0  0  0  0  0  0  0  0  0
   -0.0000   -0.0000    0.0000 C   0  0  0  0  0  0  0  0  0  0  0  0
   -0.8250   -0.0000    0.0000 S   0  0  0  0  0  0  0  0  0  0  0  0
    0.5230   -1.1270    0.0000 H   0  0  0  0  0  0  0  0  0  0  0  0
    1.6500   -1.4290    0.0000 H   0  0  0  0  0  0  0  0  0  0  0  0
    1.9520   -0.3020    0.0000 H   0  0  0  0  0  0  0  0  0  0  0  0
  1  2  1  0  0  0  0
  2  3  2  0  0  0  0
  3  4  2  0  0  0  0
  1  5  1  0  0  0  0
  1  6  1  0  0  0  0
  1  7  1  0  0  0  0
M  END
>  <InChIKey>
LGDSHSYDSCRFAB-UHFFFAOYSA-N

>  <UN GHS>
1

>  <CASRN>
556-61-6

> <Outcome>
1

>  <Index>
428

>  <StandardizerResult>
Clear Stereo (ID: ClearStereo)
Wedge Clean (ID: WedgeClean)
Mesomerize (ID: Mesomerize)
Tautomerize (ID: Tautomerize)
Add Explicit Hydrogens (ID: AddExplicitH)
Neutralize (ID: Neutralize)
Clean 2D (ID: Clean2D)

> <knn Distance>


> <CpId>
428

$$$$
430
  Mrv1532301301811342D          

 17 17  0  0  0  0            999 V2000
    0.0048    2.4633    0.0000 C   0  0  0  0  0  0  0  0  0  0  0  0
    0.7193    2.0508    0.0000 O   0  0  0  0  0  0  0  0  0  0  0  0
    0.7193    1.2258    0.0000 C   0  0  0  0  0  0  0  0  0  0  0  0
    1.4338    0.8133    0.0000 C   0  0  0  0  0  0  0  0  0  0  0  0
    1.4338   -0.0117    0.0000 C   0  0  0  0  0  0  0  0  0  0  0  0
    0.7193   -0.4242    0.0000 C   0  0  0  0  0  0  0  0  0  0  0  0
    0.0048   -0.0117    0.0000 C   0  0  0  0  0  0  0  0  0  0  0  0
    0.0048    0.8133    0.0000 C   0  0  0  0  0  0  0  0  0  0  0  0
   -0.7096    1.2258    0.0000 O   0  0  0  0  0  0  0  0  0  0  0  0
    0.4173    3.1778    0.0000 H   0  0  0  0  0  0  0  0  0  0  0  0
   -0.7096    2.8758    0.0000 H   0  0  0  0  0  0  0  0  0  0  0  0
   -0.4077    1.7488    0.0000 H   0  0  0  0  0  0  0  0  0  0  0  0
    2.1483    1.2258    0.0000 H   0  0  0  0  0  0  0  0  0  0  0  0
    2.1483   -0.4242    0.0000 H   0  0  0  0  0  0  0  0  0  0  0  0
    0.7193   -1.2492    0.0000 H   0  0  0  0  0  0  0  0  0  0  0  0
   -0.7096   -0.4242    0.0000 H   0  0  0  0  0  0  0  0  0  0  0  0
   -1.5065    1.0123    0.0000 H   0  0  0  0  0  0  0  0  0  0  0  0
  1  2  1  0  0  0  0
  2  3  1  0  0  0  0
  3  4  4  0  0  0  0
  4  5  4  0  0  0  0
  5  6  4  0  0  0  0
  6  7  4  0  0  0  0
  7  8  4  0  0  0  0
  3  8  4  0  0  0  0
  8  9  1  0  0  0  0
  1 10  1  0  0  0  0
  1 11  1  0  0  0  0
  1 12  1  0  0  0  0
  4 13  1  0  0  0  0
  5 14  1  0  0  0  0
  6 15  1  0  0  0  0
  7 16  1  0  0  0  0
  9 17  1  0  0  0  0
M  END
>  <InChIKey>
LHGVFZTZFXWLCP-UHFFFAOYSA-N

>  <UN GHS>
2B

>  <CASRN>
90-05-1

> <Outcome>
1

>  <Index>
430

>  <StandardizerResult>
Dearomatize (ID: Dearomatize)
Clear Stereo (ID: ClearStereo)
Wedge Clean (ID: WedgeClean)
Mesomerize (ID: Mesomerize)
Tautomerize (ID: Tautomerize)
Aromatize (ID: Aromatize)
Add Explicit Hydrogens (ID: AddExplicitH)
Neutralize (ID: Neutralize)
Clean 2D (ID: Clean2D)

> <knn Distance>


> <CpId>
430

$$$$
434
  Mrv1532301301811342D          

 16 16  0  0  0  0            999 V2000
    0.6550    2.0013    0.0000 C   0  0  0  0  0  0  0  0  0  0  0  0
    0.6550    1.1763    0.0000 C   0  0  0  0  0  0  0  0  0  0  0  0
    1.3225    0.6914    0.0000 C   0  0  0  0  0  0  0  0  0  0  0  0
    1.0675   -0.0932    0.0000 C   0  0  0  0  0  0  0  0  0  0  0  0
    0.2425   -0.0932    0.0000 O   0  0  0  0  0  0  0  0  0  0  0  0
   -0.0124    0.6914    0.0000 C   0  0  0  0  0  0  0  0  0  0  0  0
    1.4800    2.0013    0.0000 H   0  0  0  0  0  0  0  0  0  0  0  0
    0.6550    2.8263    0.0000 H   0  0  0  0  0  0  0  0  0  0  0  0
   -0.1700    2.0013    0.0000 H   0  0  0  0  0  0  0  0  0  0  0  0
   -0.0801    1.5508    0.0000 H   0  0  0  0  0  0  0  0  0  0  0  0
    2.1349    0.5481    0.0000 H   0  0  0  0  0  0  0  0  0  0  0  0
    1.8956    1.2848    0.0000 H   0  0  0  0  0  0  0  0  0  0  0  0
    1.1823   -0.9102    0.0000 H   0  0  0  0  0  0  0  0  0  0  0  0
    1.8090   -0.4549    0.0000 H   0  0  0  0  0  0  0  0  0  0  0  0
   -0.8242    0.8382    0.0000 H   0  0  0  0  0  0  0  0  0  0  0  0
   -0.7063    0.2451    0.0000 H   0  0  0  0  0  0  0  0  0  0  0  0
  1  2  1  0  0  0  0
  2  3  1  0  0  0  0
  3  4  1  0  0  0  0
  4  5  1  0  0  0  0
  5  6  1  0  0  0  0
  2  6  1  0  0  0  0
  1  7  1  0  0  0  0
  1  8  1  0  0  0  0
  1  9  1  0  0  0  0
  2 10  1  0  0  0  0
  3 11  1  0  0  0  0
  3 12  1  0  0  0  0
  4 13  1  0  0  0  0
  4 14  1  0  0  0  0
  6 15  1  0  0  0  0
  6 16  1  0  0  0  0
M  END
>  <InChIKey>
LJPCNSSTRWGCMZ-UHFFFAOYSA-N

>  <UN GHS>
1

>  <CASRN>
13423-15-9

> <Outcome>
1

>  <Index>
434

>  <StandardizerResult>
Clear Stereo (ID: ClearStereo)
Wedge Clean (ID: WedgeClean)
Mesomerize (ID: Mesomerize)
Tautomerize (ID: Tautomerize)
Add Explicit Hydrogens (ID: AddExplicitH)
Neutralize (ID: Neutralize)
Clean 2D (ID: Clean2D)

> <knn Distance>


> <CpId>
434

$$$$
435
  Mrv1532301301811342D          

 45 44  0  0  0  0            999 V2000
   11.7163    3.4545    0.0000 C   0  0  0  0  0  0  0  0  0  0  0  0
   11.7163    4.2795    0.0000 C   0  0  0  0  0  0  0  0  0  0  0  0
   11.0019    4.6920    0.0000 C   0  0  0  0  0  0  0  0  0  0  0  0
   10.2874    4.2795    0.0000 O   0  0  0  0  0  0  0  0  0  0  0  0
    9.5729    4.6920    0.0000 C   0  0  0  0  0  0  0  0  0  0  0  0
    9.5729    5.5170    0.0000 C   0  0  0  0  0  0  0  0  0  0  0  0
    8.8585    4.2795    0.0000 C   0  0  0  0  0  0  0  0  0  0  0  0
    8.1440    4.6920    0.0000 O   0  0  0  0  0  0  0  0  0  0  0  0
    7.4295    4.2795    0.0000 C   0  0  0  0  0  0  0  0  0  0  0  0
    7.4295    3.4545    0.0000 O   0  0  0  0  0  0  0  0  0  0  0  0
    6.7151    4.6920    0.0000 C   0  0  0  0  0  0  0  0  0  0  0  0
    6.0006    4.2795    0.0000 C   0  0  0  0  0  0  0  0  0  0  0  0
   12.4308    4.6920    0.0000 O   0  0  0  0  0  0  0  0  0  0  0  0
   13.1453    4.2795    0.0000 C   0  0  0  0  0  0  0  0  0  0  0  0
   13.8598    4.6920    0.0000 C   0  0  0  0  0  0  0  0  0  0  0  0
   13.8598    5.5170    0.0000 C   0  0  0  0  0  0  0  0  0  0  0  0
   14.5742    4.2795    0.0000 O   0  0  0  0  0  0  0  0  0  0  0  0
   15.2887    4.6920    0.0000 C   0  0  0  0  0  0  0  0  0  0  0  0
   15.2887    5.5170    0.0000 O   0  0  0  0  0  0  0  0  0  0  0  0
   16.0032    4.2795    0.0000 C   0  0  0  0  0  0  0  0  0  0  0  0
   16.7176    4.6920    0.0000 C   0  0  0  0  0  0  0  0  0  0  0  0
   10.8913    3.4545    0.0000 H   0  0  0  0  0  0  0  0  0  0  0  0
   11.7163    2.6295    0.0000 H   0  0  0  0  0  0  0  0  0  0  0  0
   12.5413    3.4545    0.0000 H   0  0  0  0  0  0  0  0  0  0  0  0
   11.0019    3.8670    0.0000 H   0  0  0  0  0  0  0  0  0  0  0  0
   11.3721    5.4292    0.0000 H   0  0  0  0  0  0  0  0  0  0  0  0
   10.6316    5.4292    0.0000 H   0  0  0  0  0  0  0  0  0  0  0  0
   10.2874    5.1045    0.0000 H   0  0  0  0  0  0  0  0  0  0  0  0
   10.1563    6.1003    0.0000 H   0  0  0  0  0  0  0  0  0  0  0  0
    9.1604    6.2314    0.0000 H   0  0  0  0  0  0  0  0  0  0  0  0
    8.7760    5.3034    0.0000 H   0  0  0  0  0  0  0  0  0  0  0  0
    8.4882    3.5422    0.0000 H   0  0  0  0  0  0  0  0  0  0  0  0
    9.2287    3.5422    0.0000 H   0  0  0  0  0  0  0  0  0  0  0  0
    6.7151    5.5170    0.0000 H   0  0  0  0  0  0  0  0  0  0  0  0
    5.2861    4.6920    0.0000 H   0  0  0  0  0  0  0  0  0  0  0  0
    6.0006    3.4545    0.0000 H   0  0  0  0  0  0  0  0  0  0  0  0
   12.7750    3.5422    0.0000 H   0  0  0  0  0  0  0  0  0  0  0  0
   13.5155    3.5422    0.0000 H   0  0  0  0  0  0  0  0  0  0  0  0
   13.1453    5.1045    0.0000 H   0  0  0  0  0  0  0  0  0  0  0  0
   14.6567    5.3034    0.0000 H   0  0  0  0  0  0  0  0  0  0  0  0
   14.2723    6.2314    0.0000 H   0  0  0  0  0  0  0  0  0  0  0  0
   13.2764    6.1003    0.0000 H   0  0  0  0  0  0  0  0  0  0  0  0
   16.0032    3.4545    0.0000 H   0  0  0  0  0  0  0  0  0  0  0  0
   17.4321    4.2795    0.0000 H   0  0  0  0  0  0  0  0  0  0  0  0
   16.7176    5.5170    0.0000 H   0  0  0  0  0  0  0  0  0  0  0  0
  1  2  1  0  0  0  0
  2  3  1  0  0  0  0
  3  4  1  0  0  0  0
  4  5  1  0  0  0  0
  5  6  1  0  0  0  0
  5  7  1  0  0  0  0
  7  8  1  0  0  0  0
  8  9  1  0  0  0  0
  9 10  2  0  0  0  0
  9 11  1  0  0  0  0
 11 12  2  0  0  0  0
  2 13  1  0  0  0  0
 13 14  1  0  0  0  0
 14 15  1  0  0  0  0
 15 16  1  0  0  0  0
 15 17  1  0  0  0  0
 17 18  1  0  0  0  0
 18 19  2  0  0  0  0
 18 20  1  0  0  0  0
 20 21  2  0  0  0  0
  1 22  1  0  0  0  0
  1 23  1  0  0  0  0
  1 24  1  0  0  0  0
  2 25  1  0  0  0  0
  3 26  1  0  0  0  0
  3 27  1  0  0  0  0
  5 28  1  0  0  0  0
  6 29  1  0  0  0  0
  6 30  1  0  0  0  0
  6 31  1  0  0  0  0
  7 32  1  0  0  0  0
  7 33  1  0  0  0  0
 11 34  1  0  0  0  0
 12 35  1  0  0  0  0
 12 36  1  0  0  0  0
 14 37  1  0  0  0  0
 14 38  1  0  0  0  0
 15 39  1  0  0  0  0
 16 40  1  0  0  0  0
 16 41  1  0  0  0  0
 16 42  1  0  0  0  0
 20 43  1  0  0  0  0
 21 44  1  0  0  0  0
 21 45  1  0  0  0  0
M  END
>  <InChIKey>
LJRSZGKUUZPHEB-UHFFFAOYSA-N

>  <UN GHS>
2A

>  <CASRN>
42978-66-5

> <Outcome>
1

>  <Index>
435

>  <StandardizerResult>
Clear Stereo (ID: ClearStereo)
Wedge Clean (ID: WedgeClean)
Mesomerize (ID: Mesomerize)
Tautomerize (ID: Tautomerize)
Add Explicit Hydrogens (ID: AddExplicitH)
Neutralize (ID: Neutralize)
Clean 2D (ID: Clean2D)

> <knn Distance>


> <CpId>
435

$$$$
440
  Mrv1532301301811342D          

 21 22  0  0  0  0            999 V2000
    0.7145   -2.8875    0.0000 O   0  0  0  0  0  0  0  0  0  0  0  0
    1.4289   -2.4750    0.0000 C   0  0  0  0  0  0  0  0  0  0  0  0
    2.1434   -2.8875    0.0000 O   0  0  0  0  0  0  0  0  0  0  0  0
    1.4289   -1.6500    0.0000 C   0  0  0  0  0  0  0  0  0  0  0  0
    0.7145   -1.2375    0.0000 C   0  0  0  0  0  0  0  0  0  0  0  0
    0.7145   -0.4125    0.0000 C   0  0  0  0  0  0  0  0  0  0  0  0
    1.4289   -0.0000    0.0000 C   0  0  0  0  0  0  0  0  0  0  0  0
    2.1434   -0.4125    0.0000 C   0  0  0  0  0  0  0  0  0  0  0  0
    2.8579   -0.0000    0.0000 C   0  0  0  0  0  0  0  0  0  0  0  0
    3.5724   -0.4125    0.0000 C   0  0  0  0  0  0  0  0  0  0  0  0
    3.5724   -1.2375    0.0000 C   0  0  0  0  0  0  0  0  0  0  0  0
    2.8579   -1.6500    0.0000 C   0  0  0  0  0  0  0  0  0  0  0  0
    2.1434   -1.2375    0.0000 C   0  0  0  0  0  0  0  0  0  0  0  0
    0.0000   -2.4750    0.0000 H   0  0  0  0  0  0  0  0  0  0  0  0
    0.0000   -1.6500    0.0000 H   0  0  0  0  0  0  0  0  0  0  0  0
    0.0000   -0.0000    0.0000 H   0  0  0  0  0  0  0  0  0  0  0  0
    1.4289    0.8250    0.0000 H   0  0  0  0  0  0  0  0  0  0  0  0
    2.8579    0.8250    0.0000 H   0  0  0  0  0  0  0  0  0  0  0  0
    4.2868   -0.0000    0.0000 H   0  0  0  0  0  0  0  0  0  0  0  0
    4.2868   -1.6500    0.0000 H   0  0  0  0  0  0  0  0  0  0  0  0
    2.8579   -2.4750    0.0000 H   0  0  0  0  0  0  0  0  0  0  0  0
  1  2  1  0  0  0  0
  2  3  2  0  0  0  0
  2  4  1  0  0  0  0
  4  5  4  0  0  0  0
  5  6  4  0  0  0  0
  6  7  4  0  0  0  0
  7  8  4  0  0  0  0
  8  9  4  0  0  0  0
  9 10  4  0  0  0  0
 10 11  4  0  0  0  0
 11 12  4  0  0  0  0
 12 13  4  0  0  0  0
  4 13  4  0  0  0  0
  8 13  4  0  0  0  0
  1 14  1  0  0  0  0
  5 15  1  0  0  0  0
  6 16  1  0  0  0  0
  7 17  1  0  0  0  0
  9 18  1  0  0  0  0
 10 19  1  0  0  0  0
 11 20  1  0  0  0  0
 12 21  1  0  0  0  0
M  END
>  <InChIKey>
LNETULKMXZVUST-UHFFFAOYSA-N

>  <UN GHS>
2A

>  <CASRN>
66072-08-0

> <Outcome>
1

>  <Index>
440

>  <StandardizerResult>
Dearomatize (ID: Dearomatize)
Clear Stereo (ID: ClearStereo)
Wedge Clean (ID: WedgeClean)
Mesomerize (ID: Mesomerize)
Tautomerize (ID: Tautomerize)
Aromatize (ID: Aromatize)
Add Explicit Hydrogens (ID: AddExplicitH)
Neutralize (ID: Neutralize)
Clean 2D (ID: Clean2D)

> <knn Distance>


> <CpId>
440

$$$$
443
  Mrv1532301301811342D          

 22 23  0  0  0  0            999 V2000
    1.8644    0.6563    0.0000 C   0  0  0  0  0  0  0  0  0  0  0  0
    1.9506   -0.1641    0.0000 C   0  0  0  0  0  0  0  0  0  0  0  0
    2.6651    0.2484    0.0000 C   0  0  0  0  0  0  0  0  0  0  0  0
    3.3796   -0.1641    0.0000 C   0  0  0  0  0  0  0  0  0  0  0  0
    3.3796   -0.9891    0.0000 C   0  0  0  0  0  0  0  0  0  0  0  0
    2.6651   -1.4016    0.0000 C   0  0  0  0  0  0  0  0  0  0  0  0
    1.9506   -0.9891    0.0000 C   0  0  0  0  0  0  0  0  0  0  0  0
    1.1660   -1.2441    0.0000 C   0  0  0  0  0  0  0  0  0  0  0  0
    0.9110   -2.0287    0.0000 O   0  0  0  0  0  0  0  0  0  0  0  0
    0.6811   -0.5766    0.0000 O   0  0  0  0  0  0  0  0  0  0  0  0
    1.1660    0.0908    0.0000 C   0  0  0  0  0  0  0  0  0  0  0  0
    0.9110    0.8754    0.0000 O   0  0  0  0  0  0  0  0  0  0  0  0
    2.5443    1.1236    0.0000 H   0  0  0  0  0  0  0  0  0  0  0  0
    1.7781    1.4768    0.0000 H   0  0  0  0  0  0  0  0  0  0  0  0
    1.1022    0.9721    0.0000 H   0  0  0  0  0  0  0  0  0  0  0  0
    3.3496    0.7088    0.0000 H   0  0  0  0  0  0  0  0  0  0  0  0
    2.6651   -0.5766    0.0000 H   0  0  0  0  0  0  0  0  0  0  0  0
    4.1585   -0.4359    0.0000 H   0  0  0  0  0  0  0  0  0  0  0  0
    4.1487    0.1342    0.0000 H   0  0  0  0  0  0  0  0  0  0  0  0
    3.5524   -1.7958    0.0000 H   0  0  0  0  0  0  0  0  0  0  0  0
    4.0409   -1.4823    0.0000 H   0  0  0  0  0  0  0  0  0  0  0  0
    2.6651   -2.2266    0.0000 H   0  0  0  0  0  0  0  0  0  0  0  0
  1  2  1  0  0  0  0
  2  3  1  0  0  0  0
  3  4  1  0  0  0  0
  4  5  1  0  0  0  0
  5  6  1  0  0  0  0
  6  7  2  0  0  0  0
  2  7  1  0  0  0  0
  7  8  1  0  0  0  0
  8  9  2  0  0  0  0
  8 10  1  0  0  0  0
 10 11  1  0  0  0  0
  2 11  1  0  0  0  0
 11 12  2  0  0  0  0
  1 13  1  0  0  0  0
  1 14  1  0  0  0  0
  1 15  1  0  0  0  0
  3 16  1  0  0  0  0
  3 17  1  0  0  0  0
  4 18  1  0  0  0  0
  4 19  1  0  0  0  0
  5 20  1  0  0  0  0
  5 21  1  0  0  0  0
  6 22  1  0  0  0  0
M  END
>  <InChIKey>
LOYDTBZMMPQJNI-UHFFFAOYSA-N

>  <UN GHS>
1

>  <CASRN>
11070-44-3

> <Outcome>
1

>  <Index>
443

>  <StandardizerResult>
Clear Stereo (ID: ClearStereo)
Wedge Clean (ID: WedgeClean)
Mesomerize (ID: Mesomerize)
Tautomerize (ID: Tautomerize)
Add Explicit Hydrogens (ID: AddExplicitH)
Neutralize (ID: Neutralize)
Clean 2D (ID: Clean2D)

> <knn Distance>


> <CpId>
443

$$$$
449
  Mrv1532301301811342D          

 15 14  0  0  0  0            999 V2000
    2.4744   -1.4300    0.0000 C   0  0  0  0  0  0  0  0  0  0  0  0
    2.0619   -0.7155    0.0000 C   0  0  0  0  0  0  0  0  0  0  0  0
    1.2369   -0.7155    0.0000 C   0  0  0  0  0  0  0  0  0  0  0  0
    0.8244   -0.0010    0.0000 C   0  0  0  0  0  0  0  0  0  0  0  0
   -0.0006   -0.0010    0.0000 O   0  0  0  0  0  0  0  0  0  0  0  0
    1.7599   -1.8425    0.0000 H   0  0  0  0  0  0  0  0  0  0  0  0
    2.8869   -2.1444    0.0000 H   0  0  0  0  0  0  0  0  0  0  0  0
    3.1889   -1.0175    0.0000 H   0  0  0  0  0  0  0  0  0  0  0  0
    2.7512   -0.2621    0.0000 H   0  0  0  0  0  0  0  0  0  0  0  0
    2.1099    0.1081    0.0000 H   0  0  0  0  0  0  0  0  0  0  0  0
    0.5476   -1.1688    0.0000 H   0  0  0  0  0  0  0  0  0  0  0  0
    1.1889   -1.5391    0.0000 H   0  0  0  0  0  0  0  0  0  0  0  0
    1.5137    0.4523    0.0000 H   0  0  0  0  0  0  0  0  0  0  0  0
    0.8724    0.8226    0.0000 H   0  0  0  0  0  0  0  0  0  0  0  0
   -0.4131    0.7135    0.0000 H   0  0  0  0  0  0  0  0  0  0  0  0
  1  2  1  0  0  0  0
  2  3  1  0  0  0  0
  3  4  1  0  0  0  0
  4  5  1  0  0  0  0
  1  6  1  0  0  0  0
  1  7  1  0  0  0  0
  1  8  1  0  0  0  0
  2  9  1  0  0  0  0
  2 10  1  0  0  0  0
  3 11  1  0  0  0  0
  3 12  1  0  0  0  0
  4 13  1  0  0  0  0
  4 14  1  0  0  0  0
  5 15  1  0  0  0  0
M  END
>  <InChIKey>
LRHPLDYGYMQRHN-UHFFFAOYSA-N

>  <UN GHS>
1

>  <CASRN>
71-36-3

> <Outcome>
1

>  <Index>
449

>  <StandardizerResult>
Clear Stereo (ID: ClearStereo)
Wedge Clean (ID: WedgeClean)
Mesomerize (ID: Mesomerize)
Tautomerize (ID: Tautomerize)
Add Explicit Hydrogens (ID: AddExplicitH)
Neutralize (ID: Neutralize)
Clean 2D (ID: Clean2D)

> <knn Distance>


> <CpId>
449

$$$$
450
  Mrv1532301301811342D          

 22 22  0  0  0  0            999 V2000
   -1.2425    2.6824    0.0000 C   0  0  0  0  0  0  0  0  0  0  0  0
   -0.5280    2.2699    0.0000 N   0  3  0  0  0  0  0  0  0  0  0  0
   -0.9405    1.5554    0.0000 C   0  0  0  0  0  0  0  0  0  0  0  0
   -0.1155    2.9844    0.0000 C   0  0  0  0  0  0  0  0  0  0  0  0
    0.1864    1.8574    0.0000 C   0  0  0  0  0  0  0  0  0  0  0  0
    0.1864    1.0324    0.0000 C   0  0  0  0  0  0  0  0  0  0  0  0
    0.5989    0.3179    0.0000 C   0  0  0  0  0  0  0  0  0  0  0  0
   -0.2261    0.3179    0.0000 O   0  0  0  0  0  0  0  0  0  0  0  0
   -0.8300    3.3969    0.0000 H   0  0  0  0  0  0  0  0  0  0  0  0
   -1.9570    3.0949    0.0000 H   0  0  0  0  0  0  0  0  0  0  0  0
   -1.6550    1.9679    0.0000 H   0  0  0  0  0  0  0  0  0  0  0  0
   -1.5951    1.0532    0.0000 H   0  0  0  0  0  0  0  0  0  0  0  0
   -0.7270    0.7585    0.0000 H   0  0  0  0  0  0  0  0  0  0  0  0
   -0.1226    1.4477    0.0000 H   0  0  0  0  0  0  0  0  0  0  0  0
    0.3867    2.3299    0.0000 H   0  0  0  0  0  0  0  0  0  0  0  0
    0.6813    3.1979    0.0000 H   0  0  0  0  0  0  0  0  0  0  0  0
   -0.0079    3.8023    0.0000 H   0  0  0  0  0  0  0  0  0  0  0  0
    0.8396    1.3534    0.0000 H   0  0  0  0  0  0  0  0  0  0  0  0
    0.9845    2.0666    0.0000 H   0  0  0  0  0  0  0  0  0  0  0  0
    0.9757    0.7924    0.0000 H   0  0  0  0  0  0  0  0  0  0  0  0
    0.5996   -0.5071    0.0000 H   0  0  0  0  0  0  0  0  0  0  0  0
    1.2446   -0.1957    0.0000 H   0  0  0  0  0  0  0  0  0  0  0  0
  1  2  1  0  0  0  0
  2  3  1  0  0  0  0
  2  4  1  0  0  0  0
  2  5  1  0  0  0  0
  5  6  1  0  0  0  0
  6  7  1  0  0  0  0
  7  8  1  0  0  0  0
  6  8  1  0  0  0  0
  1  9  1  0  0  0  0
  1 10  1  0  0  0  0
  1 11  1  0  0  0  0
  3 12  1  0  0  0  0
  3 13  1  0  0  0  0
  3 14  1  0  0  0  0
  4 15  1  0  0  0  0
  4 16  1  0  0  0  0
  4 17  1  0  0  0  0
  5 18  1  0  0  0  0
  5 19  1  0  0  0  0
  6 20  1  0  0  0  0
  7 21  1  0  0  0  0
  7 22  1  0  0  0  0
M  CHG  1   2   1
M  END
>  <InChIKey>
LRQFRDLKOBFOSG-UHFFFAOYSA-N

>  <UN GHS>
1

>  <CASRN>
3033-77-0

> <Outcome>
1

>  <Index>
450

>  <StandardizerResult>
Clear Stereo (ID: ClearStereo)
Wedge Clean (ID: WedgeClean)
Mesomerize (ID: Mesomerize)
Tautomerize (ID: Tautomerize)
Add Explicit Hydrogens (ID: AddExplicitH)
Clean 2D (ID: Clean2D)

> <knn Distance>


> <CpId>
450

$$$$
451
  Mrv1532301301811342D          

 25 24  0  0  0  0            999 V2000
    1.7140    1.8683    0.0000 C   0  0  0  0  0  0  0  0  0  0  0  0
    2.4285    1.4558    0.0000 C   0  0  0  0  0  0  0  0  0  0  0  0
    2.4285    0.6308    0.0000 C   0  0  0  0  0  0  0  0  0  0  0  0
    3.1429    1.8683    0.0000 C   0  0  0  0  0  0  0  0  0  0  0  0
    3.1429    2.6933    0.0000 O   0  0  0  0  0  0  0  0  0  0  0  0
    3.8574    1.4558    0.0000 O   0  0  0  0  0  0  0  0  0  0  0  0
    4.5719    1.8683    0.0000 C   0  0  0  0  0  0  0  0  0  0  0  0
    4.5719    2.6933    0.0000 O   0  0  0  0  0  0  0  0  0  0  0  0
    5.2863    1.4558    0.0000 C   0  0  0  0  0  0  0  0  0  0  0  0
    6.0008    1.8683    0.0000 C   0  0  0  0  0  0  0  0  0  0  0  0
    5.2863    0.6308    0.0000 C   0  0  0  0  0  0  0  0  0  0  0  0
    2.1265    2.5827    0.0000 H   0  0  0  0  0  0  0  0  0  0  0  0
    0.9995    2.2808    0.0000 H   0  0  0  0  0  0  0  0  0  0  0  0
    1.3015    1.1538    0.0000 H   0  0  0  0  0  0  0  0  0  0  0  0
    1.7140    1.0433    0.0000 H   0  0  0  0  0  0  0  0  0  0  0  0
    1.8451    0.0474    0.0000 H   0  0  0  0  0  0  0  0  0  0  0  0
    2.8410   -0.0837    0.0000 H   0  0  0  0  0  0  0  0  0  0  0  0
    3.2254    0.8443    0.0000 H   0  0  0  0  0  0  0  0  0  0  0  0
    5.2863    2.2808    0.0000 H   0  0  0  0  0  0  0  0  0  0  0  0
    6.2143    1.0714    0.0000 H   0  0  0  0  0  0  0  0  0  0  0  0
    6.8258    1.8683    0.0000 H   0  0  0  0  0  0  0  0  0  0  0  0
    6.2143    2.6652    0.0000 H   0  0  0  0  0  0  0  0  0  0  0  0
    4.4613    0.6308    0.0000 H   0  0  0  0  0  0  0  0  0  0  0  0
    5.2863   -0.1942    0.0000 H   0  0  0  0  0  0  0  0  0  0  0  0
    6.1113    0.6308    0.0000 H   0  0  0  0  0  0  0  0  0  0  0  0
  1  2  1  0  0  0  0
  2  3  1  0  0  0  0
  2  4  1  0  0  0  0
  4  5  2  0  0  0  0
  4  6  1  0  0  0  0
  6  7  1  0  0  0  0
  7  8  2  0  0  0  0
  7  9  1  0  0  0  0
  9 10  1  0  0  0  0
  9 11  1  0  0  0  0
  1 12  1  0  0  0  0
  1 13  1  0  0  0  0
  1 14  1  0  0  0  0
  2 15  1  0  0  0  0
  3 16  1  0  0  0  0
  3 17  1  0  0  0  0
  3 18  1  0  0  0  0
  9 19  1  0  0  0  0
 10 20  1  0  0  0  0
 10 21  1  0  0  0  0
 10 22  1  0  0  0  0
 11 23  1  0  0  0  0
 11 24  1  0  0  0  0
 11 25  1  0  0  0  0
M  END
>  <InChIKey>
LSACYLWPPQLVSM-UHFFFAOYSA-N

>  <UN GHS>
2A

>  <CASRN>
97-72-3

> <Outcome>
1

>  <Index>
451

>  <StandardizerResult>
Clear Stereo (ID: ClearStereo)
Wedge Clean (ID: WedgeClean)
Mesomerize (ID: Mesomerize)
Tautomerize (ID: Tautomerize)
Add Explicit Hydrogens (ID: AddExplicitH)
Neutralize (ID: Neutralize)
Clean 2D (ID: Clean2D)

> <knn Distance>


> <CpId>
451

$$$$
454
  Mrv1532301301811342D          

 22 23  0  0  0  0            999 V2000
    0.0000   -2.4750    0.0000 C   0  0  0  0  0  0  0  0  0  0  0  0
    0.0000   -1.6500    0.0000 O   0  0  0  0  0  0  0  0  0  0  0  0
    0.7145   -1.2375    0.0000 C   0  0  0  0  0  0  0  0  0  0  0  0
    0.7145   -0.4125    0.0000 C   0  0  0  0  0  0  0  0  0  0  0  0
    1.4289   -0.0000    0.0000 C   0  0  0  0  0  0  0  0  0  0  0  0
    2.1434   -0.4125    0.0000 C   0  0  0  0  0  0  0  0  0  0  0  0
    2.8579   -0.0000    0.0000 C   0  0  0  0  0  0  0  0  0  0  0  0
    3.5724   -0.4125    0.0000 C   0  0  0  0  0  0  0  0  0  0  0  0
    3.5724   -1.2375    0.0000 C   0  0  0  0  0  0  0  0  0  0  0  0
    2.8579   -1.6500    0.0000 C   0  0  0  0  0  0  0  0  0  0  0  0
    2.1434   -1.2375    0.0000 C   0  0  0  0  0  0  0  0  0  0  0  0
    1.4289   -1.6500    0.0000 C   0  0  0  0  0  0  0  0  0  0  0  0
   -0.8250   -2.4750    0.0000 H   0  0  0  0  0  0  0  0  0  0  0  0
    0.0000   -3.3000    0.0000 H   0  0  0  0  0  0  0  0  0  0  0  0
    0.8250   -2.4750    0.0000 H   0  0  0  0  0  0  0  0  0  0  0  0
    0.0000   -0.0000    0.0000 H   0  0  0  0  0  0  0  0  0  0  0  0
    1.4289    0.8250    0.0000 H   0  0  0  0  0  0  0  0  0  0  0  0
    2.8579    0.8250    0.0000 H   0  0  0  0  0  0  0  0  0  0  0  0
    4.2868   -0.0000    0.0000 H   0  0  0  0  0  0  0  0  0  0  0  0
    4.2868   -1.6500    0.0000 H   0  0  0  0  0  0  0  0  0  0  0  0
    2.8579   -2.4750    0.0000 H   0  0  0  0  0  0  0  0  0  0  0  0
    1.4289   -2.4750    0.0000 H   0  0  0  0  0  0  0  0  0  0  0  0
  1  2  1  0  0  0  0
  2  3  1  0  0  0  0
  3  4  4  0  0  0  0
  4  5  4  0  0  0  0
  5  6  4  0  0  0  0
  6  7  4  0  0  0  0
  7  8  4  0  0  0  0
  8  9  4  0  0  0  0
  9 10  4  0  0  0  0
 10 11  4  0  0  0  0
  6 11  4  0  0  0  0
 11 12  4  0  0  0  0
  3 12  4  0  0  0  0
  1 13  1  0  0  0  0
  1 14  1  0  0  0  0
  1 15  1  0  0  0  0
  4 16  1  0  0  0  0
  5 17  1  0  0  0  0
  7 18  1  0  0  0  0
  8 19  1  0  0  0  0
  9 20  1  0  0  0  0
 10 21  1  0  0  0  0
 12 22  1  0  0  0  0
M  END
>  <InChIKey>
LUZDYPLAQQGJEA-UHFFFAOYSA-N

>  <UN GHS>
2A

>  <CASRN>
93-04-9

> <Outcome>
1

>  <Index>
454

>  <StandardizerResult>
Dearomatize (ID: Dearomatize)
Clear Stereo (ID: ClearStereo)
Wedge Clean (ID: WedgeClean)
Mesomerize (ID: Mesomerize)
Tautomerize (ID: Tautomerize)
Aromatize (ID: Aromatize)
Add Explicit Hydrogens (ID: AddExplicitH)
Neutralize (ID: Neutralize)
Clean 2D (ID: Clean2D)

> <knn Distance>


> <CpId>
454

$$$$
456
  Mrv1532301301811342D          

 24 23  0  0  0  0            999 V2000
    1.6912    1.8697    0.0000 C   0  0  0  0  0  0  0  0  0  0  0  0
    2.4056    1.4572    0.0000 C   0  0  0  0  0  0  0  0  0  0  0  0
    2.4056    0.6322    0.0000 O   0  0  0  0  0  0  0  0  0  0  0  0
    3.1201    1.8697    0.0000 C   0  0  0  0  0  0  0  0  0  0  0  0
    3.8346    1.4572    0.0000 N   0  0  0  0  0  0  0  0  0  0  0  0
    4.5491    1.8697    0.0000 C   0  0  0  0  0  0  0  0  0  0  0  0
    5.2635    1.4572    0.0000 C   0  0  0  0  0  0  0  0  0  0  0  0
    5.9780    1.8697    0.0000 C   0  0  0  0  0  0  0  0  0  0  0  0
    5.2635    0.6322    0.0000 O   0  0  0  0  0  0  0  0  0  0  0  0
    2.1037    2.5842    0.0000 H   0  0  0  0  0  0  0  0  0  0  0  0
    0.9767    2.2822    0.0000 H   0  0  0  0  0  0  0  0  0  0  0  0
    1.2787    1.1552    0.0000 H   0  0  0  0  0  0  0  0  0  0  0  0
    1.6912    1.0447    0.0000 H   0  0  0  0  0  0  0  0  0  0  0  0
    2.8181   -0.0823    0.0000 H   0  0  0  0  0  0  0  0  0  0  0  0
    3.4904    2.6069    0.0000 H   0  0  0  0  0  0  0  0  0  0  0  0
    2.7499    2.6069    0.0000 H   0  0  0  0  0  0  0  0  0  0  0  0
    3.8346    0.6322    0.0000 H   0  0  0  0  0  0  0  0  0  0  0  0
    4.9193    2.6069    0.0000 H   0  0  0  0  0  0  0  0  0  0  0  0
    4.1788    2.6069    0.0000 H   0  0  0  0  0  0  0  0  0  0  0  0
    5.2635    2.2822    0.0000 H   0  0  0  0  0  0  0  0  0  0  0  0
    6.1915    1.0728    0.0000 H   0  0  0  0  0  0  0  0  0  0  0  0
    6.8030    1.8697    0.0000 H   0  0  0  0  0  0  0  0  0  0  0  0
    6.1915    2.6666    0.0000 H   0  0  0  0  0  0  0  0  0  0  0  0
    4.5491    0.2197    0.0000 H   0  0  0  0  0  0  0  0  0  0  0  0
  1  2  1  0  0  0  0
  2  3  1  0  0  0  0
  2  4  1  0  0  0  0
  4  5  1  0  0  0  0
  5  6  1  0  0  0  0
  6  7  1  0  0  0  0
  7  8  1  0  0  0  0
  7  9  1  0  0  0  0
  1 10  1  0  0  0  0
  1 11  1  0  0  0  0
  1 12  1  0  0  0  0
  2 13  1  0  0  0  0
  3 14  1  0  0  0  0
  4 15  1  0  0  0  0
  4 16  1  0  0  0  0
  5 17  1  0  0  0  0
  6 18  1  0  0  0  0
  6 19  1  0  0  0  0
  7 20  1  0  0  0  0
  8 21  1  0  0  0  0
  8 22  1  0  0  0  0
  8 23  1  0  0  0  0
  9 24  1  0  0  0  0
M  END
>  <InChIKey>
LVTYICIALWPMFW-UHFFFAOYSA-N

>  <UN GHS>
2A

>  <CASRN>
110-97-4

> <Outcome>
1

>  <Index>
456

>  <StandardizerResult>
Clear Stereo (ID: ClearStereo)
Wedge Clean (ID: WedgeClean)
Mesomerize (ID: Mesomerize)
Tautomerize (ID: Tautomerize)
Add Explicit Hydrogens (ID: AddExplicitH)
Neutralize (ID: Neutralize)
Clean 2D (ID: Clean2D)

> <knn Distance>


> <CpId>
456

$$$$
457
  Mrv1532301301811342D          

 35 34  0  0  0  0            999 V2000
    5.4730    3.9844    0.0000 O   0  0  0  0  0  0  0  0  0  0  0  0
    6.1875    3.5719    0.0000 C   0  0  0  0  0  0  0  0  0  0  0  0
    6.1875    2.7469    0.0000 O   0  0  0  0  0  0  0  0  0  0  0  0
    6.9020    3.9844    0.0000 C   0  0  0  0  0  0  0  0  0  0  0  0
    7.6164    3.5719    0.0000 C   0  0  0  0  0  0  0  0  0  0  0  0
    8.3309    3.9844    0.0000 C   0  0  0  0  0  0  0  0  0  0  0  0
    9.0454    3.5719    0.0000 C   0  0  0  0  0  0  0  0  0  0  0  0
    9.7599    3.9844    0.0000 C   0  0  0  0  0  0  0  0  0  0  0  0
   10.4743    3.5719    0.0000 C   0  0  0  0  0  0  0  0  0  0  0  0
   11.1888    3.9844    0.0000 C   0  0  0  0  0  0  0  0  0  0  0  0
   11.9033    3.5719    0.0000 C   0  0  0  0  0  0  0  0  0  0  0  0
   12.6177    3.9844    0.0000 C   0  0  0  0  0  0  0  0  0  0  0  0
   13.3322    3.5719    0.0000 C   0  0  0  0  0  0  0  0  0  0  0  0
   14.0467    3.9844    0.0000 O   0  0  0  0  0  0  0  0  0  0  0  0
   13.3322    2.7469    0.0000 O   0  0  0  0  0  0  0  0  0  0  0  0
    5.4730    4.8094    0.0000 H   0  0  0  0  0  0  0  0  0  0  0  0
    7.2722    4.7216    0.0000 H   0  0  0  0  0  0  0  0  0  0  0  0
    6.5317    4.7216    0.0000 H   0  0  0  0  0  0  0  0  0  0  0  0
    7.2462    2.8346    0.0000 H   0  0  0  0  0  0  0  0  0  0  0  0
    7.9867    2.8346    0.0000 H   0  0  0  0  0  0  0  0  0  0  0  0
    8.7012    4.7216    0.0000 H   0  0  0  0  0  0  0  0  0  0  0  0
    7.9607    4.7216    0.0000 H   0  0  0  0  0  0  0  0  0  0  0  0
    8.6751    2.8346    0.0000 H   0  0  0  0  0  0  0  0  0  0  0  0
    9.4156    2.8346    0.0000 H   0  0  0  0  0  0  0  0  0  0  0  0
   10.1301    4.7216    0.0000 H   0  0  0  0  0  0  0  0  0  0  0  0
    9.3896    4.7216    0.0000 H   0  0  0  0  0  0  0  0  0  0  0  0
   10.1041    2.8346    0.0000 H   0  0  0  0  0  0  0  0  0  0  0  0
   10.8446    2.8346    0.0000 H   0  0  0  0  0  0  0  0  0  0  0  0
   11.5591    4.7216    0.0000 H   0  0  0  0  0  0  0  0  0  0  0  0
   10.8185    4.7216    0.0000 H   0  0  0  0  0  0  0  0  0  0  0  0
   11.5330    2.8346    0.0000 H   0  0  0  0  0  0  0  0  0  0  0  0
   12.2735    2.8346    0.0000 H   0  0  0  0  0  0  0  0  0  0  0  0
   12.9880    4.7216    0.0000 H   0  0  0  0  0  0  0  0  0  0  0  0
   12.2475    4.7216    0.0000 H   0  0  0  0  0  0  0  0  0  0  0  0
   14.7612    3.5719    0.0000 H   0  0  0  0  0  0  0  0  0  0  0  0
  1  2  1  0  0  0  0
  2  3  2  0  0  0  0
  2  4  1  0  0  0  0
  4  5  1  0  0  0  0
  5  6  1  0  0  0  0
  6  7  1  0  0  0  0
  7  8  1  0  0  0  0
  8  9  1  0  0  0  0
  9 10  1  0  0  0  0
 10 11  1  0  0  0  0
 11 12  1  0  0  0  0
 12 13  1  0  0  0  0
 13 14  1  0  0  0  0
 13 15  2  0  0  0  0
  1 16  1  0  0  0  0
  4 17  1  0  0  0  0
  4 18  1  0  0  0  0
  5 19  1  0  0  0  0
  5 20  1  0  0  0  0
  6 21  1  0  0  0  0
  6 22  1  0  0  0  0
  7 23  1  0  0  0  0
  7 24  1  0  0  0  0
  8 25  1  0  0  0  0
  8 26  1  0  0  0  0
  9 27  1  0  0  0  0
  9 28  1  0  0  0  0
 10 29  1  0  0  0  0
 10 30  1  0  0  0  0
 11 31  1  0  0  0  0
 11 32  1  0  0  0  0
 12 33  1  0  0  0  0
 12 34  1  0  0  0  0
 14 35  1  0  0  0  0
M  END
>  <InChIKey>
LWBHHRRTOZQPDM-UHFFFAOYSA-N

>  <UN GHS>
2A

>  <CASRN>
1852-04-6

> <Outcome>
1

>  <Index>
457

>  <StandardizerResult>
Clear Stereo (ID: ClearStereo)
Wedge Clean (ID: WedgeClean)
Mesomerize (ID: Mesomerize)
Tautomerize (ID: Tautomerize)
Add Explicit Hydrogens (ID: AddExplicitH)
Neutralize (ID: Neutralize)
Clean 2D (ID: Clean2D)

> <knn Distance>


> <CpId>
457

$$$$
460
  Mrv1532301301811342D          

 12 12  0  0  0  0            999 V2000
    0.5678    1.9393    0.0000 C   0  0  0  0  0  0  0  0  0  0  0  0
    0.5678    1.1143    0.0000 C   0  0  0  0  0  0  0  0  0  0  0  0
    1.2352    0.6294    0.0000 N   0  0  0  0  0  0  0  0  0  0  0  0
    0.9803   -0.1553    0.0000 C   0  0  0  0  0  0  0  0  0  0  0  0
    0.1553   -0.1553    0.0000 C   0  0  0  0  0  0  0  0  0  0  0  0
   -0.0996    0.6294    0.0000 N   0  0  0  0  0  0  0  0  0  0  0  0
    1.3928    1.9393    0.0000 H   0  0  0  0  0  0  0  0  0  0  0  0
    0.5678    2.7643    0.0000 H   0  0  0  0  0  0  0  0  0  0  0  0
   -0.2572    1.9393    0.0000 H   0  0  0  0  0  0  0  0  0  0  0  0
    1.4652   -0.8227    0.0000 H   0  0  0  0  0  0  0  0  0  0  0  0
   -0.3296   -0.8227    0.0000 H   0  0  0  0  0  0  0  0  0  0  0  0
   -0.8843    0.8843    0.0000 H   0  0  0  0  0  0  0  0  0  0  0  0
  1  2  1  0  0  0  0
  2  3  4  0  0  0  0
  3  4  4  0  0  0  0
  4  5  4  0  0  0  0
  5  6  4  0  0  0  0
  2  6  4  0  0  0  0
  1  7  1  0  0  0  0
  1  8  1  0  0  0  0
  1  9  1  0  0  0  0
  4 10  1  0  0  0  0
  5 11  1  0  0  0  0
  6 12  1  0  0  0  0
M  END
>  <InChIKey>
LXBGSDVWAMZHDD-UHFFFAOYSA-N

>  <UN GHS>
1

>  <CASRN>
693-98-1

> <Outcome>
1

>  <Index>
460

>  <StandardizerResult>
Dearomatize (ID: Dearomatize)
Clear Stereo (ID: ClearStereo)
Wedge Clean (ID: WedgeClean)
Mesomerize (ID: Mesomerize)
Tautomerize (ID: Tautomerize)
Aromatize (ID: Aromatize)
Add Explicit Hydrogens (ID: AddExplicitH)
Neutralize (ID: Neutralize)
Clean 2D (ID: Clean2D)

> <knn Distance>


> <CpId>
460

$$$$
461
  Mrv1532301301811342D          

 51 52  0  0  0  0            999 V2000
   -1.7309    0.5230    0.0000 C   0  0  0  0  0  0  0  0  0  0  0  0
   -2.1434    1.2375    0.0000 C   0  0  0  0  0  0  0  0  0  0  0  0
   -2.5559    1.9520    0.0000 C   0  0  0  0  0  0  0  0  0  0  0  0
   -2.8579    0.8250    0.0000 C   0  0  0  0  0  0  0  0  0  0  0  0
   -2.8579   -0.0000    0.0000 C   0  0  0  0  0  0  0  0  0  0  0  0
   -3.5724   -0.4125    0.0000 C   0  0  0  0  0  0  0  0  0  0  0  0
   -3.5724   -1.2375    0.0000 Br  0  0  0  0  0  0  0  0  0  0  0  0
   -4.2868   -0.0000    0.0000 C   0  0  0  0  0  0  0  0  0  0  0  0
   -5.0013   -0.4125    0.0000 O   0  0  0  0  0  0  0  0  0  0  0  0
   -5.7158   -0.0000    0.0000 C   0  0  0  0  0  0  0  0  0  0  0  0
   -6.4302   -0.4125    0.0000 C   0  0  0  0  0  0  0  0  0  0  0  0
   -6.4302   -1.2375    0.0000 Br  0  0  0  0  0  0  0  0  0  0  0  0
   -7.1447   -0.0000    0.0000 C   0  0  0  0  0  0  0  0  0  0  0  0
   -7.8592   -0.4125    0.0000 Br  0  0  0  0  0  0  0  0  0  0  0  0
   -4.2868    0.8250    0.0000 C   0  0  0  0  0  0  0  0  0  0  0  0
   -5.0013    1.2375    0.0000 Br  0  0  0  0  0  0  0  0  0  0  0  0
   -3.5724    1.2375    0.0000 C   0  0  0  0  0  0  0  0  0  0  0  0
   -1.4289    1.6500    0.0000 C   0  0  0  0  0  0  0  0  0  0  0  0
   -1.4289    2.4750    0.0000 C   0  0  0  0  0  0  0  0  0  0  0  0
   -0.7145    2.8875    0.0000 C   0  0  0  0  0  0  0  0  0  0  0  0
   -0.7145    3.7125    0.0000 Br  0  0  0  0  0  0  0  0  0  0  0  0
   -0.0000    2.4750    0.0000 C   0  0  0  0  0  0  0  0  0  0  0  0
    0.7145    2.8875    0.0000 O   0  0  0  0  0  0  0  0  0  0  0  0
    1.4289    2.4750    0.0000 C   0  0  0  0  0  0  0  0  0  0  0  0
    2.1434    2.8875    0.0000 C   0  0  0  0  0  0  0  0  0  0  0  0
    2.1434    3.7125    0.0000 Br  0  0  0  0  0  0  0  0  0  0  0  0
    2.8579    2.4750    0.0000 C   0  0  0  0  0  0  0  0  0  0  0  0
    3.5724    2.8875    0.0000 Br  0  0  0  0  0  0  0  0  0  0  0  0
   -0.0000    1.6500    0.0000 C   0  0  0  0  0  0  0  0  0  0  0  0
    0.7145    1.2375    0.0000 Br  0  0  0  0  0  0  0  0  0  0  0  0
   -0.7145    1.2375    0.0000 C   0  0  0  0  0  0  0  0  0  0  0  0
   -2.4454    0.1105    0.0000 H   0  0  0  0  0  0  0  0  0  0  0  0
   -1.3184   -0.1914    0.0000 H   0  0  0  0  0  0  0  0  0  0  0  0
   -1.0164    0.9355    0.0000 H   0  0  0  0  0  0  0  0  0  0  0  0
   -1.8414    2.3645    0.0000 H   0  0  0  0  0  0  0  0  0  0  0  0
   -2.9684    2.6664    0.0000 H   0  0  0  0  0  0  0  0  0  0  0  0
   -3.2704    1.5395    0.0000 H   0  0  0  0  0  0  0  0  0  0  0  0
   -2.5422   -0.7622    0.0000 H   0  0  0  0  0  0  0  0  0  0  0  0
   -5.3455    0.7372    0.0000 H   0  0  0  0  0  0  0  0  0  0  0  0
   -6.0860    0.7372    0.0000 H   0  0  0  0  0  0  0  0  0  0  0  0
   -5.7158   -0.8250    0.0000 H   0  0  0  0  0  0  0  0  0  0  0  0
   -6.7745    0.7372    0.0000 H   0  0  0  0  0  0  0  0  0  0  0  0
   -7.5150    0.7372    0.0000 H   0  0  0  0  0  0  0  0  0  0  0  0
   -4.0746    1.8920    0.0000 H   0  0  0  0  0  0  0  0  0  0  0  0
   -1.7447    3.2372    0.0000 H   0  0  0  0  0  0  0  0  0  0  0  0
    1.0587    1.7378    0.0000 H   0  0  0  0  0  0  0  0  0  0  0  0
    1.7992    1.7378    0.0000 H   0  0  0  0  0  0  0  0  0  0  0  0
    1.4289    3.3000    0.0000 H   0  0  0  0  0  0  0  0  0  0  0  0
    2.4876    1.7378    0.0000 H   0  0  0  0  0  0  0  0  0  0  0  0
    3.2281    1.7378    0.0000 H   0  0  0  0  0  0  0  0  0  0  0  0
   -0.2122    0.5830    0.0000 H   0  0  0  0  0  0  0  0  0  0  0  0
  1  2  1  0  0  0  0
  2  3  1  0  0  0  0
  2  4  1  0  0  0  0
  4  5  4  0  0  0  0
  5  6  4  0  0  0  0
  6  7  1  0  0  0  0
  6  8  4  0  0  0  0
  8  9  1  0  0  0  0
  9 10  1  0  0  0  0
 10 11  1  0  0  0  0
 11 12  1  0  0  0  0
 11 13  1  0  0  0  0
 13 14  1  0  0  0  0
  8 15  4  0  0  0  0
 15 16  1  0  0  0  0
 15 17  4  0  0  0  0
  4 17  4  0  0  0  0
  2 18  1  0  0  0  0
 18 19  4  0  0  0  0
 19 20  4  0  0  0  0
 20 21  1  0  0  0  0
 20 22  4  0  0  0  0
 22 23  1  0  0  0  0
 23 24  1  0  0  0  0
 24 25  1  0  0  0  0
 25 26  1  0  0  0  0
 25 27  1  0  0  0  0
 27 28  1  0  0  0  0
 22 29  4  0  0  0  0
 29 30  1  0  0  0  0
 29 31  4  0  0  0  0
 18 31  4  0  0  0  0
  1 32  1  0  0  0  0
  1 33  1  0  0  0  0
  1 34  1  0  0  0  0
  3 35  1  0  0  0  0
  3 36  1  0  0  0  0
  3 37  1  0  0  0  0
  5 38  1  0  0  0  0
 10 39  1  0  0  0  0
 10 40  1  0  0  0  0
 11 41  1  0  0  0  0
 13 42  1  0  0  0  0
 13 43  1  0  0  0  0
 17 44  1  0  0  0  0
 19 45  1  0  0  0  0
 24 46  1  0  0  0  0
 24 47  1  0  0  0  0
 25 48  1  0  0  0  0
 27 49  1  0  0  0  0
 27 50  1  0  0  0  0
 31 51  1  0  0  0  0
M  END
>  <InChIKey>
LXIZRZRTWSDLKK-UHFFFAOYSA-N

>  <UN GHS>
2B

>  <CASRN>
21850-44-2

> <Outcome>
1

>  <Index>
461

>  <StandardizerResult>
Dearomatize (ID: Dearomatize)
Clear Stereo (ID: ClearStereo)
Wedge Clean (ID: WedgeClean)
Mesomerize (ID: Mesomerize)
Tautomerize (ID: Tautomerize)
Aromatize (ID: Aromatize)
Add Explicit Hydrogens (ID: AddExplicitH)
Neutralize (ID: Neutralize)
Clean 2D (ID: Clean2D)

> <knn Distance>


> <CpId>
461

$$$$
466
  Mrv1532301301811342D          

 12 12  0  0  0  0            999 V2000
    0.5677    1.9392    0.0000 C   0  0  0  0  0  0  0  0  0  0  0  0
    0.5677    1.1142    0.0000 N   0  0  0  0  0  0  0  0  0  0  0  0
    1.2352    0.6293    0.0000 C   0  0  0  0  0  0  0  0  0  0  0  0
    0.9802   -0.1553    0.0000 C   0  0  0  0  0  0  0  0  0  0  0  0
    0.1552   -0.1553    0.0000 N   0  0  0  0  0  0  0  0  0  0  0  0
   -0.0997    0.6293    0.0000 C   0  0  0  0  0  0  0  0  0  0  0  0
    1.3927    1.9392    0.0000 H   0  0  0  0  0  0  0  0  0  0  0  0
    0.5677    2.7642    0.0000 H   0  0  0  0  0  0  0  0  0  0  0  0
   -0.2573    1.9392    0.0000 H   0  0  0  0  0  0  0  0  0  0  0  0
    2.0198    0.8842    0.0000 H   0  0  0  0  0  0  0  0  0  0  0  0
    1.4652   -0.8228    0.0000 H   0  0  0  0  0  0  0  0  0  0  0  0
   -0.8843    0.8842    0.0000 H   0  0  0  0  0  0  0  0  0  0  0  0
  1  2  1  0  0  0  0
  2  3  4  0  0  0  0
  3  4  4  0  0  0  0
  4  5  4  0  0  0  0
  5  6  4  0  0  0  0
  2  6  4  0  0  0  0
  1  7  1  0  0  0  0
  1  8  1  0  0  0  0
  1  9  1  0  0  0  0
  3 10  1  0  0  0  0
  4 11  1  0  0  0  0
  6 12  1  0  0  0  0
M  END
>  <InChIKey>
MCTWTZJPVLRJOU-UHFFFAOYSA-N

>  <UN GHS>
1

>  <CASRN>
616-47-7

> <Outcome>
1

>  <Index>
466

>  <StandardizerResult>
Dearomatize (ID: Dearomatize)
Clear Stereo (ID: ClearStereo)
Wedge Clean (ID: WedgeClean)
Mesomerize (ID: Mesomerize)
Tautomerize (ID: Tautomerize)
Aromatize (ID: Aromatize)
Add Explicit Hydrogens (ID: AddExplicitH)
Neutralize (ID: Neutralize)
Clean 2D (ID: Clean2D)

> <knn Distance>


> <CpId>
466

$$$$
471
  Mrv1532301301811342D          

 34 34  0  0  0  0            999 V2000
    1.3972   -2.4789    0.0000 C   0  0  0  0  0  0  0  0  0  0  0  0
    1.3972   -3.3039    0.0000 C   0  0  0  0  0  0  0  0  0  0  0  0
    0.6828   -3.7164    0.0000 O   0  0  0  0  0  0  0  0  0  0  0  0
    2.1117   -3.7164    0.0000 O   0  0  0  0  0  0  0  0  0  0  0  0
    2.1117   -4.5414    0.0000 C   0  0  0  0  0  0  0  0  0  0  0  0
    2.8262   -4.9539    0.0000 C   0  0  0  0  0  0  0  0  0  0  0  0
    2.8262   -5.7789    0.0000 C   0  0  0  0  0  0  0  0  0  0  0  0
    3.5407   -6.1914    0.0000 O   0  0  0  0  0  0  0  0  0  0  0  0
    3.5407   -7.0164    0.0000 C   0  0  0  0  0  0  0  0  0  0  0  0
    4.2551   -7.4289    0.0000 C   0  0  0  0  0  0  0  0  0  0  0  0
    4.2551   -8.2539    0.0000 C   0  0  0  0  0  0  0  0  0  0  0  0
    3.5407   -8.6664    0.0000 C   0  0  0  0  0  0  0  0  0  0  0  0
    2.8262   -8.2539    0.0000 C   0  0  0  0  0  0  0  0  0  0  0  0
    2.8262   -7.4289    0.0000 C   0  0  0  0  0  0  0  0  0  0  0  0
    3.5407   -4.5414    0.0000 O   0  0  0  0  0  0  0  0  0  0  0  0
    3.5407   -3.7164    0.0000 C   0  0  0  0  0  0  0  0  0  0  0  0
    2.8262   -3.3039    0.0000 C   0  0  0  0  0  0  0  0  0  0  0  0
    4.2551   -3.3039    0.0000 O   0  0  0  0  0  0  0  0  0  0  0  0
    2.2222   -2.4789    0.0000 H   0  0  0  0  0  0  0  0  0  0  0  0
    1.3972   -1.6539    0.0000 H   0  0  0  0  0  0  0  0  0  0  0  0
    0.5722   -2.4789    0.0000 H   0  0  0  0  0  0  0  0  0  0  0  0
    1.2881   -4.5894    0.0000 H   0  0  0  0  0  0  0  0  0  0  0  0
    1.6584   -5.2307    0.0000 H   0  0  0  0  0  0  0  0  0  0  0  0
    2.1117   -5.3664    0.0000 H   0  0  0  0  0  0  0  0  0  0  0  0
    2.1942   -6.3092    0.0000 H   0  0  0  0  0  0  0  0  0  0  0  0
    2.6829   -6.5914    0.0000 H   0  0  0  0  0  0  0  0  0  0  0  0
    4.9696   -7.0164    0.0000 H   0  0  0  0  0  0  0  0  0  0  0  0
    4.9696   -8.6664    0.0000 H   0  0  0  0  0  0  0  0  0  0  0  0
    3.5407   -9.4914    0.0000 H   0  0  0  0  0  0  0  0  0  0  0  0
    2.1117   -8.6664    0.0000 H   0  0  0  0  0  0  0  0  0  0  0  0
    2.0041   -7.4987    0.0000 H   0  0  0  0  0  0  0  0  0  0  0  0
    3.5407   -2.8914    0.0000 H   0  0  0  0  0  0  0  0  0  0  0  0
    2.8262   -2.4789    0.0000 H   0  0  0  0  0  0  0  0  0  0  0  0
    2.1117   -2.8914    0.0000 H   0  0  0  0  0  0  0  0  0  0  0  0
  1  2  1  0  0  0  0
  2  3  2  0  0  0  0
  2  4  1  0  0  0  0
  4  5  1  0  0  0  0
  5  6  1  0  0  0  0
  6  7  1  0  0  0  0
  7  8  1  0  0  0  0
  8  9  1  0  0  0  0
  9 10  4  0  0  0  0
 10 11  4  0  0  0  0
 11 12  4  0  0  0  0
 12 13  4  0  0  0  0
 13 14  4  0  0  0  0
  9 14  4  0  0  0  0
  6 15  1  0  0  0  0
 15 16  1  0  0  0  0
 16 17  1  0  0  0  0
 16 18  2  0  0  0  0
  1 19  1  0  0  0  0
  1 20  1  0  0  0  0
  1 21  1  0  0  0  0
  5 22  1  0  0  0  0
  5 23  1  0  0  0  0
  6 24  1  0  0  0  0
  7 25  1  0  0  0  0
  7 26  1  0  0  0  0
 10 27  1  0  0  0  0
 11 28  1  0  0  0  0
 12 29  1  0  0  0  0
 13 30  1  0  0  0  0
 14 31  1  0  0  0  0
 17 32  1  0  0  0  0
 17 33  1  0  0  0  0
 17 34  1  0  0  0  0
M  END
>  <InChIKey>
MFUHTALWGBAVOL-UHFFFAOYSA-N

>  <UN GHS>
1

>  <CASRN>
75-20-7

> <Outcome>
1

>  <Index>
471

>  <StandardizerResult>
Dearomatize (ID: Dearomatize)
Clear Stereo (ID: ClearStereo)
Wedge Clean (ID: WedgeClean)
Mesomerize (ID: Mesomerize)
Tautomerize (ID: Tautomerize)
Aromatize (ID: Aromatize)
Add Explicit Hydrogens (ID: AddExplicitH)
Neutralize (ID: Neutralize)
Clean 2D (ID: Clean2D)

> <knn Distance>


> <CpId>
471

$$$$
474
  Mrv1532301301811342D          

  9  9  0  0  0  0            999 V2000
    0.7145    2.0625    0.0000 Cl  0  0  0  0  0  0  0  0  0  0  0  0
    0.7145    1.2375    0.0000 C   0  0  0  0  0  0  0  0  0  0  0  0
    1.4289    0.8250    0.0000 N   0  0  0  0  0  0  0  0  0  0  0  0
    1.4289   -0.0000    0.0000 C   0  0  0  0  0  0  0  0  0  0  0  0
    2.1434   -0.4125    0.0000 Cl  0  0  0  0  0  0  0  0  0  0  0  0
    0.7145   -0.4125    0.0000 N   0  0  0  0  0  0  0  0  0  0  0  0
   -0.0000    0.0000    0.0000 C   0  0  0  0  0  0  0  0  0  0  0  0
   -0.7145   -0.4125    0.0000 Cl  0  0  0  0  0  0  0  0  0  0  0  0
   -0.0000    0.8250    0.0000 N   0  0  0  0  0  0  0  0  0  0  0  0
  1  2  1  0  0  0  0
  2  3  4  0  0  0  0
  3  4  4  0  0  0  0
  4  5  1  0  0  0  0
  4  6  4  0  0  0  0
  6  7  4  0  0  0  0
  7  8  1  0  0  0  0
  7  9  4  0  0  0  0
  2  9  4  0  0  0  0
M  END
>  <InChIKey>
MGNCLNQXLYJVJD-UHFFFAOYSA-N

>  <UN GHS>
1

>  <CASRN>
108-77-0

> <Outcome>
1

>  <Index>
474

>  <StandardizerResult>
Dearomatize (ID: Dearomatize)
Clear Stereo (ID: ClearStereo)
Wedge Clean (ID: WedgeClean)
Mesomerize (ID: Mesomerize)
Tautomerize (ID: Tautomerize)
Aromatize (ID: Aromatize)
Clean 2D (ID: Clean2D)

> <knn Distance>


> <CpId>
474

$$$$
475
  Mrv1532301301811342D          

 25 25  0  0  0  0            999 V2000
   -0.0224    2.5041    0.0000 C   0  0  0  0  0  0  0  0  0  0  0  0
    0.6921    2.0916    0.0000 C   0  0  0  0  0  0  0  0  0  0  0  0
    1.4066    2.5041    0.0000 C   0  0  0  0  0  0  0  0  0  0  0  0
    0.6921    1.2666    0.0000 C   0  0  0  0  0  0  0  0  0  0  0  0
    1.4066    0.8541    0.0000 C   0  0  0  0  0  0  0  0  0  0  0  0
    1.4066    0.0291    0.0000 C   0  0  0  0  0  0  0  0  0  0  0  0
    0.6921   -0.3834    0.0000 C   0  0  0  0  0  0  0  0  0  0  0  0
    0.6921   -1.2084    0.0000 C   0  0  0  0  0  0  0  0  0  0  0  0
   -0.0224    0.0291    0.0000 C   0  0  0  0  0  0  0  0  0  0  0  0
   -0.0224    0.8541    0.0000 C   0  0  0  0  0  0  0  0  0  0  0  0
   -0.7369    1.2666    0.0000 O   0  0  0  0  0  0  0  0  0  0  0  0
    0.3901    3.2185    0.0000 H   0  0  0  0  0  0  0  0  0  0  0  0
   -0.7369    2.9166    0.0000 H   0  0  0  0  0  0  0  0  0  0  0  0
   -0.4349    1.7896    0.0000 H   0  0  0  0  0  0  0  0  0  0  0  0
    0.6921    2.9166    0.0000 H   0  0  0  0  0  0  0  0  0  0  0  0
    1.6201    1.7072    0.0000 H   0  0  0  0  0  0  0  0  0  0  0  0
    2.2316    2.5041    0.0000 H   0  0  0  0  0  0  0  0  0  0  0  0
    1.6201    3.3010    0.0000 H   0  0  0  0  0  0  0  0  0  0  0  0
    2.2254    0.7532    0.0000 H   0  0  0  0  0  0  0  0  0  0  0  0
    2.1210   -0.3834    0.0000 H   0  0  0  0  0  0  0  0  0  0  0  0
   -0.1329   -1.2084    0.0000 H   0  0  0  0  0  0  0  0  0  0  0  0
    0.6921   -2.0334    0.0000 H   0  0  0  0  0  0  0  0  0  0  0  0
    1.5171   -1.2084    0.0000 H   0  0  0  0  0  0  0  0  0  0  0  0
   -0.7369   -0.3834    0.0000 H   0  0  0  0  0  0  0  0  0  0  0  0
   -1.5337    1.0531    0.0000 H   0  0  0  0  0  0  0  0  0  0  0  0
  1  2  1  0  0  0  0
  2  3  1  0  0  0  0
  2  4  1  0  0  0  0
  4  5  4  0  0  0  0
  5  6  4  0  0  0  0
  6  7  4  0  0  0  0
  7  8  1  0  0  0  0
  7  9  4  0  0  0  0
  9 10  4  0  0  0  0
  4 10  4  0  0  0  0
 10 11  1  0  0  0  0
  1 12  1  0  0  0  0
  1 13  1  0  0  0  0
  1 14  1  0  0  0  0
  2 15  1  0  0  0  0
  3 16  1  0  0  0  0
  3 17  1  0  0  0  0
  3 18  1  0  0  0  0
  5 19  1  0  0  0  0
  6 20  1  0  0  0  0
  8 21  1  0  0  0  0
  8 22  1  0  0  0  0
  8 23  1  0  0  0  0
  9 24  1  0  0  0  0
 11 25  1  0  0  0  0
M  END
>  <InChIKey>
MGSRCZKZVOBKFT-UHFFFAOYSA-N

>  <UN GHS>
1

>  <CASRN>
89-83-8

> <Outcome>
1

>  <Index>
475

>  <StandardizerResult>
Dearomatize (ID: Dearomatize)
Clear Stereo (ID: ClearStereo)
Wedge Clean (ID: WedgeClean)
Mesomerize (ID: Mesomerize)
Tautomerize (ID: Tautomerize)
Aromatize (ID: Aromatize)
Add Explicit Hydrogens (ID: AddExplicitH)
Neutralize (ID: Neutralize)
Clean 2D (ID: Clean2D)

> <knn Distance>


> <CpId>
475

$$$$
480
  Mrv1532301301811342D          

 17 16  0  0  0  0            999 V2000
   -0.1913    0.7135    0.0000 C   0  0  0  0  0  0  0  0  0  0  0  0
    0.5231    1.1260    0.0000 C   0  0  0  0  0  0  0  0  0  0  0  0
    1.2376    0.7135    0.0000 N   0  0  0  0  0  0  0  0  0  0  0  0
    1.9521    1.1260    0.0000 C   0  0  0  0  0  0  0  0  0  0  0  0
    2.6665    0.7135    0.0000 C   0  0  0  0  0  0  0  0  0  0  0  0
    3.3810    1.1260    0.0000 O   0  0  0  0  0  0  0  0  0  0  0  0
   -0.6038    1.4280    0.0000 H   0  0  0  0  0  0  0  0  0  0  0  0
   -0.9058    0.3010    0.0000 H   0  0  0  0  0  0  0  0  0  0  0  0
    0.2212   -0.0009    0.0000 H   0  0  0  0  0  0  0  0  0  0  0  0
    0.8934    1.8633    0.0000 H   0  0  0  0  0  0  0  0  0  0  0  0
    0.1529    1.8633    0.0000 H   0  0  0  0  0  0  0  0  0  0  0  0
    1.2376   -0.1115    0.0000 H   0  0  0  0  0  0  0  0  0  0  0  0
    2.3223    1.8633    0.0000 H   0  0  0  0  0  0  0  0  0  0  0  0
    1.5818    1.8633    0.0000 H   0  0  0  0  0  0  0  0  0  0  0  0
    2.2963   -0.0237    0.0000 H   0  0  0  0  0  0  0  0  0  0  0  0
    3.0368   -0.0237    0.0000 H   0  0  0  0  0  0  0  0  0  0  0  0
    4.0955    0.7135    0.0000 H   0  0  0  0  0  0  0  0  0  0  0  0
  1  2  1  0  0  0  0
  2  3  1  0  0  0  0
  3  4  1  0  0  0  0
  4  5  1  0  0  0  0
  5  6  1  0  0  0  0
  1  7  1  0  0  0  0
  1  8  1  0  0  0  0
  1  9  1  0  0  0  0
  2 10  1  0  0  0  0
  2 11  1  0  0  0  0
  3 12  1  0  0  0  0
  4 13  1  0  0  0  0
  4 14  1  0  0  0  0
  5 15  1  0  0  0  0
  5 16  1  0  0  0  0
  6 17  1  0  0  0  0
M  END
>  <InChIKey>
MIJDSYMOBYNHOT-UHFFFAOYSA-N

>  <UN GHS>
1

>  <CASRN>
110-73-6

> <Outcome>
1

>  <Index>
480

>  <StandardizerResult>
Clear Stereo (ID: ClearStereo)
Wedge Clean (ID: WedgeClean)
Mesomerize (ID: Mesomerize)
Tautomerize (ID: Tautomerize)
Add Explicit Hydrogens (ID: AddExplicitH)
Neutralize (ID: Neutralize)
Clean 2D (ID: Clean2D)

> <knn Distance>


> <CpId>
480

$$$$
481
  Mrv1532301301811342D          

 28 27  0  0  0  0            999 V2000
    3.4495   -1.5325    0.0000 C   0  0  0  0  0  0  0  0  0  0  0  0
    2.6245   -1.5325    0.0000 C   0  0  0  0  0  0  0  0  0  0  0  0
    2.6245   -0.7075    0.0000 C   0  0  0  0  0  0  0  0  0  0  0  0
    2.6245   -2.3575    0.0000 C   0  0  0  0  0  0  0  0  0  0  0  0
    1.7995   -1.5325    0.0000 C   0  0  0  0  0  0  0  0  0  0  0  0
    1.3870   -0.8180    0.0000 C   0  0  0  0  0  0  0  0  0  0  0  0
    2.1015   -0.4055    0.0000 C   0  0  0  0  0  0  0  0  0  0  0  0
    0.6725   -1.2305    0.0000 C   0  0  0  0  0  0  0  0  0  0  0  0
    0.9745   -0.1035    0.0000 O   0  0  0  0  0  0  0  0  0  0  0  0
    0.1495   -0.1035    0.0000 O   0  0  0  0  0  0  0  0  0  0  0  0
    3.4495   -2.3575    0.0000 H   0  0  0  0  0  0  0  0  0  0  0  0
    4.2745   -1.5325    0.0000 H   0  0  0  0  0  0  0  0  0  0  0  0
    3.4495   -0.7075    0.0000 H   0  0  0  0  0  0  0  0  0  0  0  0
    3.1548   -0.0755    0.0000 H   0  0  0  0  0  0  0  0  0  0  0  0
    2.4812    0.1050    0.0000 H   0  0  0  0  0  0  0  0  0  0  0  0
    1.9100   -1.1200    0.0000 H   0  0  0  0  0  0  0  0  0  0  0  0
    1.8623   -2.0417    0.0000 H   0  0  0  0  0  0  0  0  0  0  0  0
    2.0411   -2.9408    0.0000 H   0  0  0  0  0  0  0  0  0  0  0  0
    2.9402   -3.1197    0.0000 H   0  0  0  0  0  0  0  0  0  0  0  0
    0.9819   -1.4225    0.0000 H   0  0  0  0  0  0  0  0  0  0  0  0
    1.2130   -2.1126    0.0000 H   0  0  0  0  0  0  0  0  0  0  0  0
    2.0653    0.4187    0.0000 H   0  0  0  0  0  0  0  0  0  0  0  0
    1.5529    0.2107    0.0000 H   0  0  0  0  0  0  0  0  0  0  0  0
    1.2870   -0.2741    0.0000 H   0  0  0  0  0  0  0  0  0  0  0  0
    0.4654   -0.4319    0.0000 H   0  0  0  0  0  0  0  0  0  0  0  0
   -0.1524   -1.2173    0.0000 H   0  0  0  0  0  0  0  0  0  0  0  0
    0.4399   -2.0220    0.0000 H   0  0  0  0  0  0  0  0  0  0  0  0
   -0.6096    0.2196    0.0000 H   0  0  0  0  0  0  0  0  0  0  0  0
  1  2  1  0  0  0  0
  2  3  1  0  0  0  0
  2  4  1  0  0  0  0
  2  5  1  0  0  0  0
  5  6  1  0  0  0  0
  6  7  1  0  0  0  0
  6  8  1  0  0  0  0
  6  9  1  0  0  0  0
  9 10  1  0  0  0  0
  1 11  1  0  0  0  0
  1 12  1  0  0  0  0
  1 13  1  0  0  0  0
  3 14  1  0  0  0  0
  3 15  1  0  0  0  0
  3 16  1  0  0  0  0
  4 17  1  0  0  0  0
  4 18  1  0  0  0  0
  4 19  1  0  0  0  0
  5 20  1  0  0  0  0
  5 21  1  0  0  0  0
  7 22  1  0  0  0  0
  7 23  1  0  0  0  0
  7 24  1  0  0  0  0
  8 25  1  0  0  0  0
  8 26  1  0  0  0  0
  8 27  1  0  0  0  0
 10 28  1  0  0  0  0
M  END
>  <InChIKey>
MIRQGKQPLPBZQM-UHFFFAOYSA-N

>  <UN GHS>
1

>  <CASRN>
2009-05-08

> <Outcome>
1

>  <Index>
481

>  <StandardizerResult>
Clear Stereo (ID: ClearStereo)
Wedge Clean (ID: WedgeClean)
Mesomerize (ID: Mesomerize)
Tautomerize (ID: Tautomerize)
Add Explicit Hydrogens (ID: AddExplicitH)
Neutralize (ID: Neutralize)
Clean 2D (ID: Clean2D)

> <knn Distance>


> <CpId>
481

$$$$
482
  Mrv1532301301811342D          

 53 54  0  0  0  0            999 V2000
   -0.7080    0.4084    0.0000 C   0  0  0  0  0  0  0  0  0  0  0  0
    0.0065   -0.0041    0.0000 C   0  0  0  0  0  0  0  0  0  0  0  0
    0.7210    0.4084    0.0000 O   0  0  0  0  0  0  0  0  0  0  0  0
    0.0065   -0.8291    0.0000 C   0  0  0  0  0  0  0  0  0  0  0  0
    0.7210   -1.2416    0.0000 O   0  0  0  0  0  0  0  0  0  0  0  0
    0.7210   -2.0666    0.0000 C   0  0  0  0  0  0  0  0  0  0  0  0
    1.4354   -2.4791    0.0000 C   0  0  0  0  0  0  0  0  0  0  0  0
    1.4354   -3.3041    0.0000 C   0  0  0  0  0  0  0  0  0  0  0  0
    0.7210   -3.7166    0.0000 C   0  0  0  0  0  0  0  0  0  0  0  0
    0.0065   -3.3041    0.0000 C   0  0  0  0  0  0  0  0  0  0  0  0
    0.0065   -2.4791    0.0000 C   0  0  0  0  0  0  0  0  0  0  0  0
    0.7210   -4.5416    0.0000 C   0  0  0  0  0  0  0  0  0  0  0  0
   -0.1040   -4.5416    0.0000 C   0  0  0  0  0  0  0  0  0  0  0  0
    1.5460   -4.5416    0.0000 C   0  0  0  0  0  0  0  0  0  0  0  0
    0.7210   -5.3666    0.0000 C   0  0  0  0  0  0  0  0  0  0  0  0
    1.4354   -5.7791    0.0000 C   0  0  0  0  0  0  0  0  0  0  0  0
    1.4354   -6.6041    0.0000 C   0  0  0  0  0  0  0  0  0  0  0  0
    0.7210   -7.0166    0.0000 C   0  0  0  0  0  0  0  0  0  0  0  0
    0.7210   -7.8416    0.0000 O   0  0  0  0  0  0  0  0  0  0  0  0
    1.4354   -8.2541    0.0000 C   0  0  0  0  0  0  0  0  0  0  0  0
    1.4354   -9.0791    0.0000 C   0  0  0  0  0  0  0  0  0  0  0  0
    2.1499   -9.4916    0.0000 C   0  0  0  0  0  0  0  0  0  0  0  0
    0.7210   -9.4916    0.0000 O   0  0  0  0  0  0  0  0  0  0  0  0
    0.0065   -6.6041    0.0000 C   0  0  0  0  0  0  0  0  0  0  0  0
    0.0065   -5.7791    0.0000 C   0  0  0  0  0  0  0  0  0  0  0  0
   -0.2955    1.1228    0.0000 H   0  0  0  0  0  0  0  0  0  0  0  0
   -1.4224    0.8209    0.0000 H   0  0  0  0  0  0  0  0  0  0  0  0
   -1.1205   -0.3061    0.0000 H   0  0  0  0  0  0  0  0  0  0  0  0
    0.0065    0.8209    0.0000 H   0  0  0  0  0  0  0  0  0  0  0  0
    1.5460    0.4084    0.0000 H   0  0  0  0  0  0  0  0  0  0  0  0
   -0.8171   -0.8771    0.0000 H   0  0  0  0  0  0  0  0  0  0  0  0
   -0.4468   -1.5184    0.0000 H   0  0  0  0  0  0  0  0  0  0  0  0
    2.1499   -2.0666    0.0000 H   0  0  0  0  0  0  0  0  0  0  0  0
    2.1499   -3.7166    0.0000 H   0  0  0  0  0  0  0  0  0  0  0  0
   -0.7080   -3.7166    0.0000 H   0  0  0  0  0  0  0  0  0  0  0  0
   -0.7080   -2.0666    0.0000 H   0  0  0  0  0  0  0  0  0  0  0  0
   -0.1040   -3.7166    0.0000 H   0  0  0  0  0  0  0  0  0  0  0  0
   -0.9290   -4.5416    0.0000 H   0  0  0  0  0  0  0  0  0  0  0  0
   -0.1040   -5.3666    0.0000 H   0  0  0  0  0  0  0  0  0  0  0  0
    1.5460   -5.3666    0.0000 H   0  0  0  0  0  0  0  0  0  0  0  0
    2.3710   -4.5416    0.0000 H   0  0  0  0  0  0  0  0  0  0  0  0
    1.5460   -3.7166    0.0000 H   0  0  0  0  0  0  0  0  0  0  0  0
    2.2534   -5.8868    0.0000 H   0  0  0  0  0  0  0  0  0  0  0  0
    2.1499   -7.0166    0.0000 H   0  0  0  0  0  0  0  0  0  0  0  0
    2.2591   -8.2062    0.0000 H   0  0  0  0  0  0  0  0  0  0  0  0
    1.8888   -7.5649    0.0000 H   0  0  0  0  0  0  0  0  0  0  0  0
    2.1499   -8.6666    0.0000 H   0  0  0  0  0  0  0  0  0  0  0  0
    1.5666  -10.0750    0.0000 H   0  0  0  0  0  0  0  0  0  0  0  0
    2.5624  -10.2061    0.0000 H   0  0  0  0  0  0  0  0  0  0  0  0
    2.9468   -9.2781    0.0000 H   0  0  0  0  0  0  0  0  0  0  0  0
    0.0065   -9.0791    0.0000 H   0  0  0  0  0  0  0  0  0  0  0  0
   -0.7080   -7.0166    0.0000 H   0  0  0  0  0  0  0  0  0  0  0  0
   -0.8114   -5.8868    0.0000 H   0  0  0  0  0  0  0  0  0  0  0  0
  1  2  1  0  0  0  0
  2  3  1  0  0  0  0
  2  4  1  0  0  0  0
  4  5  1  0  0  0  0
  5  6  1  0  0  0  0
  6  7  4  0  0  0  0
  7  8  4  0  0  0  0
  8  9  4  0  0  0  0
  9 10  4  0  0  0  0
 10 11  4  0  0  0  0
  6 11  4  0  0  0  0
  9 12  1  0  0  0  0
 12 13  1  0  0  0  0
 12 14  1  0  0  0  0
 12 15  1  0  0  0  0
 15 16  4  0  0  0  0
 16 17  4  0  0  0  0
 17 18  4  0  0  0  0
 18 19  1  0  0  0  0
 19 20  1  0  0  0  0
 20 21  1  0  0  0  0
 21 22  1  0  0  0  0
 21 23  1  0  0  0  0
 18 24  4  0  0  0  0
 24 25  4  0  0  0  0
 15 25  4  0  0  0  0
  1 26  1  0  0  0  0
  1 27  1  0  0  0  0
  1 28  1  0  0  0  0
  2 29  1  0  0  0  0
  3 30  1  0  0  0  0
  4 31  1  0  0  0  0
  4 32  1  0  0  0  0
  7 33  1  0  0  0  0
  8 34  1  0  0  0  0
 10 35  1  0  0  0  0
 11 36  1  0  0  0  0
 13 37  1  0  0  0  0
 13 38  1  0  0  0  0
 13 39  1  0  0  0  0
 14 40  1  0  0  0  0
 14 41  1  0  0  0  0
 14 42  1  0  0  0  0
 16 43  1  0  0  0  0
 17 44  1  0  0  0  0
 20 45  1  0  0  0  0
 20 46  1  0  0  0  0
 21 47  1  0  0  0  0
 22 48  1  0  0  0  0
 22 49  1  0  0  0  0
 22 50  1  0  0  0  0
 23 51  1  0  0  0  0
 24 52  1  0  0  0  0
 25 53  1  0  0  0  0
M  END
>  <InChIKey>
MIUUNYUUEFHIHM-UHFFFAOYSA-N

>  <UN GHS>
2B

>  <CASRN>
116-37-0

> <Outcome>
1

>  <Index>
482

>  <StandardizerResult>
Dearomatize (ID: Dearomatize)
Clear Stereo (ID: ClearStereo)
Wedge Clean (ID: WedgeClean)
Mesomerize (ID: Mesomerize)
Tautomerize (ID: Tautomerize)
Aromatize (ID: Aromatize)
Add Explicit Hydrogens (ID: AddExplicitH)
Neutralize (ID: Neutralize)
Clean 2D (ID: Clean2D)

> <knn Distance>


> <CpId>
482

$$$$
483
  Mrv1532301301811342D          

 48 50  0  0  0  0            999 V2000
   -4.2547   -1.6586    0.0000 C   0  0  0  0  0  0  0  0  0  0  0  0
   -4.2547   -2.4836    0.0000 N   0  0  0  0  0  0  0  0  0  0  0  0
   -3.5403   -2.8961    0.0000 C   0  0  0  0  0  0  0  0  0  0  0  0
   -2.8258   -2.4836    0.0000 O   0  0  0  0  0  0  0  0  0  0  0  0
   -3.5403   -3.7211    0.0000 C   0  0  0  0  0  0  0  0  0  0  0  0
   -2.8258   -4.1336    0.0000 C   0  0  0  0  0  0  0  0  0  0  0  0
   -2.8258   -4.9586    0.0000 C   0  0  0  0  0  0  0  0  0  0  0  0
   -2.1113   -5.3711    0.0000 O   0  0  0  0  0  0  0  0  0  0  0  0
   -2.1113   -6.1961    0.0000 C   0  0  0  0  0  0  0  0  0  0  0  0
   -1.3969   -6.6086    0.0000 C   0  0  0  0  0  0  0  0  0  0  0  0
   -1.3969   -7.4336    0.0000 C   0  0  0  0  0  0  0  0  0  0  0  0
   -2.1113   -7.8461    0.0000 C   0  0  0  0  0  0  0  0  0  0  0  0
   -2.1113   -8.6711    0.0000 N   0  0  0  0  0  0  0  0  0  0  0  0
   -2.8258   -9.0836    0.0000 C   0  0  0  0  0  0  0  0  0  0  0  0
   -3.5403   -8.6711    0.0000 O   0  0  0  0  0  0  0  0  0  0  0  0
   -2.8258   -9.9086    0.0000 N   0  0  0  0  0  0  0  0  0  0  0  0
   -2.1113  -10.3211    0.0000 C   0  0  0  0  0  0  0  0  0  0  0  0
   -1.3969   -9.9086    0.0000 C   0  0  0  0  0  0  0  0  0  0  0  0
   -0.6824  -10.3211    0.0000 C   0  0  0  0  0  0  0  0  0  0  0  0
   -0.6824  -11.1461    0.0000 C   0  0  0  0  0  0  0  0  0  0  0  0
    0.0321  -11.5586    0.0000 Cl  0  0  0  0  0  0  0  0  0  0  0  0
   -1.3969  -11.5586    0.0000 C   0  0  0  0  0  0  0  0  0  0  0  0
   -2.1113  -11.1461    0.0000 C   0  0  0  0  0  0  0  0  0  0  0  0
   -1.3969  -12.3836    0.0000 C   0  0  0  0  0  0  0  0  0  0  0  0
   -1.3969  -13.2086    0.0000 F   0  0  0  0  0  0  0  0  0  0  0  0
   -2.2219  -12.3836    0.0000 F   0  0  0  0  0  0  0  0  0  0  0  0
   -0.5719  -12.3836    0.0000 F   0  0  0  0  0  0  0  0  0  0  0  0
   -2.8258   -7.4336    0.0000 C   0  0  0  0  0  0  0  0  0  0  0  0
   -2.8258   -6.6086    0.0000 C   0  0  0  0  0  0  0  0  0  0  0  0
   -3.5403   -5.3711    0.0000 C   0  0  0  0  0  0  0  0  0  0  0  0
   -4.2547   -4.9586    0.0000 C   0  0  0  0  0  0  0  0  0  0  0  0
   -4.2547   -4.1336    0.0000 N   0  0  0  0  0  0  0  0  0  0  0  0
   -3.4297   -1.6586    0.0000 H   0  0  0  0  0  0  0  0  0  0  0  0
   -4.2547   -0.8336    0.0000 H   0  0  0  0  0  0  0  0  0  0  0  0
   -5.0797   -1.6586    0.0000 H   0  0  0  0  0  0  0  0  0  0  0  0
   -4.9692   -2.8961    0.0000 H   0  0  0  0  0  0  0  0  0  0  0  0
   -2.1113   -3.7211    0.0000 H   0  0  0  0  0  0  0  0  0  0  0  0
   -0.6824   -6.1961    0.0000 H   0  0  0  0  0  0  0  0  0  0  0  0
   -0.6824   -7.8461    0.0000 H   0  0  0  0  0  0  0  0  0  0  0  0
   -1.3969   -9.0836    0.0000 H   0  0  0  0  0  0  0  0  0  0  0  0
   -3.5403  -10.3211    0.0000 H   0  0  0  0  0  0  0  0  0  0  0  0
   -2.1113   -9.4961    0.0000 H   0  0  0  0  0  0  0  0  0  0  0  0
    0.0321   -9.9086    0.0000 H   0  0  0  0  0  0  0  0  0  0  0  0
   -2.8258  -11.5586    0.0000 H   0  0  0  0  0  0  0  0  0  0  0  0
   -3.5403   -7.8461    0.0000 H   0  0  0  0  0  0  0  0  0  0  0  0
   -3.5403   -6.1961    0.0000 H   0  0  0  0  0  0  0  0  0  0  0  0
   -4.2547   -5.7836    0.0000 H   0  0  0  0  0  0  0  0  0  0  0  0
   -5.0797   -4.9586    0.0000 H   0  0  0  0  0  0  0  0  0  0  0  0
  1  2  1  0  0  0  0
  2  3  1  0  0  0  0
  3  4  2  0  0  0  0
  3  5  1  0  0  0  0
  5  6  4  0  0  0  0
  6  7  4  0  0  0  0
  7  8  1  0  0  0  0
  8  9  1  0  0  0  0
  9 10  4  0  0  0  0
 10 11  4  0  0  0  0
 11 12  4  0  0  0  0
 12 13  1  0  0  0  0
 13 14  1  0  0  0  0
 14 15  2  0  0  0  0
 14 16  1  0  0  0  0
 16 17  1  0  0  0  0
 17 18  4  0  0  0  0
 18 19  4  0  0  0  0
 19 20  4  0  0  0  0
 20 21  1  0  0  0  0
 20 22  4  0  0  0  0
 22 23  4  0  0  0  0
 17 23  4  0  0  0  0
 22 24  1  0  0  0  0
 24 25  1  0  0  0  0
 24 26  1  0  0  0  0
 24 27  1  0  0  0  0
 12 28  4  0  0  0  0
 28 29  4  0  0  0  0
  9 29  4  0  0  0  0
  7 30  4  0  0  0  0
 30 31  4  0  0  0  0
 31 32  4  0  0  0  0
  5 32  4  0  0  0  0
  1 33  1  0  0  0  0
  1 34  1  0  0  0  0
  1 35  1  0  0  0  0
  2 36  1  0  0  0  0
  6 37  1  0  0  0  0
 10 38  1  0  0  0  0
 11 39  1  0  0  0  0
 13 40  1  0  0  0  0
 16 41  1  0  0  0  0
 18 42  1  0  0  0  0
 19 43  1  0  0  0  0
 23 44  1  0  0  0  0
 28 45  1  0  0  0  0
 29 46  1  0  0  0  0
 30 47  1  0  0  0  0
 31 48  1  0  0  0  0
M  END
>  <InChIKey>
MLDQJTXFUGDVEO-UHFFFAOYSA-N

>  <UN GHS>
2B

>  <CASRN>
284461-73-0

> <Outcome>
1

>  <Index>
483

>  <StandardizerResult>
Dearomatize (ID: Dearomatize)
Clear Stereo (ID: ClearStereo)
Wedge Clean (ID: WedgeClean)
Mesomerize (ID: Mesomerize)
Tautomerize (ID: Tautomerize)
Aromatize (ID: Aromatize)
Add Explicit Hydrogens (ID: AddExplicitH)
Neutralize (ID: Neutralize)
Clean 2D (ID: Clean2D)

> <knn Distance>


> <CpId>
483

$$$$
489
  Mrv1532301301811342D          

 43 42  0  0  0  0            999 V2000
    3.5211    2.8575    0.0000 C   0  0  0  0  0  0  0  0  0  0  0  0
    4.2355    3.2700    0.0000 C   0  0  0  0  0  0  0  0  0  0  0  0
    4.9500    2.8575    0.0000 C   0  0  0  0  0  0  0  0  0  0  0  0
    5.6645    3.2700    0.0000 C   0  0  0  0  0  0  0  0  0  0  0  0
    6.3789    2.8575    0.0000 C   0  0  0  0  0  0  0  0  0  0  0  0
    7.0934    3.2700    0.0000 C   0  0  0  0  0  0  0  0  0  0  0  0
    7.8079    2.8575    0.0000 C   0  0  0  0  0  0  0  0  0  0  0  0
    8.5224    3.2700    0.0000 C   0  0  0  0  0  0  0  0  0  0  0  0
    9.2368    2.8575    0.0000 C   0  0  0  0  0  0  0  0  0  0  0  0
    9.9513    3.2700    0.0000 C   0  0  0  0  0  0  0  0  0  0  0  0
   10.6658    2.8575    0.0000 C   0  0  0  0  0  0  0  0  0  0  0  0
   11.3802    3.2700    0.0000 C   0  0  0  0  0  0  0  0  0  0  0  0
   12.0947    2.8575    0.0000 O   0  0  0  0  0  0  0  0  0  0  0  0
   12.8092    3.2700    0.0000 S   0  0  0  0  0  0  0  0  0  0  0  0
   13.5237    3.6825    0.0000 O   0  0  0  0  0  0  0  0  0  0  0  0
   13.2217    2.5555    0.0000 O   0  0  0  0  0  0  0  0  0  0  0  0
   12.3967    3.9845    0.0000 O   0  0  0  0  0  0  0  0  0  0  0  0
    3.1086    3.5720    0.0000 H   0  0  0  0  0  0  0  0  0  0  0  0
    2.8066    2.4450    0.0000 H   0  0  0  0  0  0  0  0  0  0  0  0
    3.9336    2.1430    0.0000 H   0  0  0  0  0  0  0  0  0  0  0  0
    4.6058    4.0072    0.0000 H   0  0  0  0  0  0  0  0  0  0  0  0
    3.8653    4.0072    0.0000 H   0  0  0  0  0  0  0  0  0  0  0  0
    4.5797    2.1202    0.0000 H   0  0  0  0  0  0  0  0  0  0  0  0
    5.3203    2.1202    0.0000 H   0  0  0  0  0  0  0  0  0  0  0  0
    6.0347    4.0072    0.0000 H   0  0  0  0  0  0  0  0  0  0  0  0
    5.2942    4.0072    0.0000 H   0  0  0  0  0  0  0  0  0  0  0  0
    6.0087    2.1202    0.0000 H   0  0  0  0  0  0  0  0  0  0  0  0
    6.7492    2.1202    0.0000 H   0  0  0  0  0  0  0  0  0  0  0  0
    7.4637    4.0072    0.0000 H   0  0  0  0  0  0  0  0  0  0  0  0
    6.7232    4.0072    0.0000 H   0  0  0  0  0  0  0  0  0  0  0  0
    7.4376    2.1202    0.0000 H   0  0  0  0  0  0  0  0  0  0  0  0
    8.1781    2.1202    0.0000 H   0  0  0  0  0  0  0  0  0  0  0  0
    8.8926    4.0072    0.0000 H   0  0  0  0  0  0  0  0  0  0  0  0
    8.1521    4.0072    0.0000 H   0  0  0  0  0  0  0  0  0  0  0  0
    8.8666    2.1202    0.0000 H   0  0  0  0  0  0  0  0  0  0  0  0
    9.6071    2.1202    0.0000 H   0  0  0  0  0  0  0  0  0  0  0  0
   10.3216    4.0072    0.0000 H   0  0  0  0  0  0  0  0  0  0  0  0
    9.5810    4.0072    0.0000 H   0  0  0  0  0  0  0  0  0  0  0  0
   10.2955    2.1202    0.0000 H   0  0  0  0  0  0  0  0  0  0  0  0
   11.0360    2.1202    0.0000 H   0  0  0  0  0  0  0  0  0  0  0  0
   11.7505    4.0072    0.0000 H   0  0  0  0  0  0  0  0  0  0  0  0
   11.0100    4.0072    0.0000 H   0  0  0  0  0  0  0  0  0  0  0  0
   14.2381    3.2700    0.0000 H   0  0  0  0  0  0  0  0  0  0  0  0
  1  2  1  0  0  0  0
  2  3  1  0  0  0  0
  3  4  1  0  0  0  0
  4  5  1  0  0  0  0
  5  6  1  0  0  0  0
  6  7  1  0  0  0  0
  7  8  1  0  0  0  0
  8  9  1  0  0  0  0
  9 10  1  0  0  0  0
 10 11  1  0  0  0  0
 11 12  1  0  0  0  0
 12 13  1  0  0  0  0
 13 14  1  0  0  0  0
 14 15  1  0  0  0  0
 14 16  2  0  0  0  0
 14 17  2  0  0  0  0
  1 18  1  0  0  0  0
  1 19  1  0  0  0  0
  1 20  1  0  0  0  0
  2 21  1  0  0  0  0
  2 22  1  0  0  0  0
  3 23  1  0  0  0  0
  3 24  1  0  0  0  0
  4 25  1  0  0  0  0
  4 26  1  0  0  0  0
  5 27  1  0  0  0  0
  5 28  1  0  0  0  0
  6 29  1  0  0  0  0
  6 30  1  0  0  0  0
  7 31  1  0  0  0  0
  7 32  1  0  0  0  0
  8 33  1  0  0  0  0
  8 34  1  0  0  0  0
  9 35  1  0  0  0  0
  9 36  1  0  0  0  0
 10 37  1  0  0  0  0
 10 38  1  0  0  0  0
 11 39  1  0  0  0  0
 11 40  1  0  0  0  0
 12 41  1  0  0  0  0
 12 42  1  0  0  0  0
 15 43  1  0  0  0  0
M  END
>  <InChIKey>
MOTZDAYCYVMXPC-UHFFFAOYSA-M

>  <UN GHS>
1

>  <CASRN>
151-21-3

> <Outcome>
1

>  <Index>
489

>  <StandardizerResult>
Clear Stereo (ID: ClearStereo)
Wedge Clean (ID: WedgeClean)
Mesomerize (ID: Mesomerize)
Tautomerize (ID: Tautomerize)
Add Explicit Hydrogens (ID: AddExplicitH)
Neutralize (ID: Neutralize)
Clean 2D (ID: Clean2D)

> <knn Distance>


> <CpId>
489

$$$$
493
  Mrv1532301301811342D          

 35 34  0  0  0  0            999 V2000
   -3.0978    0.6752    0.0000 C   0  0  0  0  0  0  0  0  0  0  0  0
   -2.3833    0.2627    0.0000 O   0  0  0  0  0  0  0  0  0  0  0  0
   -1.6688    0.6752    0.0000 Si  0  0  0  0  0  0  0  0  0  0  0  0
   -1.2563   -0.0392    0.0000 C   0  0  0  0  0  0  0  0  0  0  0  0
   -0.9544    1.0877    0.0000 C   0  0  0  0  0  0  0  0  0  0  0  0
   -0.2399    0.6752    0.0000 C   0  0  0  0  0  0  0  0  0  0  0  0
    0.4746    1.0877    0.0000 C   0  0  0  0  0  0  0  0  0  0  0  0
    1.1891    0.6752    0.0000 N   0  0  0  0  0  0  0  0  0  0  0  0
    1.9035    1.0877    0.0000 C   0  0  0  0  0  0  0  0  0  0  0  0
    2.6180    0.6752    0.0000 C   0  0  0  0  0  0  0  0  0  0  0  0
    3.3325    1.0877    0.0000 N   0  0  0  0  0  0  0  0  0  0  0  0
   -2.0813    1.3897    0.0000 O   0  0  0  0  0  0  0  0  0  0  0  0
   -1.6688    2.1042    0.0000 C   0  0  0  0  0  0  0  0  0  0  0  0
   -2.6853    1.3897    0.0000 H   0  0  0  0  0  0  0  0  0  0  0  0
   -3.8122    1.0877    0.0000 H   0  0  0  0  0  0  0  0  0  0  0  0
   -3.5103   -0.0392    0.0000 H   0  0  0  0  0  0  0  0  0  0  0  0
   -1.9708   -0.4517    0.0000 H   0  0  0  0  0  0  0  0  0  0  0  0
   -0.8438   -0.7537    0.0000 H   0  0  0  0  0  0  0  0  0  0  0  0
   -0.5419    0.3733    0.0000 H   0  0  0  0  0  0  0  0  0  0  0  0
   -0.5841    1.8250    0.0000 H   0  0  0  0  0  0  0  0  0  0  0  0
   -1.3246    1.8250    0.0000 H   0  0  0  0  0  0  0  0  0  0  0  0
    0.2623    0.0207    0.0000 H   0  0  0  0  0  0  0  0  0  0  0  0
   -0.2399    1.5002    0.0000 H   0  0  0  0  0  0  0  0  0  0  0  0
    1.1066    1.6180    0.0000 H   0  0  0  0  0  0  0  0  0  0  0  0
    0.6178    1.9002    0.0000 H   0  0  0  0  0  0  0  0  0  0  0  0
    1.1891   -0.1498    0.0000 H   0  0  0  0  0  0  0  0  0  0  0  0
    2.6266    1.4850    0.0000 H   0  0  0  0  0  0  0  0  0  0  0  0
    1.9385    1.9120    0.0000 H   0  0  0  0  0  0  0  0  0  0  0  0
    2.2477   -0.0620    0.0000 H   0  0  0  0  0  0  0  0  0  0  0  0
    2.9883   -0.0620    0.0000 H   0  0  0  0  0  0  0  0  0  0  0  0
    4.0237    0.6373    0.0000 H   0  0  0  0  0  0  0  0  0  0  0  0
    4.0187    1.5457    0.0000 H   0  0  0  0  0  0  0  0  0  0  0  0
   -0.9596    2.5256    0.0000 H   0  0  0  0  0  0  0  0  0  0  0  0
   -1.8188    2.9154    0.0000 H   0  0  0  0  0  0  0  0  0  0  0  0
   -2.4819    2.2440    0.0000 H   0  0  0  0  0  0  0  0  0  0  0  0
  1  2  1  0  0  0  0
  2  3  1  0  0  0  0
  3  4  1  0  0  0  0
  3  5  1  0  0  0  0
  5  6  1  0  0  0  0
  6  7  1  0  0  0  0
  7  8  1  0  0  0  0
  8  9  1  0  0  0  0
  9 10  1  0  0  0  0
 10 11  1  0  0  0  0
  3 12  1  0  0  0  0
 12 13  1  0  0  0  0
  1 14  1  0  0  0  0
  1 15  1  0  0  0  0
  1 16  1  0  0  0  0
  4 17  1  0  0  0  0
  4 18  1  0  0  0  0
  4 19  1  0  0  0  0
  5 20  1  0  0  0  0
  5 21  1  0  0  0  0
  6 22  1  0  0  0  0
  6 23  1  0  0  0  0
  7 24  1  0  0  0  0
  7 25  1  0  0  0  0
  8 26  1  0  0  0  0
  9 27  1  0  0  0  0
  9 28  1  0  0  0  0
 10 29  1  0  0  0  0
 10 30  1  0  0  0  0
 11 31  1  0  0  0  0
 11 32  1  0  0  0  0
 13 33  1  0  0  0  0
 13 34  1  0  0  0  0
 13 35  1  0  0  0  0
M  END
>  <InChIKey>
MQWFLKHKWJMCEN-UHFFFAOYSA-N

>  <UN GHS>
1

>  <CASRN>
3069-29-2

> <Outcome>
1

>  <Index>
493

>  <StandardizerResult>
Clear Stereo (ID: ClearStereo)
Wedge Clean (ID: WedgeClean)
Mesomerize (ID: Mesomerize)
Tautomerize (ID: Tautomerize)
Add Explicit Hydrogens (ID: AddExplicitH)
Neutralize (ID: Neutralize)
Clean 2D (ID: Clean2D)

> <knn Distance>


> <CpId>
493

$$$$
496
  Mrv1532301301811342D          

 18 17  0  0  0  0            999 V2000
    0.1201   -1.2091    0.0000 C   0  0  0  0  0  0  0  0  0  0  0  0
    0.8346   -0.7966    0.0000 C   0  0  0  0  0  0  0  0  0  0  0  0
    0.8346    0.0284    0.0000 C   0  0  0  0  0  0  0  0  0  0  0  0
    0.8346    0.8534    0.0000 C   0  0  0  0  0  0  0  0  0  0  0  0
    1.6596    0.0284    0.0000 C   0  0  0  0  0  0  0  0  0  0  0  0
    0.0096    0.0284    0.0000 O   0  0  0  0  0  0  0  0  0  0  0  0
   -0.2924   -0.4946    0.0000 H   0  0  0  0  0  0  0  0  0  0  0  0
   -0.5944   -1.6216    0.0000 H   0  0  0  0  0  0  0  0  0  0  0  0
    0.5326   -1.9236    0.0000 H   0  0  0  0  0  0  0  0  0  0  0  0
    1.2879   -1.4859    0.0000 H   0  0  0  0  0  0  0  0  0  0  0  0
    1.6582   -0.8446    0.0000 H   0  0  0  0  0  0  0  0  0  0  0  0
    1.6596    0.8534    0.0000 H   0  0  0  0  0  0  0  0  0  0  0  0
    0.8346    1.6784    0.0000 H   0  0  0  0  0  0  0  0  0  0  0  0
    0.0096    0.8534    0.0000 H   0  0  0  0  0  0  0  0  0  0  0  0
    2.2423   -0.5557    0.0000 H   0  0  0  0  0  0  0  0  0  0  0  0
    2.4846    0.0277    0.0000 H   0  0  0  0  0  0  0  0  0  0  0  0
    2.2432    0.6115    0.0000 H   0  0  0  0  0  0  0  0  0  0  0  0
   -0.7873    0.2419    0.0000 H   0  0  0  0  0  0  0  0  0  0  0  0
  1  2  1  0  0  0  0
  2  3  1  0  0  0  0
  3  4  1  0  0  0  0
  3  5  1  0  0  0  0
  3  6  1  0  0  0  0
  1  7  1  0  0  0  0
  1  8  1  0  0  0  0
  1  9  1  0  0  0  0
  2 10  1  0  0  0  0
  2 11  1  0  0  0  0
  4 12  1  0  0  0  0
  4 13  1  0  0  0  0
  4 14  1  0  0  0  0
  5 15  1  0  0  0  0
  5 16  1  0  0  0  0
  5 17  1  0  0  0  0
  6 18  1  0  0  0  0
M  END
>  <InChIKey>
MSXVEPNJUHWQHW-UHFFFAOYSA-N

>  <UN GHS>
2A

>  <CASRN>
75-85-4

> <Outcome>
1

>  <Index>
496

>  <StandardizerResult>
Clear Stereo (ID: ClearStereo)
Wedge Clean (ID: WedgeClean)
Mesomerize (ID: Mesomerize)
Tautomerize (ID: Tautomerize)
Add Explicit Hydrogens (ID: AddExplicitH)
Neutralize (ID: Neutralize)
Clean 2D (ID: Clean2D)

> <knn Distance>


> <CpId>
496

$$$$
497
  Mrv1532301301811342D          

 62 61  0  0  0  0            999 V2000
    3.1626   -4.4147    0.0000 C   0  0  0  0  0  0  0  0  0  0  0  0
    3.1626   -3.5897    0.0000 C   0  0  0  0  0  0  0  0  0  0  0  0
    2.4481   -3.1772    0.0000 C   0  0  0  0  0  0  0  0  0  0  0  0
    2.8606   -2.4627    0.0000 C   0  0  0  0  0  0  0  0  0  0  0  0
    3.6856   -2.4627    0.0000 O   0  0  0  0  0  0  0  0  0  0  0  0
    4.0981   -3.1772    0.0000 C   0  0  0  0  0  0  0  0  0  0  0  0
    4.9231   -3.1772    0.0000 C   0  0  0  0  0  0  0  0  0  0  0  0
    5.3356   -3.8916    0.0000 O   0  0  0  0  0  0  0  0  0  0  0  0
    6.1606   -3.8916    0.0000 C   0  0  0  0  0  0  0  0  0  0  0  0
    6.5731   -3.1772    0.0000 O   0  0  0  0  0  0  0  0  0  0  0  0
    6.5731   -4.6061    0.0000 C   0  0  0  0  0  0  0  0  0  0  0  0
    7.3981   -4.6061    0.0000 C   0  0  0  0  0  0  0  0  0  0  0  0
    2.0356   -3.8916    0.0000 C   0  0  0  0  0  0  0  0  0  0  0  0
    2.4481   -4.6061    0.0000 O   0  0  0  0  0  0  0  0  0  0  0  0
    2.0356   -5.3206    0.0000 C   0  0  0  0  0  0  0  0  0  0  0  0
    2.4481   -6.0351    0.0000 C   0  0  0  0  0  0  0  0  0  0  0  0
    2.0356   -6.7495    0.0000 O   0  0  0  0  0  0  0  0  0  0  0  0
    2.4481   -7.4640    0.0000 C   0  0  0  0  0  0  0  0  0  0  0  0
    3.2731   -7.4640    0.0000 O   0  0  0  0  0  0  0  0  0  0  0  0
    2.0356   -8.1785    0.0000 C   0  0  0  0  0  0  0  0  0  0  0  0
    2.4481   -8.8929    0.0000 C   0  0  0  0  0  0  0  0  0  0  0  0
    1.7336   -2.7647    0.0000 C   0  0  0  0  0  0  0  0  0  0  0  0
    1.7336   -1.9397    0.0000 O   0  0  0  0  0  0  0  0  0  0  0  0
    2.4481   -1.5272    0.0000 C   0  0  0  0  0  0  0  0  0  0  0  0
    3.1626   -1.9397    0.0000 C   0  0  0  0  0  0  0  0  0  0  0  0
    3.8770   -1.5272    0.0000 O   0  0  0  0  0  0  0  0  0  0  0  0
    4.5915   -1.9397    0.0000 C   0  0  0  0  0  0  0  0  0  0  0  0
    4.5915   -2.7647    0.0000 O   0  0  0  0  0  0  0  0  0  0  0  0
    5.3060   -1.5272    0.0000 C   0  0  0  0  0  0  0  0  0  0  0  0
    6.0205   -1.9397    0.0000 C   0  0  0  0  0  0  0  0  0  0  0  0
    3.0016   -5.2238    0.0000 H   0  0  0  0  0  0  0  0  0  0  0  0
    3.8171   -4.9169    0.0000 H   0  0  0  0  0  0  0  0  0  0  0  0
    3.9025   -4.0498    0.0000 H   0  0  0  0  0  0  0  0  0  0  0  0
    3.8050   -3.0721    0.0000 H   0  0  0  0  0  0  0  0  0  0  0  0
    3.3162   -2.7791    0.0000 H   0  0  0  0  0  0  0  0  0  0  0  0
    2.3303   -1.8307    0.0000 H   0  0  0  0  0  0  0  0  0  0  0  0
    2.0481   -2.3194    0.0000 H   0  0  0  0  0  0  0  0  0  0  0  0
    3.3753   -3.5749    0.0000 H   0  0  0  0  0  0  0  0  0  0  0  0
    4.6137   -3.8212    0.0000 H   0  0  0  0  0  0  0  0  0  0  0  0
    5.7256   -2.9857    0.0000 H   0  0  0  0  0  0  0  0  0  0  0  0
    5.3919   -2.4983    0.0000 H   0  0  0  0  0  0  0  0  0  0  0  0
    6.1606   -5.3206    0.0000 H   0  0  0  0  0  0  0  0  0  0  0  0
    7.8106   -5.3206    0.0000 H   0  0  0  0  0  0  0  0  0  0  0  0
    7.8106   -3.8916    0.0000 H   0  0  0  0  0  0  0  0  0  0  0  0
    1.2984   -3.5214    0.0000 H   0  0  0  0  0  0  0  0  0  0  0  0
    1.2984   -4.2619    0.0000 H   0  0  0  0  0  0  0  0  0  0  0  0
    1.2984   -4.9503    0.0000 H   0  0  0  0  0  0  0  0  0  0  0  0
    1.2984   -5.6908    0.0000 H   0  0  0  0  0  0  0  0  0  0  0  0
    3.1853   -6.4053    0.0000 H   0  0  0  0  0  0  0  0  0  0  0  0
    3.1853   -5.6648    0.0000 H   0  0  0  0  0  0  0  0  0  0  0  0
    1.2106   -8.1785    0.0000 H   0  0  0  0  0  0  0  0  0  0  0  0
    2.0356   -9.6074    0.0000 H   0  0  0  0  0  0  0  0  0  0  0  0
    3.2731   -8.8929    0.0000 H   0  0  0  0  0  0  0  0  0  0  0  0
    1.1014   -2.2347    0.0000 H   0  0  0  0  0  0  0  0  0  0  0  0
    0.9213   -2.9088    0.0000 H   0  0  0  0  0  0  0  0  0  0  0  0
    2.8184   -0.7899    0.0000 H   0  0  0  0  0  0  0  0  0  0  0  0
    2.0778   -0.7899    0.0000 H   0  0  0  0  0  0  0  0  0  0  0  0
    3.4447   -1.1644    0.0000 H   0  0  0  0  0  0  0  0  0  0  0  0
    2.8804   -1.1644    0.0000 H   0  0  0  0  0  0  0  0  0  0  0  0
    5.3060   -0.7022    0.0000 H   0  0  0  0  0  0  0  0  0  0  0  0
    6.7605   -2.3043    0.0000 H   0  0  0  0  0  0  0  0  0  0  0  0
    6.6718   -1.4334    0.0000 H   0  0  0  0  0  0  0  0  0  0  0  0
  1  2  1  0  0  0  0
  2  3  1  0  0  0  0
  3  4  1  0  0  0  0
  4  5  1  0  0  0  0
  5  6  1  0  0  0  0
  6  7  1  0  0  0  0
  7  8  1  0  0  0  0
  8  9  1  0  0  0  0
  9 10  2  0  0  0  0
  9 11  1  0  0  0  0
 11 12  2  0  0  0  0
  3 13  1  0  0  0  0
 13 14  1  0  0  0  0
 14 15  1  0  0  0  0
 15 16  1  0  0  0  0
 16 17  1  0  0  0  0
 17 18  1  0  0  0  0
 18 19  2  0  0  0  0
 18 20  1  0  0  0  0
 20 21  2  0  0  0  0
  3 22  1  0  0  0  0
 22 23  1  0  0  0  0
 23 24  1  0  0  0  0
 24 25  1  0  0  0  0
 25 26  1  0  0  0  0
 26 27  1  0  0  0  0
 27 28  2  0  0  0  0
 27 29  1  0  0  0  0
 29 30  2  0  0  0  0
  1 31  1  0  0  0  0
  1 32  1  0  0  0  0
  1 33  1  0  0  0  0
  2 34  1  0  0  0  0
  2 35  1  0  0  0  0
  4 36  1  0  0  0  0
  4 37  1  0  0  0  0
  6 38  1  0  0  0  0
  6 39  1  0  0  0  0
  7 40  1  0  0  0  0
  7 41  1  0  0  0  0
 11 42  1  0  0  0  0
 12 43  1  0  0  0  0
 12 44  1  0  0  0  0
 13 45  1  0  0  0  0
 13 46  1  0  0  0  0
 15 47  1  0  0  0  0
 15 48  1  0  0  0  0
 16 49  1  0  0  0  0
 16 50  1  0  0  0  0
 20 51  1  0  0  0  0
 21 52  1  0  0  0  0
 21 53  1  0  0  0  0
 22 54  1  0  0  0  0
 22 55  1  0  0  0  0
 24 56  1  0  0  0  0
 24 57  1  0  0  0  0
 25 58  1  0  0  0  0
 25 59  1  0  0  0  0
 29 60  1  0  0  0  0
 30 61  1  0  0  0  0
 30 62  1  0  0  0  0
M  END
>  <InChIKey>
MTPIZGPBYCHTGQ-UHFFFAOYSA-N

>  <UN GHS>
2A

>  <CASRN>
28961-43-5

> <Outcome>
1

>  <Index>
497

>  <StandardizerResult>
Clear Stereo (ID: ClearStereo)
Wedge Clean (ID: WedgeClean)
Mesomerize (ID: Mesomerize)
Tautomerize (ID: Tautomerize)
Add Explicit Hydrogens (ID: AddExplicitH)
Neutralize (ID: Neutralize)
Clean 2D (ID: Clean2D)

> <knn Distance>


> <CpId>
497

$$$$
500
  Mrv1532301301811342D          

 20 19  0  0  0  0            999 V2000
    1.0461    1.4289    0.0000 C   0  0  0  0  0  0  0  0  0  0  0  0
    1.7605    1.8414    0.0000 O   0  0  0  0  0  0  0  0  0  0  0  0
    2.4750    1.4289    0.0000 C   0  0  0  0  0  0  0  0  0  0  0  0
    2.4750    0.6039    0.0000 O   0  0  0  0  0  0  0  0  0  0  0  0
    3.1895    1.8414    0.0000 C   0  0  0  0  0  0  0  0  0  0  0  0
    3.9040    1.4289    0.0000 C   0  0  0  0  0  0  0  0  0  0  0  0
    4.6184    1.8414    0.0000 C   0  0  0  0  0  0  0  0  0  0  0  0
    4.6184    2.6664    0.0000 O   0  0  0  0  0  0  0  0  0  0  0  0
    5.3329    1.4289    0.0000 O   0  0  0  0  0  0  0  0  0  0  0  0
    6.0474    1.8414    0.0000 C   0  0  0  0  0  0  0  0  0  0  0  0
    0.6336    2.1434    0.0000 H   0  0  0  0  0  0  0  0  0  0  0  0
    0.3316    1.0164    0.0000 H   0  0  0  0  0  0  0  0  0  0  0  0
    1.4586    0.7144    0.0000 H   0  0  0  0  0  0  0  0  0  0  0  0
    3.5597    2.5786    0.0000 H   0  0  0  0  0  0  0  0  0  0  0  0
    2.8192    2.5786    0.0000 H   0  0  0  0  0  0  0  0  0  0  0  0
    3.5337    0.6917    0.0000 H   0  0  0  0  0  0  0  0  0  0  0  0
    4.2742    0.6917    0.0000 H   0  0  0  0  0  0  0  0  0  0  0  0
    6.4599    1.1269    0.0000 H   0  0  0  0  0  0  0  0  0  0  0  0
    6.7618    2.2539    0.0000 H   0  0  0  0  0  0  0  0  0  0  0  0
    5.6349    2.5559    0.0000 H   0  0  0  0  0  0  0  0  0  0  0  0
  1  2  1  0  0  0  0
  2  3  1  0  0  0  0
  3  4  2  0  0  0  0
  3  5  1  0  0  0  0
  5  6  1  0  0  0  0
  6  7  1  0  0  0  0
  7  8  2  0  0  0  0
  7  9  1  0  0  0  0
  9 10  1  0  0  0  0
  1 11  1  0  0  0  0
  1 12  1  0  0  0  0
  1 13  1  0  0  0  0
  5 14  1  0  0  0  0
  5 15  1  0  0  0  0
  6 16  1  0  0  0  0
  6 17  1  0  0  0  0
 10 18  1  0  0  0  0
 10 19  1  0  0  0  0
 10 20  1  0  0  0  0
M  END
>  <InChIKey>
MUXOBHXGJLMRAB-UHFFFAOYSA-N

>  <UN GHS>
2B

>  <CASRN>
106-65-0

> <Outcome>
1

>  <Index>
500

>  <StandardizerResult>
Clear Stereo (ID: ClearStereo)
Wedge Clean (ID: WedgeClean)
Mesomerize (ID: Mesomerize)
Tautomerize (ID: Tautomerize)
Add Explicit Hydrogens (ID: AddExplicitH)
Neutralize (ID: Neutralize)
Clean 2D (ID: Clean2D)

> <knn Distance>


> <CpId>
500

$$$$
502
  Mrv1532301301811342D          

 19 19  0  0  0  0            999 V2000
    0.0043    2.4645    0.0000 C   0  0  0  0  0  0  0  0  0  0  0  0
    0.7188    2.0520    0.0000 O   0  0  0  0  0  0  0  0  0  0  0  0
    0.7188    1.2270    0.0000 C   0  0  0  0  0  0  0  0  0  0  0  0
    1.4333    0.8145    0.0000 C   0  0  0  0  0  0  0  0  0  0  0  0
    1.4333   -0.0105    0.0000 C   0  0  0  0  0  0  0  0  0  0  0  0
    2.1477   -0.4230    0.0000 C   0  0  0  0  0  0  0  0  0  0  0  0
    2.8622   -0.0105    0.0000 O   0  0  0  0  0  0  0  0  0  0  0  0
    0.7188   -0.4230    0.0000 C   0  0  0  0  0  0  0  0  0  0  0  0
    0.0043   -0.0105    0.0000 C   0  0  0  0  0  0  0  0  0  0  0  0
    0.0043    0.8145    0.0000 C   0  0  0  0  0  0  0  0  0  0  0  0
   -0.7101    1.2270    0.0000 O   0  0  0  0  0  0  0  0  0  0  0  0
    0.4168    3.1790    0.0000 H   0  0  0  0  0  0  0  0  0  0  0  0
   -0.7101    2.8770    0.0000 H   0  0  0  0  0  0  0  0  0  0  0  0
   -0.4082    1.7501    0.0000 H   0  0  0  0  0  0  0  0  0  0  0  0
    2.1477    1.2270    0.0000 H   0  0  0  0  0  0  0  0  0  0  0  0
    2.1477   -1.2480    0.0000 H   0  0  0  0  0  0  0  0  0  0  0  0
    0.7188   -1.2480    0.0000 H   0  0  0  0  0  0  0  0  0  0  0  0
   -0.7101   -0.4230    0.0000 H   0  0  0  0  0  0  0  0  0  0  0  0
   -1.5070    1.0135    0.0000 H   0  0  0  0  0  0  0  0  0  0  0  0
  1  2  1  0  0  0  0
  2  3  1  0  0  0  0
  3  4  4  0  0  0  0
  4  5  4  0  0  0  0
  5  6  1  0  0  0  0
  6  7  2  0  0  0  0
  5  8  4  0  0  0  0
  8  9  4  0  0  0  0
  9 10  4  0  0  0  0
  3 10  4  0  0  0  0
 10 11  1  0  0  0  0
  1 12  1  0  0  0  0
  1 13  1  0  0  0  0
  1 14  1  0  0  0  0
  4 15  1  0  0  0  0
  6 16  1  0  0  0  0
  8 17  1  0  0  0  0
  9 18  1  0  0  0  0
 11 19  1  0  0  0  0
M  END
>  <InChIKey>
MWOOGOJBHIARFG-UHFFFAOYSA-N

>  <UN GHS>
2A

>  <CASRN>
121-33-5

> <Outcome>
1

>  <Index>
502

>  <StandardizerResult>
Dearomatize (ID: Dearomatize)
Clear Stereo (ID: ClearStereo)
Wedge Clean (ID: WedgeClean)
Mesomerize (ID: Mesomerize)
Tautomerize (ID: Tautomerize)
Aromatize (ID: Aromatize)
Add Explicit Hydrogens (ID: AddExplicitH)
Neutralize (ID: Neutralize)
Clean 2D (ID: Clean2D)

> <knn Distance>


> <CpId>
502

$$$$
503
  Mrv1532301301811342D          

 38 38  0  0  0  0            999 V2000
    1.4339   -4.1159    0.0000 C   0  0  0  0  0  0  0  0  0  0  0  0
    2.1484   -3.7034    0.0000 C   0  0  0  0  0  0  0  0  0  0  0  0
    2.8629   -4.1159    0.0000 C   0  0  0  0  0  0  0  0  0  0  0  0
    3.5773   -3.7034    0.0000 C   0  0  0  0  0  0  0  0  0  0  0  0
    4.2918   -4.1159    0.0000 C   0  0  0  0  0  0  0  0  0  0  0  0
    5.0063   -3.7034    0.0000 O   0  0  0  0  0  0  0  0  0  0  0  0
    5.7207   -4.1159    0.0000 C   0  0  0  0  0  0  0  0  0  0  0  0
    6.4352   -3.7034    0.0000 O   0  0  0  0  0  0  0  0  0  0  0  0
    7.1497   -4.1159    0.0000 C   0  0  0  0  0  0  0  0  0  0  0  0
    7.8641   -3.7034    0.0000 C   0  0  0  0  0  0  0  0  0  0  0  0
    7.1497   -4.9409    0.0000 C   0  0  0  0  0  0  0  0  0  0  0  0
    7.8641   -5.3534    0.0000 O   0  0  0  0  0  0  0  0  0  0  0  0
    6.4352   -5.3534    0.0000 C   0  0  0  0  0  0  0  0  0  0  0  0
    6.4352   -6.1784    0.0000 O   0  0  0  0  0  0  0  0  0  0  0  0
    5.7207   -4.9409    0.0000 C   0  0  0  0  0  0  0  0  0  0  0  0
    5.0063   -5.3534    0.0000 O   0  0  0  0  0  0  0  0  0  0  0  0
    1.0214   -3.4014    0.0000 H   0  0  0  0  0  0  0  0  0  0  0  0
    0.7194   -4.5284    0.0000 H   0  0  0  0  0  0  0  0  0  0  0  0
    1.8464   -4.8304    0.0000 H   0  0  0  0  0  0  0  0  0  0  0  0
    2.5186   -2.9662    0.0000 H   0  0  0  0  0  0  0  0  0  0  0  0
    1.7781   -2.9662    0.0000 H   0  0  0  0  0  0  0  0  0  0  0  0
    2.4926   -4.8532    0.0000 H   0  0  0  0  0  0  0  0  0  0  0  0
    3.2331   -4.8532    0.0000 H   0  0  0  0  0  0  0  0  0  0  0  0
    3.9476   -2.9662    0.0000 H   0  0  0  0  0  0  0  0  0  0  0  0
    3.2071   -2.9662    0.0000 H   0  0  0  0  0  0  0  0  0  0  0  0
    3.9215   -4.8532    0.0000 H   0  0  0  0  0  0  0  0  0  0  0  0
    4.6621   -4.8532    0.0000 H   0  0  0  0  0  0  0  0  0  0  0  0
    5.0063   -4.5284    0.0000 H   0  0  0  0  0  0  0  0  0  0  0  0
    7.8641   -4.5284    0.0000 H   0  0  0  0  0  0  0  0  0  0  0  0
    8.6610   -3.9169    0.0000 H   0  0  0  0  0  0  0  0  0  0  0  0
    8.2766   -2.9889    0.0000 H   0  0  0  0  0  0  0  0  0  0  0  0
    7.2808   -3.1200    0.0000 H   0  0  0  0  0  0  0  0  0  0  0  0
    7.1497   -5.7659    0.0000 H   0  0  0  0  0  0  0  0  0  0  0  0
    8.5786   -5.7659    0.0000 H   0  0  0  0  0  0  0  0  0  0  0  0
    5.7207   -5.7659    0.0000 H   0  0  0  0  0  0  0  0  0  0  0  0
    6.4352   -7.0034    0.0000 H   0  0  0  0  0  0  0  0  0  0  0  0
    6.4352   -4.5284    0.0000 H   0  0  0  0  0  0  0  0  0  0  0  0
    4.4464   -5.9594    0.0000 H   0  0  0  0  0  0  0  0  0  0  0  0
  1  2  1  0  0  0  0
  2  3  1  0  0  0  0
  3  4  1  0  0  0  0
  4  5  1  0  0  0  0
  5  6  1  0  0  0  0
  6  7  1  0  0  0  0
  7  8  1  0  0  0  0
  8  9  1  0  0  0  0
  9 10  1  0  0  0  0
  9 11  1  0  0  0  0
 11 12  1  0  0  0  0
 11 13  1  0  0  0  0
 13 14  1  0  0  0  0
 13 15  1  0  0  0  0
  7 15  1  0  0  0  0
 15 16  1  0  0  0  0
  1 17  1  0  0  0  0
  1 18  1  0  0  0  0
  1 19  1  0  0  0  0
  2 20  1  0  0  0  0
  2 21  1  0  0  0  0
  3 22  1  0  0  0  0
  3 23  1  0  0  0  0
  4 24  1  0  0  0  0
  4 25  1  0  0  0  0
  5 26  1  0  0  0  0
  5 27  1  0  0  0  0
  7 28  1  0  0  0  0
  9 29  1  0  0  0  0
 10 30  1  0  0  0  0
 10 31  1  0  0  0  0
 10 32  1  0  0  0  0
 11 33  1  0  0  0  0
 12 34  1  0  0  0  0
 13 35  1  0  0  0  0
 14 36  1  0  0  0  0
 15 37  1  0  0  0  0
 16 38  1  0  0  0  0
M  END
>  <InChIKey>
MXMLDYZVUZXDAF-FBDQPXRJSA-N

>  <UN GHS>
2A

>  <CASRN>
83161-22-2

> <Outcome>
1

>  <Index>
503

>  <StandardizerResult>
Clear Stereo (ID: ClearStereo)
Wedge Clean (ID: WedgeClean)
Mesomerize (ID: Mesomerize)
Tautomerize (ID: Tautomerize)
Add Explicit Hydrogens (ID: AddExplicitH)
Neutralize (ID: Neutralize)
Clean 2D (ID: Clean2D)

> <knn Distance>


> <CpId>
503

$$$$
505
  Mrv1532301301811342D          

 55 55  0  0  0  0            999 V2000
    2.2336    3.7566    0.0000 C   0  0  0  0  0  0  0  0  0  0  0  0
    2.2336    2.9316    0.0000 C   0  0  0  0  0  0  0  0  0  0  0  0
    2.9480    2.5191    0.0000 C   0  0  0  0  0  0  0  0  0  0  0  0
    2.9480    1.6941    0.0000 C   0  0  0  0  0  0  0  0  0  0  0  0
    3.7605    1.8374    0.0000 C   0  0  0  0  0  0  0  0  0  0  0  0
    3.2302    0.9189    0.0000 C   0  0  0  0  0  0  0  0  0  0  0  0
    2.2336    1.2816    0.0000 C   0  0  0  0  0  0  0  0  0  0  0  0
    1.5191    1.6941    0.0000 C   0  0  0  0  0  0  0  0  0  0  0  0
    1.5191    2.5191    0.0000 C   0  0  0  0  0  0  0  0  0  0  0  0
    1.0819    0.9945    0.0000 O   0  0  0  0  0  0  0  0  0  0  0  0
    0.2574    1.0233    0.0000 O   0  0  0  0  0  0  0  0  0  0  0  0
   -0.1798    0.3236    0.0000 C   0  0  0  0  0  0  0  0  0  0  0  0
   -0.6169   -0.3760    0.0000 C   0  0  0  0  0  0  0  0  0  0  0  0
    0.5199   -0.1136    0.0000 C   0  0  0  0  0  0  0  0  0  0  0  0
   -0.8794    0.7608    0.0000 C   0  0  0  0  0  0  0  0  0  0  0  0
    0.6946    1.6653    0.0000 O   0  0  0  0  0  0  0  0  0  0  0  0
    0.2574    2.3650    0.0000 O   0  0  0  0  0  0  0  0  0  0  0  0
   -0.5671    2.3362    0.0000 C   0  0  0  0  0  0  0  0  0  0  0  0
   -1.3916    2.3074    0.0000 C   0  0  0  0  0  0  0  0  0  0  0  0
   -0.5959    3.1607    0.0000 C   0  0  0  0  0  0  0  0  0  0  0  0
   -0.5383    1.5117    0.0000 C   0  0  0  0  0  0  0  0  0  0  0  0
    3.0586    3.7566    0.0000 H   0  0  0  0  0  0  0  0  0  0  0  0
    2.2336    4.5816    0.0000 H   0  0  0  0  0  0  0  0  0  0  0  0
    1.4086    3.7566    0.0000 H   0  0  0  0  0  0  0  0  0  0  0  0
    1.5191    3.3441    0.0000 H   0  0  0  0  0  0  0  0  0  0  0  0
    3.7716    2.5671    0.0000 H   0  0  0  0  0  0  0  0  0  0  0  0
    3.4014    3.2084    0.0000 H   0  0  0  0  0  0  0  0  0  0  0  0
    3.5439    1.0413    0.0000 H   0  0  0  0  0  0  0  0  0  0  0  0
    4.3884    1.3023    0.0000 H   0  0  0  0  0  0  0  0  0  0  0  0
    4.5122    2.1774    0.0000 H   0  0  0  0  0  0  0  0  0  0  0  0
    2.4058    0.9501    0.0000 H   0  0  0  0  0  0  0  0  0  0  0  0
    2.8902    0.1672    0.0000 H   0  0  0  0  0  0  0  0  0  0  0  0
    3.7980    0.3203    0.0000 H   0  0  0  0  0  0  0  0  0  0  0  0
    1.6374    0.7113    0.0000 H   0  0  0  0  0  0  0  0  0  0  0  0
    2.2336    2.1066    0.0000 H   0  0  0  0  0  0  0  0  0  0  0  0
    0.7439    2.8013    0.0000 H   0  0  0  0  0  0  0  0  0  0  0  0
    0.7439    2.2369    0.0000 H   0  0  0  0  0  0  0  0  0  0  0  0
   -1.3166    0.0612    0.0000 H   0  0  0  0  0  0  0  0  0  0  0  0
   -1.0541   -1.0757    0.0000 H   0  0  0  0  0  0  0  0  0  0  0  0
    0.0827   -0.8132    0.0000 H   0  0  0  0  0  0  0  0  0  0  0  0
    0.9990   -0.7852    0.0000 H   0  0  0  0  0  0  0  0  0  0  0  0
    1.3237    0.0720    0.0000 H   0  0  0  0  0  0  0  0  0  0  0  0
    0.6560    0.7001    0.0000 H   0  0  0  0  0  0  0  0  0  0  0  0
   -1.1436    1.5424    0.0000 H   0  0  0  0  0  0  0  0  0  0  0  0
   -1.6064    1.1509    0.0000 H   0  0  0  0  0  0  0  0  0  0  0  0
   -1.6767    0.5488    0.0000 H   0  0  0  0  0  0  0  0  0  0  0  0
   -1.1571    3.0984    0.0000 H   0  0  0  0  0  0  0  0  0  0  0  0
   -2.0672    2.7808    0.0000 H   0  0  0  0  0  0  0  0  0  0  0  0
   -2.0550    1.8170    0.0000 H   0  0  0  0  0  0  0  0  0  0  0  0
    0.1822    2.8864    0.0000 H   0  0  0  0  0  0  0  0  0  0  0  0
   -0.0564    3.7849    0.0000 H   0  0  0  0  0  0  0  0  0  0  0  0
   -0.9800    3.8908    0.0000 H   0  0  0  0  0  0  0  0  0  0  0  0
    0.2751    1.6498    0.0000 H   0  0  0  0  0  0  0  0  0  0  0  0
   -0.0171    2.1512    0.0000 H   0  0  0  0  0  0  0  0  0  0  0  0
   -0.2969    0.7228    0.0000 H   0  0  0  0  0  0  0  0  0  0  0  0
  1  2  1  0  0  0  0
  2  3  1  0  0  0  0
  3  4  1  0  0  0  0
  4  5  1  0  0  0  0
  4  6  1  0  0  0  0
  4  7  1  0  0  0  0
  7  8  1  0  0  0  0
  8  9  1  0  0  0  0
  2  9  1  0  0  0  0
  8 10  1  0  0  0  0
 10 11  1  0  0  0  0
 11 12  1  0  0  0  0
 12 13  1  0  0  0  0
 12 14  1  0  0  0  0
 12 15  1  0  0  0  0
  8 16  1  0  0  0  0
 16 17  1  0  0  0  0
 17 18  1  0  0  0  0
 18 19  1  0  0  0  0
 18 20  1  0  0  0  0
 18 21  1  0  0  0  0
  1 22  1  0  0  0  0
  1 23  1  0  0  0  0
  1 24  1  0  0  0  0
  2 25  1  0  0  0  0
  3 26  1  0  0  0  0
  3 27  1  0  0  0  0
  5 28  1  0  0  0  0
  5 29  1  0  0  0  0
  5 30  1  0  0  0  0
  6 31  1  0  0  0  0
  6 32  1  0  0  0  0
  6 33  1  0  0  0  0
  7 34  1  0  0  0  0
  7 35  1  0  0  0  0
  9 36  1  0  0  0  0
  9 37  1  0  0  0  0
 13 38  1  0  0  0  0
 13 39  1  0  0  0  0
 13 40  1  0  0  0  0
 14 41  1  0  0  0  0
 14 42  1  0  0  0  0
 14 43  1  0  0  0  0
 15 44  1  0  0  0  0
 15 45  1  0  0  0  0
 15 46  1  0  0  0  0
 19 47  1  0  0  0  0
 19 48  1  0  0  0  0
 19 49  1  0  0  0  0
 20 50  1  0  0  0  0
 20 51  1  0  0  0  0
 20 52  1  0  0  0  0
 21 53  1  0  0  0  0
 21 54  1  0  0  0  0
 21 55  1  0  0  0  0
M  END
>  <InChIKey>
NALFRYPTRXKZPN-UHFFFAOYSA-N

>  <UN GHS>
2B

>  <CASRN>
6731-36-8

> <Outcome>
1

>  <Index>
505

>  <StandardizerResult>
Clear Stereo (ID: ClearStereo)
Wedge Clean (ID: WedgeClean)
Mesomerize (ID: Mesomerize)
Tautomerize (ID: Tautomerize)
Add Explicit Hydrogens (ID: AddExplicitH)
Neutralize (ID: Neutralize)
Clean 2D (ID: Clean2D)

> <knn Distance>


> <CpId>
505

$$$$
506
  Mrv1532301301811342D          

 10  9  0  0  0  0            999 V2000
    2.0634   -0.7130    0.0000 C   0  0  0  0  0  0  0  0  0  0  0  0
    1.2384   -0.7130    0.0000 C   0  0  0  0  0  0  0  0  0  0  0  0
    0.8259    0.0015    0.0000 C   0  0  0  0  0  0  0  0  0  0  0  0
    0.0009    0.0015    0.0000 O   0  0  0  0  0  0  0  0  0  0  0  0
    2.0634   -1.5380    0.0000 H   0  0  0  0  0  0  0  0  0  0  0  0
    2.8884   -0.7130    0.0000 H   0  0  0  0  0  0  0  0  0  0  0  0
    2.0634    0.1120    0.0000 H   0  0  0  0  0  0  0  0  0  0  0  0
    0.5491   -1.1663    0.0000 H   0  0  0  0  0  0  0  0  0  0  0  0
    1.1904   -1.5366    0.0000 H   0  0  0  0  0  0  0  0  0  0  0  0
    1.2384    0.7160    0.0000 H   0  0  0  0  0  0  0  0  0  0  0  0
  1  2  1  0  0  0  0
  2  3  1  0  0  0  0
  3  4  2  0  0  0  0
  1  5  1  0  0  0  0
  1  6  1  0  0  0  0
  1  7  1  0  0  0  0
  2  8  1  0  0  0  0
  2  9  1  0  0  0  0
  3 10  1  0  0  0  0
M  END
>  <InChIKey>
NBBJYMSMWIIQGU-UHFFFAOYSA-N

>  <UN GHS>
1

>  <CASRN>
123-38-6

> <Outcome>
1

>  <Index>
506

>  <StandardizerResult>
Clear Stereo (ID: ClearStereo)
Wedge Clean (ID: WedgeClean)
Mesomerize (ID: Mesomerize)
Tautomerize (ID: Tautomerize)
Add Explicit Hydrogens (ID: AddExplicitH)
Neutralize (ID: Neutralize)
Clean 2D (ID: Clean2D)

> <knn Distance>


> <CpId>
506

$$$$
508
  Mrv1532301301811342D          

 20 20  0  0  0  0            999 V2000
    1.4289    2.4750    0.0000 O   0  0  0  0  0  0  0  0  0  0  0  0
    0.7145    2.0625    0.0000 C   0  0  0  0  0  0  0  0  0  0  0  0
   -0.0000    2.4750    0.0000 O   0  0  0  0  0  0  0  0  0  0  0  0
    0.7145    1.2375    0.0000 C   0  0  0  0  0  0  0  0  0  0  0  0
    1.4289    0.8250    0.0000 C   0  0  0  0  0  0  0  0  0  0  0  0
    1.4289    0.0000    0.0000 C   0  0  0  0  0  0  0  0  0  0  0  0
    0.7145   -0.4125    0.0000 C   0  0  0  0  0  0  0  0  0  0  0  0
   -0.0000    0.0000    0.0000 C   0  0  0  0  0  0  0  0  0  0  0  0
   -0.0000    0.8250    0.0000 C   0  0  0  0  0  0  0  0  0  0  0  0
   -0.7145   -0.4125    0.0000 N   0  0  0  0  0  0  0  0  0  0  0  0
   -0.7145   -1.2375    0.0000 O   0  0  0  0  0  0  0  0  0  0  0  0
   -1.4289    0.0000    0.0000 O   0  0  0  0  0  0  0  0  0  0  0  0
    2.1434   -0.4125    0.0000 C   0  0  0  0  0  0  0  0  0  0  0  0
    2.1434   -1.2375    0.0000 O   0  0  0  0  0  0  0  0  0  0  0  0
    2.8579    0.0000    0.0000 O   0  0  0  0  0  0  0  0  0  0  0  0
    2.1434    2.0625    0.0000 H   0  0  0  0  0  0  0  0  0  0  0  0
    2.1434    1.2375    0.0000 H   0  0  0  0  0  0  0  0  0  0  0  0
    0.7145   -1.2375    0.0000 H   0  0  0  0  0  0  0  0  0  0  0  0
   -0.7145    1.2375    0.0000 H   0  0  0  0  0  0  0  0  0  0  0  0
    1.4289   -1.6500    0.0000 H   0  0  0  0  0  0  0  0  0  0  0  0
  1  2  1  0  0  0  0
  2  3  2  0  0  0  0
  2  4  1  0  0  0  0
  4  5  4  0  0  0  0
  5  6  4  0  0  0  0
  6  7  4  0  0  0  0
  7  8  4  0  0  0  0
  8  9  4  0  0  0  0
  4  9  4  0  0  0  0
  8 10  1  0  0  0  0
 10 11  2  0  0  0  0
 10 12  2  0  0  0  0
  6 13  1  0  0  0  0
 13 14  1  0  0  0  0
 13 15  2  0  0  0  0
  1 16  1  0  0  0  0
  5 17  1  0  0  0  0
  7 18  1  0  0  0  0
  9 19  1  0  0  0  0
 14 20  1  0  0  0  0
M  END
>  <InChIKey>
NBDAHKQJXVLAID-UHFFFAOYSA-N

>  <UN GHS>
2A

>  <CASRN>
618-88-2

> <Outcome>
1

>  <Index>
508

>  <StandardizerResult>
Dearomatize (ID: Dearomatize)
Clear Stereo (ID: ClearStereo)
Wedge Clean (ID: WedgeClean)
Mesomerize (ID: Mesomerize)
Tautomerize (ID: Tautomerize)
Aromatize (ID: Aromatize)
Add Explicit Hydrogens (ID: AddExplicitH)
Neutralize (ID: Neutralize)
Clean 2D (ID: Clean2D)

> <knn Distance>


> <CpId>
508

$$$$
510
  Mrv1532301301811342D          

 35 34  0  0  0  0            999 V2000
    4.2506    3.2583    0.0000 C   0  0  0  0  0  0  0  0  0  0  0  0
    4.9651    2.8458    0.0000 N   0  0  0  0  0  0  0  0  0  0  0  0
    4.9651    2.0208    0.0000 C   0  0  0  0  0  0  0  0  0  0  0  0
    5.6796    3.2583    0.0000 C   0  0  0  0  0  0  0  0  0  0  0  0
    6.3940    2.8458    0.0000 C   0  0  0  0  0  0  0  0  0  0  0  0
    7.1085    3.2583    0.0000 O   0  0  0  0  0  0  0  0  0  0  0  0
    7.8230    2.8458    0.0000 C   0  0  0  0  0  0  0  0  0  0  0  0
    8.5375    3.2583    0.0000 C   0  0  0  0  0  0  0  0  0  0  0  0
    9.2519    2.8458    0.0000 N   0  0  0  0  0  0  0  0  0  0  0  0
    9.2519    2.0208    0.0000 C   0  0  0  0  0  0  0  0  0  0  0  0
    9.9664    3.2583    0.0000 C   0  0  0  0  0  0  0  0  0  0  0  0
   10.6809    2.8458    0.0000 C   0  0  0  0  0  0  0  0  0  0  0  0
   11.3953    3.2583    0.0000 O   0  0  0  0  0  0  0  0  0  0  0  0
    4.6631    3.9728    0.0000 H   0  0  0  0  0  0  0  0  0  0  0  0
    3.5362    3.6708    0.0000 H   0  0  0  0  0  0  0  0  0  0  0  0
    3.8381    2.5438    0.0000 H   0  0  0  0  0  0  0  0  0  0  0  0
    4.1401    2.0208    0.0000 H   0  0  0  0  0  0  0  0  0  0  0  0
    4.9651    1.1958    0.0000 H   0  0  0  0  0  0  0  0  0  0  0  0
    5.7901    2.0208    0.0000 H   0  0  0  0  0  0  0  0  0  0  0  0
    6.0498    3.9956    0.0000 H   0  0  0  0  0  0  0  0  0  0  0  0
    5.3093    3.9956    0.0000 H   0  0  0  0  0  0  0  0  0  0  0  0
    6.0238    2.1086    0.0000 H   0  0  0  0  0  0  0  0  0  0  0  0
    6.7643    2.1086    0.0000 H   0  0  0  0  0  0  0  0  0  0  0  0
    7.4527    2.1086    0.0000 H   0  0  0  0  0  0  0  0  0  0  0  0
    8.1932    2.1086    0.0000 H   0  0  0  0  0  0  0  0  0  0  0  0
    8.9077    3.9956    0.0000 H   0  0  0  0  0  0  0  0  0  0  0  0
    8.1672    3.9956    0.0000 H   0  0  0  0  0  0  0  0  0  0  0  0
    8.4269    2.0208    0.0000 H   0  0  0  0  0  0  0  0  0  0  0  0
    9.2519    1.1958    0.0000 H   0  0  0  0  0  0  0  0  0  0  0  0
   10.0769    2.0208    0.0000 H   0  0  0  0  0  0  0  0  0  0  0  0
   10.3367    3.9956    0.0000 H   0  0  0  0  0  0  0  0  0  0  0  0
    9.5961    3.9956    0.0000 H   0  0  0  0  0  0  0  0  0  0  0  0
   10.3106    2.1086    0.0000 H   0  0  0  0  0  0  0  0  0  0  0  0
   11.0511    2.1086    0.0000 H   0  0  0  0  0  0  0  0  0  0  0  0
   12.1098    2.8458    0.0000 H   0  0  0  0  0  0  0  0  0  0  0  0
  1  2  1  0  0  0  0
  2  3  1  0  0  0  0
  2  4  1  0  0  0  0
  4  5  1  0  0  0  0
  5  6  1  0  0  0  0
  6  7  1  0  0  0  0
  7  8  1  0  0  0  0
  8  9  1  0  0  0  0
  9 10  1  0  0  0  0
  9 11  1  0  0  0  0
 11 12  1  0  0  0  0
 12 13  1  0  0  0  0
  1 14  1  0  0  0  0
  1 15  1  0  0  0  0
  1 16  1  0  0  0  0
  3 17  1  0  0  0  0
  3 18  1  0  0  0  0
  3 19  1  0  0  0  0
  4 20  1  0  0  0  0
  4 21  1  0  0  0  0
  5 22  1  0  0  0  0
  5 23  1  0  0  0  0
  7 24  1  0  0  0  0
  7 25  1  0  0  0  0
  8 26  1  0  0  0  0
  8 27  1  0  0  0  0
 10 28  1  0  0  0  0
 10 29  1  0  0  0  0
 10 30  1  0  0  0  0
 11 31  1  0  0  0  0
 11 32  1  0  0  0  0
 12 33  1  0  0  0  0
 12 34  1  0  0  0  0
 13 35  1  0  0  0  0
M  END
>  <InChIKey>
NCUPDIHWMQEDPR-UHFFFAOYSA-N

>  <UN GHS>
1

>  <CASRN>
83016-70-0

> <Outcome>
1

>  <Index>
510

>  <StandardizerResult>
Clear Stereo (ID: ClearStereo)
Wedge Clean (ID: WedgeClean)
Mesomerize (ID: Mesomerize)
Tautomerize (ID: Tautomerize)
Add Explicit Hydrogens (ID: AddExplicitH)
Neutralize (ID: Neutralize)
Clean 2D (ID: Clean2D)

> <knn Distance>


> <CpId>
510

$$$$
511
  Mrv1532301301811342D          

 20 19  0  0  0  0            999 V2000
    1.2517    2.1998    0.0000 C   0  0  0  0  0  0  0  0  0  0  0  0
    0.8392    1.4853    0.0000 C   0  0  0  0  0  0  0  0  0  0  0  0
    0.0142    1.4853    0.0000 O   0  0  0  0  0  0  0  0  0  0  0  0
    1.2517    0.7708    0.0000 C   0  0  0  0  0  0  0  0  0  0  0  0
    0.8392    0.0563    0.0000 N   0  0  0  0  0  0  0  0  0  0  0  0
    1.2517   -0.6581    0.0000 C   0  0  0  0  0  0  0  0  0  0  0  0
    0.0142    0.0563    0.0000 C   0  0  0  0  0  0  0  0  0  0  0  0
    1.9662    1.7873    0.0000 H   0  0  0  0  0  0  0  0  0  0  0  0
    1.6642    2.9142    0.0000 H   0  0  0  0  0  0  0  0  0  0  0  0
    0.5372    2.6123    0.0000 H   0  0  0  0  0  0  0  0  0  0  0  0
    0.4267    2.1998    0.0000 H   0  0  0  0  0  0  0  0  0  0  0  0
   -0.7003    1.0728    0.0000 H   0  0  0  0  0  0  0  0  0  0  0  0
    1.9890    0.4005    0.0000 H   0  0  0  0  0  0  0  0  0  0  0  0
    1.9890    1.1411    0.0000 H   0  0  0  0  0  0  0  0  0  0  0  0
    0.5372   -1.0706    0.0000 H   0  0  0  0  0  0  0  0  0  0  0  0
    1.6642   -1.3726    0.0000 H   0  0  0  0  0  0  0  0  0  0  0  0
    1.9662   -0.2456    0.0000 H   0  0  0  0  0  0  0  0  0  0  0  0
    0.0142    0.8813    0.0000 H   0  0  0  0  0  0  0  0  0  0  0  0
   -0.8108    0.0563    0.0000 H   0  0  0  0  0  0  0  0  0  0  0  0
    0.0142   -0.7687    0.0000 H   0  0  0  0  0  0  0  0  0  0  0  0
  1  2  1  0  0  0  0
  2  3  1  0  0  0  0
  2  4  1  0  0  0  0
  4  5  1  0  0  0  0
  5  6  1  0  0  0  0
  5  7  1  0  0  0  0
  1  8  1  0  0  0  0
  1  9  1  0  0  0  0
  1 10  1  0  0  0  0
  2 11  1  0  0  0  0
  3 12  1  0  0  0  0
  4 13  1  0  0  0  0
  4 14  1  0  0  0  0
  6 15  1  0  0  0  0
  6 16  1  0  0  0  0
  6 17  1  0  0  0  0
  7 18  1  0  0  0  0
  7 19  1  0  0  0  0
  7 20  1  0  0  0  0
M  END
>  <InChIKey>
NCXUNZWLEYGQAH-UHFFFAOYSA-N

>  <UN GHS>
1

>  <CASRN>
108-16-7

> <Outcome>
1

>  <Index>
511

>  <StandardizerResult>
Clear Stereo (ID: ClearStereo)
Wedge Clean (ID: WedgeClean)
Mesomerize (ID: Mesomerize)
Tautomerize (ID: Tautomerize)
Add Explicit Hydrogens (ID: AddExplicitH)
Neutralize (ID: Neutralize)
Clean 2D (ID: Clean2D)

> <knn Distance>


> <CpId>
511

$$$$
515
  Mrv1532301301811342D          

 26 27  0  0  0  0            999 V2000
    2.6090    0.8030    0.0000 C   0  0  0  0  0  0  0  0  0  0  0  0
    1.9959    1.3551    0.0000 C   0  0  0  0  0  0  0  0  0  0  0  0
    2.6090    1.9071    0.0000 C   0  0  0  0  0  0  0  0  0  0  0  0
    1.5109    0.6876    0.0000 S   0  0  0  0  0  0  0  0  0  0  0  0
    0.7263    0.9426    0.0000 C   0  0  0  0  0  0  0  0  0  0  0  0
   -0.0987    0.9426    0.0000 C   0  0  0  0  0  0  0  0  0  0  0  0
   -0.6820    0.3592    0.0000 N   0  0  0  0  0  0  0  0  0  0  0  0
   -0.0987    1.7676    0.0000 C   0  0  0  0  0  0  0  0  0  0  0  0
   -0.6820    2.3509    0.0000 O   0  0  0  0  0  0  0  0  0  0  0  0
    0.7263    1.7676    0.0000 N   0  0  0  0  0  0  0  0  0  0  0  0
    1.5109    2.0225    0.0000 C   0  0  0  0  0  0  0  0  0  0  0  0
    1.7659    2.8071    0.0000 C   0  0  0  0  0  0  0  0  0  0  0  0
    1.2138    3.4202    0.0000 O   0  0  0  0  0  0  0  0  0  0  0  0
    2.5729    2.9786    0.0000 O   0  0  0  0  0  0  0  0  0  0  0  0
    2.0569    0.1899    0.0000 H   0  0  0  0  0  0  0  0  0  0  0  0
    3.2221    0.2510    0.0000 H   0  0  0  0  0  0  0  0  0  0  0  0
    3.1610    1.4161    0.0000 H   0  0  0  0  0  0  0  0  0  0  0  0
    3.3611    2.2461    0.0000 H   0  0  0  0  0  0  0  0  0  0  0  0
    2.6064    2.7321    0.0000 H   0  0  0  0  0  0  0  0  0  0  0  0
    1.8548    2.2415    0.0000 H   0  0  0  0  0  0  0  0  0  0  0  0
    0.5973    0.1277    0.0000 H   0  0  0  0  0  0  0  0  0  0  0  0
    0.2170    0.1804    0.0000 H   0  0  0  0  0  0  0  0  0  0  0  0
   -1.4715    0.5987    0.0000 H   0  0  0  0  0  0  0  0  0  0  0  0
   -1.2054   -0.2785    0.0000 H   0  0  0  0  0  0  0  0  0  0  0  0
    0.9276    2.6059    0.0000 H   0  0  0  0  0  0  0  0  0  0  0  0
    1.0520    4.2292    0.0000 H   0  0  0  0  0  0  0  0  0  0  0  0
  1  2  1  0  0  0  0
  2  3  1  0  0  0  0
  2  4  1  0  0  0  0
  4  5  1  0  0  0  0
  5  6  1  0  0  0  0
  6  7  1  0  0  0  0
  6  8  1  0  0  0  0
  8  9  2  0  0  0  0
  8 10  1  0  0  0  0
  5 10  1  0  0  0  0
 10 11  1  0  0  0  0
  2 11  1  0  0  0  0
 11 12  1  0  0  0  0
 12 13  1  0  0  0  0
 12 14  2  0  0  0  0
  1 15  1  0  0  0  0
  1 16  1  0  0  0  0
  1 17  1  0  0  0  0
  3 18  1  0  0  0  0
  3 19  1  0  0  0  0
  3 20  1  0  0  0  0
  5 21  1  0  0  0  0
  6 22  1  0  0  0  0
  7 23  1  0  0  0  0
  7 24  1  0  0  0  0
 11 25  1  0  0  0  0
 13 26  1  0  0  0  0
M  END
>  <InChIKey>
NGHVIOIJCVXTGV-ALEPSDHESA-N

>  <UN GHS>
2A

>  <CASRN>
551-16-6

> <Outcome>
1

>  <Index>
515

>  <StandardizerResult>
Clear Stereo (ID: ClearStereo)
Wedge Clean (ID: WedgeClean)
Mesomerize (ID: Mesomerize)
Tautomerize (ID: Tautomerize)
Add Explicit Hydrogens (ID: AddExplicitH)
Neutralize (ID: Neutralize)
Clean 2D (ID: Clean2D)

> <knn Distance>


> <CpId>
515

$$$$
516
  Mrv1532301301811342D          

 58 57  0  0  0  0            999 V2000
    7.2343    4.9966    0.0000 C   0  0  0  0  0  0  0  0  0  0  0  0
    7.9487    5.4091    0.0000 C   0  0  0  0  0  0  0  0  0  0  0  0
    8.6632    4.9966    0.0000 C   0  0  0  0  0  0  0  0  0  0  0  0
    9.3777    5.4091    0.0000 C   0  0  0  0  0  0  0  0  0  0  0  0
   10.0921    4.9966    0.0000 C   0  0  0  0  0  0  0  0  0  0  0  0
   10.8066    5.4091    0.0000 C   0  0  0  0  0  0  0  0  0  0  0  0
   11.5211    4.9966    0.0000 C   0  0  0  0  0  0  0  0  0  0  0  0
   12.2356    5.4091    0.0000 C   0  0  0  0  0  0  0  0  0  0  0  0
   12.9500    4.9966    0.0000 C   0  0  0  0  0  0  0  0  0  0  0  0
   13.6645    5.4091    0.0000 C   0  0  0  0  0  0  0  0  0  0  0  0
   14.3790    4.9966    0.0000 C   0  0  0  0  0  0  0  0  0  0  0  0
   15.0934    5.4091    0.0000 C   0  0  0  0  0  0  0  0  0  0  0  0
   15.8079    4.9966    0.0000 C   0  0  0  0  0  0  0  0  0  0  0  0
   16.5224    5.4091    0.0000 C   0  0  0  0  0  0  0  0  0  0  0  0
   17.2369    4.9966    0.0000 C   0  0  0  0  0  0  0  0  0  0  0  0
   17.9513    5.4091    0.0000 C   0  0  0  0  0  0  0  0  0  0  0  0
   18.6658    4.9966    0.0000 N   0  0  0  0  0  0  0  0  0  0  0  0
   19.3803    5.4091    0.0000 C   0  0  0  0  0  0  0  0  0  0  0  0
   18.6658    4.1716    0.0000 C   0  0  0  0  0  0  0  0  0  0  0  0
    6.8218    5.7111    0.0000 H   0  0  0  0  0  0  0  0  0  0  0  0
    6.5198    4.5841    0.0000 H   0  0  0  0  0  0  0  0  0  0  0  0
    7.6468    4.2821    0.0000 H   0  0  0  0  0  0  0  0  0  0  0  0
    8.3190    6.1463    0.0000 H   0  0  0  0  0  0  0  0  0  0  0  0
    7.5785    6.1463    0.0000 H   0  0  0  0  0  0  0  0  0  0  0  0
    8.2929    4.2594    0.0000 H   0  0  0  0  0  0  0  0  0  0  0  0
    9.0335    4.2594    0.0000 H   0  0  0  0  0  0  0  0  0  0  0  0
    9.7479    6.1463    0.0000 H   0  0  0  0  0  0  0  0  0  0  0  0
    9.0074    6.1463    0.0000 H   0  0  0  0  0  0  0  0  0  0  0  0
    9.7219    4.2594    0.0000 H   0  0  0  0  0  0  0  0  0  0  0  0
   10.4624    4.2594    0.0000 H   0  0  0  0  0  0  0  0  0  0  0  0
   11.1769    6.1463    0.0000 H   0  0  0  0  0  0  0  0  0  0  0  0
   10.4364    6.1463    0.0000 H   0  0  0  0  0  0  0  0  0  0  0  0
   11.1508    4.2594    0.0000 H   0  0  0  0  0  0  0  0  0  0  0  0
   11.8913    4.2594    0.0000 H   0  0  0  0  0  0  0  0  0  0  0  0
   12.6058    6.1463    0.0000 H   0  0  0  0  0  0  0  0  0  0  0  0
   11.8653    6.1463    0.0000 H   0  0  0  0  0  0  0  0  0  0  0  0
   12.5798    4.2594    0.0000 H   0  0  0  0  0  0  0  0  0  0  0  0
   13.3203    4.2594    0.0000 H   0  0  0  0  0  0  0  0  0  0  0  0
   14.0348    6.1463    0.0000 H   0  0  0  0  0  0  0  0  0  0  0  0
   13.2942    6.1463    0.0000 H   0  0  0  0  0  0  0  0  0  0  0  0
   14.0087    4.2594    0.0000 H   0  0  0  0  0  0  0  0  0  0  0  0
   14.7492    4.2594    0.0000 H   0  0  0  0  0  0  0  0  0  0  0  0
   15.4637    6.1463    0.0000 H   0  0  0  0  0  0  0  0  0  0  0  0
   14.7232    6.1463    0.0000 H   0  0  0  0  0  0  0  0  0  0  0  0
   15.4377    4.2594    0.0000 H   0  0  0  0  0  0  0  0  0  0  0  0
   16.1782    4.2594    0.0000 H   0  0  0  0  0  0  0  0  0  0  0  0
   16.8926    6.1463    0.0000 H   0  0  0  0  0  0  0  0  0  0  0  0
   16.1521    6.1463    0.0000 H   0  0  0  0  0  0  0  0  0  0  0  0
   16.8666    4.2594    0.0000 H   0  0  0  0  0  0  0  0  0  0  0  0
   17.6071    4.2594    0.0000 H   0  0  0  0  0  0  0  0  0  0  0  0
   18.3216    6.1463    0.0000 H   0  0  0  0  0  0  0  0  0  0  0  0
   17.5811    6.1463    0.0000 H   0  0  0  0  0  0  0  0  0  0  0  0
   19.7928    4.6946    0.0000 H   0  0  0  0  0  0  0  0  0  0  0  0
   20.0947    5.8216    0.0000 H   0  0  0  0  0  0  0  0  0  0  0  0
   18.9678    6.1236    0.0000 H   0  0  0  0  0  0  0  0  0  0  0  0
   17.8408    4.1716    0.0000 H   0  0  0  0  0  0  0  0  0  0  0  0
   18.6658    3.3466    0.0000 H   0  0  0  0  0  0  0  0  0  0  0  0
   19.4908    4.1716    0.0000 H   0  0  0  0  0  0  0  0  0  0  0  0
  1  2  1  0  0  0  0
  2  3  1  0  0  0  0
  3  4  1  0  0  0  0
  4  5  1  0  0  0  0
  5  6  1  0  0  0  0
  6  7  1  0  0  0  0
  7  8  1  0  0  0  0
  8  9  1  0  0  0  0
  9 10  1  0  0  0  0
 10 11  1  0  0  0  0
 11 12  1  0  0  0  0
 12 13  1  0  0  0  0
 13 14  1  0  0  0  0
 14 15  1  0  0  0  0
 15 16  1  0  0  0  0
 16 17  1  0  0  0  0
 17 18  1  0  0  0  0
 17 19  1  0  0  0  0
  1 20  1  0  0  0  0
  1 21  1  0  0  0  0
  1 22  1  0  0  0  0
  2 23  1  0  0  0  0
  2 24  1  0  0  0  0
  3 25  1  0  0  0  0
  3 26  1  0  0  0  0
  4 27  1  0  0  0  0
  4 28  1  0  0  0  0
  5 29  1  0  0  0  0
  5 30  1  0  0  0  0
  6 31  1  0  0  0  0
  6 32  1  0  0  0  0
  7 33  1  0  0  0  0
  7 34  1  0  0  0  0
  8 35  1  0  0  0  0
  8 36  1  0  0  0  0
  9 37  1  0  0  0  0
  9 38  1  0  0  0  0
 10 39  1  0  0  0  0
 10 40  1  0  0  0  0
 11 41  1  0  0  0  0
 11 42  1  0  0  0  0
 12 43  1  0  0  0  0
 12 44  1  0  0  0  0
 13 45  1  0  0  0  0
 13 46  1  0  0  0  0
 14 47  1  0  0  0  0
 14 48  1  0  0  0  0
 15 49  1  0  0  0  0
 15 50  1  0  0  0  0
 16 51  1  0  0  0  0
 16 52  1  0  0  0  0
 18 53  1  0  0  0  0
 18 54  1  0  0  0  0
 18 55  1  0  0  0  0
 19 56  1  0  0  0  0
 19 57  1  0  0  0  0
 19 58  1  0  0  0  0
M  END
>  <InChIKey>
NHLUVTZJQOJKCC-UHFFFAOYSA-N

>  <UN GHS>
1

>  <CASRN>
112-69-6

> <Outcome>
1

>  <Index>
516

>  <StandardizerResult>
Clear Stereo (ID: ClearStereo)
Wedge Clean (ID: WedgeClean)
Mesomerize (ID: Mesomerize)
Tautomerize (ID: Tautomerize)
Add Explicit Hydrogens (ID: AddExplicitH)
Neutralize (ID: Neutralize)
Clean 2D (ID: Clean2D)

> <knn Distance>


> <CpId>
516

$$$$
518
  Mrv1532301301811342D          

 46 46  0  0  0  0            999 V2000
    1.4289   -4.9504    0.0000 C   0  0  0  0  0  0  0  0  0  0  0  0
    2.1434   -5.3629    0.0000 C   0  0  0  0  0  0  0  0  0  0  0  0
    2.8579   -4.9504    0.0000 C   0  0  0  0  0  0  0  0  0  0  0  0
    3.5724   -5.3629    0.0000 C   0  0  0  0  0  0  0  0  0  0  0  0
    4.2868   -4.9504    0.0000 C   0  0  0  0  0  0  0  0  0  0  0  0
    5.0013   -5.3629    0.0000 C   0  0  0  0  0  0  0  0  0  0  0  0
    5.7158   -4.9504    0.0000 C   0  0  0  0  0  0  0  0  0  0  0  0
    6.4302   -5.3629    0.0000 C   0  0  0  0  0  0  0  0  0  0  0  0
    7.1447   -4.9504    0.0000 C   0  0  0  0  0  0  0  0  0  0  0  0
    7.8592   -5.3629    0.0000 C   0  0  0  0  0  0  0  0  0  0  0  0
    8.5737   -4.9504    0.0000 C   0  0  0  0  0  0  0  0  0  0  0  0
    9.2881   -5.3629    0.0000 C   0  0  0  0  0  0  0  0  0  0  0  0
    9.2881   -6.1879    0.0000 C   0  0  0  0  0  0  0  0  0  0  0  0
   10.0026   -6.6004    0.0000 O   0  0  0  0  0  0  0  0  0  0  0  0
   10.7171   -6.1879    0.0000 C   0  0  0  0  0  0  0  0  0  0  0  0
   11.4315   -6.6004    0.0000 C   0  0  0  0  0  0  0  0  0  0  0  0
   12.1460   -6.1879    0.0000 O   0  0  0  0  0  0  0  0  0  0  0  0
   11.4315   -7.4254    0.0000 O   0  0  0  0  0  0  0  0  0  0  0  0
    8.5737   -6.6004    0.0000 C   0  0  0  0  0  0  0  0  0  0  0  0
    7.8592   -6.1879    0.0000 C   0  0  0  0  0  0  0  0  0  0  0  0
    1.8414   -4.2359    0.0000 H   0  0  0  0  0  0  0  0  0  0  0  0
    0.7145   -4.5379    0.0000 H   0  0  0  0  0  0  0  0  0  0  0  0
    1.0164   -5.6649    0.0000 H   0  0  0  0  0  0  0  0  0  0  0  0
    1.7732   -6.1001    0.0000 H   0  0  0  0  0  0  0  0  0  0  0  0
    2.5137   -6.1001    0.0000 H   0  0  0  0  0  0  0  0  0  0  0  0
    3.2281   -4.2131    0.0000 H   0  0  0  0  0  0  0  0  0  0  0  0
    2.4876   -4.2131    0.0000 H   0  0  0  0  0  0  0  0  0  0  0  0
    3.2021   -6.1001    0.0000 H   0  0  0  0  0  0  0  0  0  0  0  0
    3.9426   -6.1001    0.0000 H   0  0  0  0  0  0  0  0  0  0  0  0
    4.6571   -4.2131    0.0000 H   0  0  0  0  0  0  0  0  0  0  0  0
    3.9166   -4.2131    0.0000 H   0  0  0  0  0  0  0  0  0  0  0  0
    4.6310   -6.1001    0.0000 H   0  0  0  0  0  0  0  0  0  0  0  0
    5.3716   -6.1001    0.0000 H   0  0  0  0  0  0  0  0  0  0  0  0
    6.0860   -4.2131    0.0000 H   0  0  0  0  0  0  0  0  0  0  0  0
    5.3455   -4.2131    0.0000 H   0  0  0  0  0  0  0  0  0  0  0  0
    6.0600   -6.1001    0.0000 H   0  0  0  0  0  0  0  0  0  0  0  0
    6.8005   -6.1001    0.0000 H   0  0  0  0  0  0  0  0  0  0  0  0
    7.5150   -4.2131    0.0000 H   0  0  0  0  0  0  0  0  0  0  0  0
    6.7745   -4.2131    0.0000 H   0  0  0  0  0  0  0  0  0  0  0  0
    8.5737   -4.1254    0.0000 H   0  0  0  0  0  0  0  0  0  0  0  0
   10.0026   -4.9504    0.0000 H   0  0  0  0  0  0  0  0  0  0  0  0
   11.0873   -5.4506    0.0000 H   0  0  0  0  0  0  0  0  0  0  0  0
   10.3468   -5.4506    0.0000 H   0  0  0  0  0  0  0  0  0  0  0  0
   12.8605   -6.6004    0.0000 H   0  0  0  0  0  0  0  0  0  0  0  0
    8.5737   -7.4254    0.0000 H   0  0  0  0  0  0  0  0  0  0  0  0
    7.1447   -6.6004    0.0000 H   0  0  0  0  0  0  0  0  0  0  0  0
  1  2  1  0  0  0  0
  2  3  1  0  0  0  0
  3  4  1  0  0  0  0
  4  5  1  0  0  0  0
  5  6  1  0  0  0  0
  6  7  1  0  0  0  0
  7  8  1  0  0  0  0
  8  9  1  0  0  0  0
  9 10  1  0  0  0  0
 10 11  4  0  0  0  0
 11 12  4  0  0  0  0
 12 13  4  0  0  0  0
 13 14  1  0  0  0  0
 14 15  1  0  0  0  0
 15 16  1  0  0  0  0
 16 17  1  0  0  0  0
 16 18  2  0  0  0  0
 13 19  4  0  0  0  0
 19 20  4  0  0  0  0
 10 20  4  0  0  0  0
  1 21  1  0  0  0  0
  1 22  1  0  0  0  0
  1 23  1  0  0  0  0
  2 24  1  0  0  0  0
  2 25  1  0  0  0  0
  3 26  1  0  0  0  0
  3 27  1  0  0  0  0
  4 28  1  0  0  0  0
  4 29  1  0  0  0  0
  5 30  1  0  0  0  0
  5 31  1  0  0  0  0
  6 32  1  0  0  0  0
  6 33  1  0  0  0  0
  7 34  1  0  0  0  0
  7 35  1  0  0  0  0
  8 36  1  0  0  0  0
  8 37  1  0  0  0  0
  9 38  1  0  0  0  0
  9 39  1  0  0  0  0
 11 40  1  0  0  0  0
 12 41  1  0  0  0  0
 15 42  1  0  0  0  0
 15 43  1  0  0  0  0
 17 44  1  0  0  0  0
 19 45  1  0  0  0  0
 20 46  1  0  0  0  0
M  END
>  <InChIKey>
NISAHDHKGPWBEM-UHFFFAOYSA-N

>  <UN GHS>
1

>  <CASRN>
3115-49-9

> <Outcome>
1

>  <Index>
518

>  <StandardizerResult>
Dearomatize (ID: Dearomatize)
Clear Stereo (ID: ClearStereo)
Wedge Clean (ID: WedgeClean)
Mesomerize (ID: Mesomerize)
Tautomerize (ID: Tautomerize)
Aromatize (ID: Aromatize)
Add Explicit Hydrogens (ID: AddExplicitH)
Neutralize (ID: Neutralize)
Clean 2D (ID: Clean2D)

> <knn Distance>


> <CpId>
518

$$$$
519
  Mrv1532301301811342D          

 51 50  0  0  0  0            999 V2000
    7.9480    5.4145    0.0000 C   0  0  0  0  0  0  0  0  0  0  0  0
    8.6625    5.0020    0.0000 C   0  0  0  0  0  0  0  0  0  0  0  0
    9.3770    5.4145    0.0000 C   0  0  0  0  0  0  0  0  0  0  0  0
   10.0914    5.0020    0.0000 C   0  0  0  0  0  0  0  0  0  0  0  0
   10.8059    5.4145    0.0000 C   0  0  0  0  0  0  0  0  0  0  0  0
   11.5204    5.0020    0.0000 C   0  0  0  0  0  0  0  0  0  0  0  0
   12.2349    5.4145    0.0000 C   0  0  0  0  0  0  0  0  0  0  0  0
   12.9493    5.0020    0.0000 C   0  0  0  0  0  0  0  0  0  0  0  0
   13.6638    5.4145    0.0000 O   0  0  0  0  0  0  0  0  0  0  0  0
   14.3783    5.0020    0.0000 C   0  0  0  0  0  0  0  0  0  0  0  0
   15.0927    5.4145    0.0000 C   0  0  0  0  0  0  0  0  0  0  0  0
   15.8072    5.0020    0.0000 C   0  0  0  0  0  0  0  0  0  0  0  0
   16.5217    5.4145    0.0000 C   0  0  0  0  0  0  0  0  0  0  0  0
   17.2362    5.0020    0.0000 C   0  0  0  0  0  0  0  0  0  0  0  0
   17.9506    5.4145    0.0000 C   0  0  0  0  0  0  0  0  0  0  0  0
   18.6651    5.0020    0.0000 C   0  0  0  0  0  0  0  0  0  0  0  0
   19.3796    5.4145    0.0000 C   0  0  0  0  0  0  0  0  0  0  0  0
    8.3605    6.1290    0.0000 H   0  0  0  0  0  0  0  0  0  0  0  0
    7.2336    5.8270    0.0000 H   0  0  0  0  0  0  0  0  0  0  0  0
    7.5355    4.7000    0.0000 H   0  0  0  0  0  0  0  0  0  0  0  0
    8.2922    4.2647    0.0000 H   0  0  0  0  0  0  0  0  0  0  0  0
    9.0328    4.2647    0.0000 H   0  0  0  0  0  0  0  0  0  0  0  0
    9.7472    6.1517    0.0000 H   0  0  0  0  0  0  0  0  0  0  0  0
    9.0067    6.1517    0.0000 H   0  0  0  0  0  0  0  0  0  0  0  0
    9.7212    4.2647    0.0000 H   0  0  0  0  0  0  0  0  0  0  0  0
   10.4617    4.2647    0.0000 H   0  0  0  0  0  0  0  0  0  0  0  0
   11.1762    6.1517    0.0000 H   0  0  0  0  0  0  0  0  0  0  0  0
   10.4357    6.1517    0.0000 H   0  0  0  0  0  0  0  0  0  0  0  0
   11.1501    4.2647    0.0000 H   0  0  0  0  0  0  0  0  0  0  0  0
   11.8906    4.2647    0.0000 H   0  0  0  0  0  0  0  0  0  0  0  0
   12.6051    6.1517    0.0000 H   0  0  0  0  0  0  0  0  0  0  0  0
   11.8646    6.1517    0.0000 H   0  0  0  0  0  0  0  0  0  0  0  0
   12.5791    4.2647    0.0000 H   0  0  0  0  0  0  0  0  0  0  0  0
   13.3196    4.2647    0.0000 H   0  0  0  0  0  0  0  0  0  0  0  0
   14.0080    4.2647    0.0000 H   0  0  0  0  0  0  0  0  0  0  0  0
   14.7485    4.2647    0.0000 H   0  0  0  0  0  0  0  0  0  0  0  0
   15.4630    6.1517    0.0000 H   0  0  0  0  0  0  0  0  0  0  0  0
   14.7225    6.1517    0.0000 H   0  0  0  0  0  0  0  0  0  0  0  0
   15.4370    4.2647    0.0000 H   0  0  0  0  0  0  0  0  0  0  0  0
   16.1775    4.2647    0.0000 H   0  0  0  0  0  0  0  0  0  0  0  0
   16.8919    6.1517    0.0000 H   0  0  0  0  0  0  0  0  0  0  0  0
   16.1514    6.1517    0.0000 H   0  0  0  0  0  0  0  0  0  0  0  0
   16.8659    4.2647    0.0000 H   0  0  0  0  0  0  0  0  0  0  0  0
   17.6064    4.2647    0.0000 H   0  0  0  0  0  0  0  0  0  0  0  0
   18.3209    6.1517    0.0000 H   0  0  0  0  0  0  0  0  0  0  0  0
   17.5804    6.1517    0.0000 H   0  0  0  0  0  0  0  0  0  0  0  0
   18.2948    4.2647    0.0000 H   0  0  0  0  0  0  0  0  0  0  0  0
   19.0354    4.2647    0.0000 H   0  0  0  0  0  0  0  0  0  0  0  0
   19.7921    4.7000    0.0000 H   0  0  0  0  0  0  0  0  0  0  0  0
   20.0940    5.8270    0.0000 H   0  0  0  0  0  0  0  0  0  0  0  0
   18.9671    6.1290    0.0000 H   0  0  0  0  0  0  0  0  0  0  0  0
  1  2  1  0  0  0  0
  2  3  1  0  0  0  0
  3  4  1  0  0  0  0
  4  5  1  0  0  0  0
  5  6  1  0  0  0  0
  6  7  1  0  0  0  0
  7  8  1  0  0  0  0
  8  9  1  0  0  0  0
  9 10  1  0  0  0  0
 10 11  1  0  0  0  0
 11 12  1  0  0  0  0
 12 13  1  0  0  0  0
 13 14  1  0  0  0  0
 14 15  1  0  0  0  0
 15 16  1  0  0  0  0
 16 17  1  0  0  0  0
  1 18  1  0  0  0  0
  1 19  1  0  0  0  0
  1 20  1  0  0  0  0
  2 21  1  0  0  0  0
  2 22  1  0  0  0  0
  3 23  1  0  0  0  0
  3 24  1  0  0  0  0
  4 25  1  0  0  0  0
  4 26  1  0  0  0  0
  5 27  1  0  0  0  0
  5 28  1  0  0  0  0
  6 29  1  0  0  0  0
  6 30  1  0  0  0  0
  7 31  1  0  0  0  0
  7 32  1  0  0  0  0
  8 33  1  0  0  0  0
  8 34  1  0  0  0  0
 10 35  1  0  0  0  0
 10 36  1  0  0  0  0
 11 37  1  0  0  0  0
 11 38  1  0  0  0  0
 12 39  1  0  0  0  0
 12 40  1  0  0  0  0
 13 41  1  0  0  0  0
 13 42  1  0  0  0  0
 14 43  1  0  0  0  0
 14 44  1  0  0  0  0
 15 45  1  0  0  0  0
 15 46  1  0  0  0  0
 16 47  1  0  0  0  0
 16 48  1  0  0  0  0
 17 49  1  0  0  0  0
 17 50  1  0  0  0  0
 17 51  1  0  0  0  0
M  END
>  <InChIKey>
NKJOXAZJBOMXID-UHFFFAOYSA-N

>  <UN GHS>
2B

>  <CASRN>
629-82-3

> <Outcome>
1

>  <Index>
519

>  <StandardizerResult>
Clear Stereo (ID: ClearStereo)
Wedge Clean (ID: WedgeClean)
Mesomerize (ID: Mesomerize)
Tautomerize (ID: Tautomerize)
Add Explicit Hydrogens (ID: AddExplicitH)
Neutralize (ID: Neutralize)
Clean 2D (ID: Clean2D)

> <knn Distance>


> <CpId>
519

$$$$
520
  Mrv1532301301811342D          

 29 28  0  0  0  0            999 V2000
    1.7282    1.8426    0.0000 C   0  0  0  0  0  0  0  0  0  0  0  0
    2.4426    1.4301    0.0000 C   0  0  0  0  0  0  0  0  0  0  0  0
    3.1571    1.8426    0.0000 C   0  0  0  0  0  0  0  0  0  0  0  0
    3.8716    1.4301    0.0000 C   0  0  0  0  0  0  0  0  0  0  0  0
    4.5860    1.8426    0.0000 C   0  0  0  0  0  0  0  0  0  0  0  0
    4.5860    2.6676    0.0000 C   0  0  0  0  0  0  0  0  0  0  0  0
    5.3005    3.0801    0.0000 C   0  0  0  0  0  0  0  0  0  0  0  0
    5.3005    1.4301    0.0000 C   0  0  0  0  0  0  0  0  0  0  0  0
    6.0150    1.8426    0.0000 O   0  0  0  0  0  0  0  0  0  0  0  0
    6.7295    1.4301    0.0000 N   0  0  0  0  0  0  0  0  0  0  0  0
    7.4439    1.8426    0.0000 O   0  0  0  0  0  0  0  0  0  0  0  0
    6.7295    0.6051    0.0000 O   0  0  0  0  0  0  0  0  0  0  0  0
    2.1407    2.5570    0.0000 H   0  0  0  0  0  0  0  0  0  0  0  0
    1.0137    2.2551    0.0000 H   0  0  0  0  0  0  0  0  0  0  0  0
    1.3157    1.1281    0.0000 H   0  0  0  0  0  0  0  0  0  0  0  0
    2.0724    0.6928    0.0000 H   0  0  0  0  0  0  0  0  0  0  0  0
    2.8129    0.6928    0.0000 H   0  0  0  0  0  0  0  0  0  0  0  0
    3.5274    2.5798    0.0000 H   0  0  0  0  0  0  0  0  0  0  0  0
    2.7868    2.5798    0.0000 H   0  0  0  0  0  0  0  0  0  0  0  0
    3.5013    0.6928    0.0000 H   0  0  0  0  0  0  0  0  0  0  0  0
    4.2418    0.6928    0.0000 H   0  0  0  0  0  0  0  0  0  0  0  0
    3.8716    2.2551    0.0000 H   0  0  0  0  0  0  0  0  0  0  0  0
    4.4428    3.4800    0.0000 H   0  0  0  0  0  0  0  0  0  0  0  0
    3.9541    3.1979    0.0000 H   0  0  0  0  0  0  0  0  0  0  0  0
    5.5314    2.2880    0.0000 H   0  0  0  0  0  0  0  0  0  0  0  0
    6.1247    3.1160    0.0000 H   0  0  0  0  0  0  0  0  0  0  0  0
    5.4615    3.8892    0.0000 H   0  0  0  0  0  0  0  0  0  0  0  0
    4.9303    0.6928    0.0000 H   0  0  0  0  0  0  0  0  0  0  0  0
    5.6708    0.6928    0.0000 H   0  0  0  0  0  0  0  0  0  0  0  0
  1  2  1  0  0  0  0
  2  3  1  0  0  0  0
  3  4  1  0  0  0  0
  4  5  1  0  0  0  0
  5  6  1  0  0  0  0
  6  7  1  0  0  0  0
  5  8  1  0  0  0  0
  8  9  1  0  0  0  0
  9 10  2  0  0  0  0
 10 11  2  0  0  0  0
 10 12  2  0  0  0  0
  1 13  1  0  0  0  0
  1 14  1  0  0  0  0
  1 15  1  0  0  0  0
  2 16  1  0  0  0  0
  2 17  1  0  0  0  0
  3 18  1  0  0  0  0
  3 19  1  0  0  0  0
  4 20  1  0  0  0  0
  4 21  1  0  0  0  0
  5 22  1  0  0  0  0
  6 23  1  0  0  0  0
  6 24  1  0  0  0  0
  7 25  1  0  0  0  0
  7 26  1  0  0  0  0
  7 27  1  0  0  0  0
  8 28  1  0  0  0  0
  8 29  1  0  0  0  0
M  END
>  <InChIKey>
NKRVGWFEFKCZAP-UHFFFAOYSA-N

>  <UN GHS>
2B

>  <CASRN>
27247-96-7

> <Outcome>
1

>  <Index>
520

>  <StandardizerResult>
Clear Stereo (ID: ClearStereo)
Wedge Clean (ID: WedgeClean)
Mesomerize (ID: Mesomerize)
Add Explicit Hydrogens (ID: AddExplicitH)
Neutralize (ID: Neutralize)
Clean 2D (ID: Clean2D)

> <knn Distance>


> <CpId>
520

$$$$
527
  Mrv1532301301811342D          

 31 31  0  0  0  0            999 V2000
    0.0749    2.4905    0.0000 C   0  0  0  0  0  0  0  0  0  0  0  0
    0.7893    2.0780    0.0000 C   0  0  0  0  0  0  0  0  0  0  0  0
    1.5038    2.4905    0.0000 C   0  0  0  0  0  0  0  0  0  0  0  0
    0.7893    1.2530    0.0000 C   0  0  0  0  0  0  0  0  0  0  0  0
    1.5038    0.8405    0.0000 C   0  0  0  0  0  0  0  0  0  0  0  0
    1.5038    0.0155    0.0000 C   0  0  0  0  0  0  0  0  0  0  0  0
    0.7893   -0.3970    0.0000 C   0  0  0  0  0  0  0  0  0  0  0  0
    0.7893   -1.2220    0.0000 C   0  0  0  0  0  0  0  0  0  0  0  0
    0.0749    0.0155    0.0000 C   0  0  0  0  0  0  0  0  0  0  0  0
    0.0749    0.8405    0.0000 C   0  0  0  0  0  0  0  0  0  0  0  0
   -0.6396    1.2530    0.0000 O   0  0  0  0  0  0  0  0  0  0  0  0
    0.4874    3.2050    0.0000 H   0  0  0  0  0  0  0  0  0  0  0  0
   -0.6396    2.9030    0.0000 H   0  0  0  0  0  0  0  0  0  0  0  0
   -0.3376    1.7761    0.0000 H   0  0  0  0  0  0  0  0  0  0  0  0
    0.7893    2.9030    0.0000 H   0  0  0  0  0  0  0  0  0  0  0  0
    1.7173    1.6937    0.0000 H   0  0  0  0  0  0  0  0  0  0  0  0
    2.3288    2.4905    0.0000 H   0  0  0  0  0  0  0  0  0  0  0  0
    1.7173    3.2874    0.0000 H   0  0  0  0  0  0  0  0  0  0  0  0
    0.0749    1.6655    0.0000 H   0  0  0  0  0  0  0  0  0  0  0  0
    2.3226    0.7396    0.0000 H   0  0  0  0  0  0  0  0  0  0  0  0
    0.7893    0.4280    0.0000 H   0  0  0  0  0  0  0  0  0  0  0  0
    1.9572   -0.6737    0.0000 H   0  0  0  0  0  0  0  0  0  0  0  0
    2.3274   -0.0324    0.0000 H   0  0  0  0  0  0  0  0  0  0  0  0
    0.0749   -0.8095    0.0000 H   0  0  0  0  0  0  0  0  0  0  0  0
    0.2060   -1.8053    0.0000 H   0  0  0  0  0  0  0  0  0  0  0  0
    1.2018   -1.9364    0.0000 H   0  0  0  0  0  0  0  0  0  0  0  0
    1.5862   -1.0084    0.0000 H   0  0  0  0  0  0  0  0  0  0  0  0
   -0.7004    0.2977    0.0000 H   0  0  0  0  0  0  0  0  0  0  0  0
   -0.7004   -0.2666    0.0000 H   0  0  0  0  0  0  0  0  0  0  0  0
   -0.3376    1.5550    0.0000 H   0  0  0  0  0  0  0  0  0  0  0  0
   -1.4293    1.4918    0.0000 H   0  0  0  0  0  0  0  0  0  0  0  0
  1  2  1  0  0  0  0
  2  3  1  0  0  0  0
  2  4  1  0  0  0  0
  4  5  1  0  0  0  0
  5  6  1  0  0  0  0
  6  7  1  0  0  0  0
  7  8  1  0  0  0  0
  7  9  1  0  0  0  0
  9 10  1  0  0  0  0
  4 10  1  0  0  0  0
 10 11  1  0  0  0  0
  1 12  1  0  0  0  0
  1 13  1  0  0  0  0
  1 14  1  0  0  0  0
  2 15  1  0  0  0  0
  3 16  1  0  0  0  0
  3 17  1  0  0  0  0
  3 18  1  0  0  0  0
  4 19  1  0  0  0  0
  5 20  1  0  0  0  0
  5 21  1  0  0  0  0
  6 22  1  0  0  0  0
  6 23  1  0  0  0  0
  7 24  1  0  0  0  0
  8 25  1  0  0  0  0
  8 26  1  0  0  0  0
  8 27  1  0  0  0  0
  9 28  1  0  0  0  0
  9 29  1  0  0  0  0
 10 30  1  0  0  0  0
 11 31  1  0  0  0  0
M  END
>  <InChIKey>
NOOLISFMXDJSKH-KXUCPTDWSA-N

>  <UN GHS>
2A

>  <CASRN>
2216-51-5

> <Outcome>
1

>  <Index>
527

>  <StandardizerResult>
Clear Stereo (ID: ClearStereo)
Wedge Clean (ID: WedgeClean)
Mesomerize (ID: Mesomerize)
Tautomerize (ID: Tautomerize)
Add Explicit Hydrogens (ID: AddExplicitH)
Neutralize (ID: Neutralize)
Clean 2D (ID: Clean2D)

> <knn Distance>


> <CpId>
527

$$$$
532
  Mrv1532301301811342D          

 17 17  0  0  0  0            999 V2000
    0.7145    1.2365    0.0000 C   0  0  0  0  0  0  0  0  0  0  0  0
    1.4289    0.8240    0.0000 C   0  0  0  0  0  0  0  0  0  0  0  0
    1.4289   -0.0010    0.0000 C   0  0  0  0  0  0  0  0  0  0  0  0
    0.7145   -0.4135    0.0000 N   0  0  0  0  0  0  0  0  0  0  0  0
    0.0000   -0.0010    0.0000 C   0  0  0  0  0  0  0  0  0  0  0  0
    0.0000    0.8240    0.0000 C   0  0  0  0  0  0  0  0  0  0  0  0
    1.0847    1.9737    0.0000 H   0  0  0  0  0  0  0  0  0  0  0  0
    0.3442    1.9737    0.0000 H   0  0  0  0  0  0  0  0  0  0  0  0
    2.2525    0.8719    0.0000 H   0  0  0  0  0  0  0  0  0  0  0  0
    1.8823    1.5132    0.0000 H   0  0  0  0  0  0  0  0  0  0  0  0
    1.8823   -0.6903    0.0000 H   0  0  0  0  0  0  0  0  0  0  0  0
    2.2525   -0.0490    0.0000 H   0  0  0  0  0  0  0  0  0  0  0  0
    0.7145   -1.2385    0.0000 H   0  0  0  0  0  0  0  0  0  0  0  0
   -0.8236   -0.0490    0.0000 H   0  0  0  0  0  0  0  0  0  0  0  0
   -0.4533   -0.6903    0.0000 H   0  0  0  0  0  0  0  0  0  0  0  0
   -0.4533    1.5132    0.0000 H   0  0  0  0  0  0  0  0  0  0  0  0
   -0.8236    0.8719    0.0000 H   0  0  0  0  0  0  0  0  0  0  0  0
  1  2  1  0  0  0  0
  2  3  1  0  0  0  0
  3  4  1  0  0  0  0
  4  5  1  0  0  0  0
  5  6  1  0  0  0  0
  1  6  1  0  0  0  0
  1  7  1  0  0  0  0
  1  8  1  0  0  0  0
  2  9  1  0  0  0  0
  2 10  1  0  0  0  0
  3 11  1  0  0  0  0
  3 12  1  0  0  0  0
  4 13  1  0  0  0  0
  5 14  1  0  0  0  0
  5 15  1  0  0  0  0
  6 16  1  0  0  0  0
  6 17  1  0  0  0  0
M  END
>  <InChIKey>
NQRYJNQNLNOLGT-UHFFFAOYSA-N

>  <UN GHS>
1

>  <CASRN>
110-89-4

> <Outcome>
1

>  <Index>
532

>  <StandardizerResult>
Clear Stereo (ID: ClearStereo)
Wedge Clean (ID: WedgeClean)
Mesomerize (ID: Mesomerize)
Tautomerize (ID: Tautomerize)
Add Explicit Hydrogens (ID: AddExplicitH)
Neutralize (ID: Neutralize)
Clean 2D (ID: Clean2D)

> <knn Distance>


> <CpId>
532

$$$$
534
  Mrv1532301301811342D          

  8  8  0  0  0  0            999 V2000
    0.5678    1.1143    0.0000 C   0  0  0  0  0  0  0  0  0  0  0  0
    1.2352    0.6294    0.0000 N   0  0  0  0  0  0  0  0  0  0  0  0
    0.9803   -0.1553    0.0000 N   0  0  0  0  0  0  0  0  0  0  0  0
    0.1553   -0.1553    0.0000 C   0  0  0  0  0  0  0  0  0  0  0  0
   -0.0997    0.6294    0.0000 N   0  0  0  0  0  0  0  0  0  0  0  0
    0.5678    1.9393    0.0000 H   0  0  0  0  0  0  0  0  0  0  0  0
   -0.3296   -0.8227    0.0000 H   0  0  0  0  0  0  0  0  0  0  0  0
   -0.8843    0.8843    0.0000 H   0  0  0  0  0  0  0  0  0  0  0  0
  1  2  4  0  0  0  0
  2  3  4  0  0  0  0
  3  4  4  0  0  0  0
  4  5  4  0  0  0  0
  1  5  4  0  0  0  0
  1  6  1  0  0  0  0
  4  7  1  0  0  0  0
  5  8  1  0  0  0  0
M  END
>  <InChIKey>
NSPMIYGKQJPBQR-UHFFFAOYSA-N

>  <UN GHS>
2A

>  <CASRN>
288-88-0

> <Outcome>
1

>  <Index>
534

>  <StandardizerResult>
Dearomatize (ID: Dearomatize)
Clear Stereo (ID: ClearStereo)
Wedge Clean (ID: WedgeClean)
Mesomerize (ID: Mesomerize)
Tautomerize (ID: Tautomerize)
Aromatize (ID: Aromatize)
Add Explicit Hydrogens (ID: AddExplicitH)
Neutralize (ID: Neutralize)
Clean 2D (ID: Clean2D)

> <knn Distance>


> <CpId>
534

$$$$
535
  Mrv1532301301811342D          

 19 18  0  0  0  0            999 V2000
    1.2502    2.1763    0.0000 C   0  0  0  0  0  0  0  0  0  0  0  0
    0.8377    1.4619    0.0000 C   0  0  0  0  0  0  0  0  0  0  0  0
    0.0127    1.4619    0.0000 C   0  0  0  0  0  0  0  0  0  0  0  0
    1.2502    0.7474    0.0000 C   0  0  0  0  0  0  0  0  0  0  0  0
    0.8377    0.0329    0.0000 C   0  0  0  0  0  0  0  0  0  0  0  0
    1.2502   -0.6815    0.0000 C   0  0  0  0  0  0  0  0  0  0  0  0
    0.0127    0.0329    0.0000 O   0  0  0  0  0  0  0  0  0  0  0  0
    1.9647    1.7638    0.0000 H   0  0  0  0  0  0  0  0  0  0  0  0
    1.6627    2.8908    0.0000 H   0  0  0  0  0  0  0  0  0  0  0  0
    0.5357    2.5888    0.0000 H   0  0  0  0  0  0  0  0  0  0  0  0
    0.4252    2.1763    0.0000 H   0  0  0  0  0  0  0  0  0  0  0  0
   -0.5706    2.0452    0.0000 H   0  0  0  0  0  0  0  0  0  0  0  0
   -0.7018    1.0494    0.0000 H   0  0  0  0  0  0  0  0  0  0  0  0
    0.2262    0.6650    0.0000 H   0  0  0  0  0  0  0  0  0  0  0  0
    1.9875    0.3771    0.0000 H   0  0  0  0  0  0  0  0  0  0  0  0
    1.9875    1.1177    0.0000 H   0  0  0  0  0  0  0  0  0  0  0  0
    0.5357   -1.0940    0.0000 H   0  0  0  0  0  0  0  0  0  0  0  0
    1.6627   -1.3960    0.0000 H   0  0  0  0  0  0  0  0  0  0  0  0
    1.9647   -0.2690    0.0000 H   0  0  0  0  0  0  0  0  0  0  0  0
  1  2  1  0  0  0  0
  2  3  1  0  0  0  0
  2  4  1  0  0  0  0
  4  5  1  0  0  0  0
  5  6  1  0  0  0  0
  5  7  2  0  0  0  0
  1  8  1  0  0  0  0
  1  9  1  0  0  0  0
  1 10  1  0  0  0  0
  2 11  1  0  0  0  0
  3 12  1  0  0  0  0
  3 13  1  0  0  0  0
  3 14  1  0  0  0  0
  4 15  1  0  0  0  0
  4 16  1  0  0  0  0
  6 17  1  0  0  0  0
  6 18  1  0  0  0  0
  6 19  1  0  0  0  0
M  END
>  <InChIKey>
NTIZESTWPVYFNL-UHFFFAOYSA-N

>  <UN GHS>
2B

>  <CASRN>
108-10-1

> <Outcome>
1

>  <Index>
535

>  <StandardizerResult>
Clear Stereo (ID: ClearStereo)
Wedge Clean (ID: WedgeClean)
Mesomerize (ID: Mesomerize)
Tautomerize (ID: Tautomerize)
Add Explicit Hydrogens (ID: AddExplicitH)
Neutralize (ID: Neutralize)
Clean 2D (ID: Clean2D)

> <knn Distance>


> <CpId>
535

$$$$
538
  Mrv1532301301811342D          

 48 47  0  0  0  0            999 V2000
    8.4871    0.7424    0.0000 C   0  0  0  0  0  0  0  0  0  0  0  0
    8.4871    1.5674    0.0000 C   0  0  0  0  0  0  0  0  0  0  0  0
    9.2016    1.9799    0.0000 O   0  0  0  0  0  0  0  0  0  0  0  0
    7.7726    1.9799    0.0000 C   0  0  0  0  0  0  0  0  0  0  0  0
    7.7726    2.8049    0.0000 N   0  0  0  0  0  0  0  0  0  0  0  0
    7.0582    3.2174    0.0000 C   0  0  0  0  0  0  0  0  0  0  0  0
    6.3437    2.8049    0.0000 C   0  0  0  0  0  0  0  0  0  0  0  0
    5.6292    3.2174    0.0000 C   0  0  0  0  0  0  0  0  0  0  0  0
    4.9147    2.8049    0.0000 N   0  0  0  0  0  0  0  0  0  0  0  0
    4.2003    3.2174    0.0000 C   0  0  0  0  0  0  0  0  0  0  0  0
    4.9147    1.9799    0.0000 C   0  0  0  0  0  0  0  0  0  0  0  0
    8.4871    3.2174    0.0000 C   0  0  0  0  0  0  0  0  0  0  0  0
    9.2016    2.8049    0.0000 C   0  0  0  0  0  0  0  0  0  0  0  0
    9.9160    3.2174    0.0000 C   0  0  0  0  0  0  0  0  0  0  0  0
   10.6305    2.8049    0.0000 N   0  0  0  0  0  0  0  0  0  0  0  0
   11.3450    3.2174    0.0000 C   0  0  0  0  0  0  0  0  0  0  0  0
   10.6305    1.9799    0.0000 C   0  0  0  0  0  0  0  0  0  0  0  0
    7.6621    0.7424    0.0000 H   0  0  0  0  0  0  0  0  0  0  0  0
    8.4871   -0.0826    0.0000 H   0  0  0  0  0  0  0  0  0  0  0  0
    9.3121    0.7424    0.0000 H   0  0  0  0  0  0  0  0  0  0  0  0
    9.2016    1.1549    0.0000 H   0  0  0  0  0  0  0  0  0  0  0  0
   10.0266    1.9799    0.0000 H   0  0  0  0  0  0  0  0  0  0  0  0
    6.9490    1.9320    0.0000 H   0  0  0  0  0  0  0  0  0  0  0  0
    7.3193    1.2907    0.0000 H   0  0  0  0  0  0  0  0  0  0  0  0
    7.4284    3.9547    0.0000 H   0  0  0  0  0  0  0  0  0  0  0  0
    6.6879    3.9547    0.0000 H   0  0  0  0  0  0  0  0  0  0  0  0
    5.9734    2.0677    0.0000 H   0  0  0  0  0  0  0  0  0  0  0  0
    6.7139    2.0677    0.0000 H   0  0  0  0  0  0  0  0  0  0  0  0
    5.9995    3.9547    0.0000 H   0  0  0  0  0  0  0  0  0  0  0  0
    5.2590    3.9547    0.0000 H   0  0  0  0  0  0  0  0  0  0  0  0
    4.6128    3.9319    0.0000 H   0  0  0  0  0  0  0  0  0  0  0  0
    3.4858    3.6299    0.0000 H   0  0  0  0  0  0  0  0  0  0  0  0
    3.7878    2.5030    0.0000 H   0  0  0  0  0  0  0  0  0  0  0  0
    4.0897    1.9799    0.0000 H   0  0  0  0  0  0  0  0  0  0  0  0
    4.9147    1.1549    0.0000 H   0  0  0  0  0  0  0  0  0  0  0  0
    5.7397    1.9799    0.0000 H   0  0  0  0  0  0  0  0  0  0  0  0
    8.8574    3.9547    0.0000 H   0  0  0  0  0  0  0  0  0  0  0  0
    8.1168    3.9547    0.0000 H   0  0  0  0  0  0  0  0  0  0  0  0
    8.4871    2.3924    0.0000 H   0  0  0  0  0  0  0  0  0  0  0  0
    9.2016    3.6299    0.0000 H   0  0  0  0  0  0  0  0  0  0  0  0
   10.5480    3.7477    0.0000 H   0  0  0  0  0  0  0  0  0  0  0  0
   10.0593    4.0299    0.0000 H   0  0  0  0  0  0  0  0  0  0  0  0
   11.5458    2.4172    0.0000 H   0  0  0  0  0  0  0  0  0  0  0  0
   12.1696    3.1912    0.0000 H   0  0  0  0  0  0  0  0  0  0  0  0
   11.5962    4.0032    0.0000 H   0  0  0  0  0  0  0  0  0  0  0  0
   10.3148    1.2177    0.0000 H   0  0  0  0  0  0  0  0  0  0  0  0
   11.2139    1.3966    0.0000 H   0  0  0  0  0  0  0  0  0  0  0  0
   11.3927    2.2956    0.0000 H   0  0  0  0  0  0  0  0  0  0  0  0
  1  2  1  0  0  0  0
  2  3  1  0  0  0  0
  2  4  1  0  0  0  0
  4  5  1  0  0  0  0
  5  6  1  0  0  0  0
  6  7  1  0  0  0  0
  7  8  1  0  0  0  0
  8  9  1  0  0  0  0
  9 10  1  0  0  0  0
  9 11  1  0  0  0  0
  5 12  1  0  0  0  0
 12 13  1  0  0  0  0
 13 14  1  0  0  0  0
 14 15  1  0  0  0  0
 15 16  1  0  0  0  0
 15 17  1  0  0  0  0
  1 18  1  0  0  0  0
  1 19  1  0  0  0  0
  1 20  1  0  0  0  0
  2 21  1  0  0  0  0
  3 22  1  0  0  0  0
  4 23  1  0  0  0  0
  4 24  1  0  0  0  0
  6 25  1  0  0  0  0
  6 26  1  0  0  0  0
  7 27  1  0  0  0  0
  7 28  1  0  0  0  0
  8 29  1  0  0  0  0
  8 30  1  0  0  0  0
 10 31  1  0  0  0  0
 10 32  1  0  0  0  0
 10 33  1  0  0  0  0
 11 34  1  0  0  0  0
 11 35  1  0  0  0  0
 11 36  1  0  0  0  0
 12 37  1  0  0  0  0
 12 38  1  0  0  0  0
 13 39  1  0  0  0  0
 13 40  1  0  0  0  0
 14 41  1  0  0  0  0
 14 42  1  0  0  0  0
 16 43  1  0  0  0  0
 16 44  1  0  0  0  0
 16 45  1  0  0  0  0
 17 46  1  0  0  0  0
 17 47  1  0  0  0  0
 17 48  1  0  0  0  0
M  END
>  <InChIKey>
NWDRKFORNVPWLY-UHFFFAOYSA-N

>  <UN GHS>
1

>  <CASRN>
67151-63-7

> <Outcome>
1

>  <Index>
538

>  <StandardizerResult>
Clear Stereo (ID: ClearStereo)
Wedge Clean (ID: WedgeClean)
Mesomerize (ID: Mesomerize)
Tautomerize (ID: Tautomerize)
Add Explicit Hydrogens (ID: AddExplicitH)
Neutralize (ID: Neutralize)
Clean 2D (ID: Clean2D)

> <knn Distance>


> <CpId>
538

$$$$
550
  Mrv1532301301811342D          

 12 11  0  0  0  0            999 V2000
    1.2719    0.7593    0.0000 C   0  0  0  0  0  0  0  0  0  0  0  0
    0.8594    0.0448    0.0000 C   0  0  0  0  0  0  0  0  0  0  0  0
    1.2719   -0.6697    0.0000 C   0  0  0  0  0  0  0  0  0  0  0  0
    0.0344    0.0448    0.0000 O   0  0  0  0  0  0  0  0  0  0  0  0
    1.9863    0.3468    0.0000 H   0  0  0  0  0  0  0  0  0  0  0  0
    1.6844    1.4737    0.0000 H   0  0  0  0  0  0  0  0  0  0  0  0
    0.5574    1.1718    0.0000 H   0  0  0  0  0  0  0  0  0  0  0  0
    1.6844    0.0448    0.0000 H   0  0  0  0  0  0  0  0  0  0  0  0
    0.4750   -0.8832    0.0000 H   0  0  0  0  0  0  0  0  0  0  0  0
    1.2719   -1.4947    0.0000 H   0  0  0  0  0  0  0  0  0  0  0  0
    2.0688   -0.8832    0.0000 H   0  0  0  0  0  0  0  0  0  0  0  0
   -0.3781    0.7593    0.0000 H   0  0  0  0  0  0  0  0  0  0  0  0
  1  2  1  0  0  0  0
  2  3  1  0  0  0  0
  2  4  1  0  0  0  0
  1  5  1  0  0  0  0
  1  6  1  0  0  0  0
  1  7  1  0  0  0  0
  2  8  1  0  0  0  0
  3  9  1  0  0  0  0
  3 10  1  0  0  0  0
  3 11  1  0  0  0  0
  4 12  1  0  0  0  0
M  END
>  <InChIKey>
OGHBATFHNDZKSO-UHFFFAOYSA-N

>  <UN GHS>
2A

>  <CASRN>
546-68-9

> <Outcome>
1

>  <Index>
550

>  <StandardizerResult>
Clear Stereo (ID: ClearStereo)
Wedge Clean (ID: WedgeClean)
Mesomerize (ID: Mesomerize)
Tautomerize (ID: Tautomerize)
Add Explicit Hydrogens (ID: AddExplicitH)
Neutralize (ID: Neutralize)
Clean 2D (ID: Clean2D)

> <knn Distance>


> <CpId>
550

$$$$
551
  Mrv1532301301811342D          

 47 46  0  0  0  0            999 V2000
    3.5094   -4.0038    0.0000 C   0  0  0  0  0  0  0  0  0  0  0  0
    3.5094   -3.1788    0.0000 C   0  0  0  0  0  0  0  0  0  0  0  0
    2.7949   -2.7663    0.0000 C   0  0  0  0  0  0  0  0  0  0  0  0
    2.0805   -3.1788    0.0000 C   0  0  0  0  0  0  0  0  0  0  0  0
    2.7949   -1.9413    0.0000 N   0  0  0  0  0  0  0  0  0  0  0  0
    2.0805   -1.5288    0.0000 O   0  0  0  0  0  0  0  0  0  0  0  0
    2.0805   -0.7038    0.0000 Si  0  0  0  0  0  0  0  0  0  0  0  0
    2.9055   -0.7038    0.0000 C   0  0  0  0  0  0  0  0  0  0  0  0
    2.0805    0.1212    0.0000 O   0  0  0  0  0  0  0  0  0  0  0  0
    1.3660    0.5337    0.0000 N   0  0  0  0  0  0  0  0  0  0  0  0
    1.3660    1.3587    0.0000 C   0  0  0  0  0  0  0  0  0  0  0  0
    2.0805    1.7712    0.0000 C   0  0  0  0  0  0  0  0  0  0  0  0
    0.6515    1.7712    0.0000 C   0  0  0  0  0  0  0  0  0  0  0  0
   -0.0630    1.3587    0.0000 C   0  0  0  0  0  0  0  0  0  0  0  0
    1.2555   -0.7038    0.0000 O   0  0  0  0  0  0  0  0  0  0  0  0
    0.8430    0.0106    0.0000 N   0  0  0  0  0  0  0  0  0  0  0  0
    0.0180    0.0106    0.0000 C   0  0  0  0  0  0  0  0  0  0  0  0
   -0.3945    0.7251    0.0000 C   0  0  0  0  0  0  0  0  0  0  0  0
   -0.3945   -0.7038    0.0000 C   0  0  0  0  0  0  0  0  0  0  0  0
   -1.2195   -0.7038    0.0000 C   0  0  0  0  0  0  0  0  0  0  0  0
    2.6844   -4.0038    0.0000 H   0  0  0  0  0  0  0  0  0  0  0  0
    3.5094   -4.8288    0.0000 H   0  0  0  0  0  0  0  0  0  0  0  0
    4.3344   -4.0038    0.0000 H   0  0  0  0  0  0  0  0  0  0  0  0
    4.3330   -3.1309    0.0000 H   0  0  0  0  0  0  0  0  0  0  0  0
    3.9627   -2.4896    0.0000 H   0  0  0  0  0  0  0  0  0  0  0  0
    1.6680   -2.4644    0.0000 H   0  0  0  0  0  0  0  0  0  0  0  0
    1.3660   -3.5913    0.0000 H   0  0  0  0  0  0  0  0  0  0  0  0
    2.4930   -3.8933    0.0000 H   0  0  0  0  0  0  0  0  0  0  0  0
    2.9055   -1.5288    0.0000 H   0  0  0  0  0  0  0  0  0  0  0  0
    3.7305   -0.7038    0.0000 H   0  0  0  0  0  0  0  0  0  0  0  0
    2.9055    0.1212    0.0000 H   0  0  0  0  0  0  0  0  0  0  0  0
    2.4930    1.0567    0.0000 H   0  0  0  0  0  0  0  0  0  0  0  0
    2.7949    2.1837    0.0000 H   0  0  0  0  0  0  0  0  0  0  0  0
    1.6680    2.4856    0.0000 H   0  0  0  0  0  0  0  0  0  0  0  0
    1.0218    2.5084    0.0000 H   0  0  0  0  0  0  0  0  0  0  0  0
    0.2813    2.5084    0.0000 H   0  0  0  0  0  0  0  0  0  0  0  0
   -0.3799    2.1204    0.0000 H   0  0  0  0  0  0  0  0  0  0  0  0
   -0.8371    1.6438    0.0000 H   0  0  0  0  0  0  0  0  0  0  0  0
    0.5324    0.7875    0.0000 H   0  0  0  0  0  0  0  0  0  0  0  0
   -0.8290    1.4264    0.0000 H   0  0  0  0  0  0  0  0  0  0  0  0
   -1.2194    0.7080    0.0000 H   0  0  0  0  0  0  0  0  0  0  0  0
   -0.7996    0.0064    0.0000 H   0  0  0  0  0  0  0  0  0  0  0  0
   -0.3466   -1.5274    0.0000 H   0  0  0  0  0  0  0  0  0  0  0  0
    0.2947   -1.1572    0.0000 H   0  0  0  0  0  0  0  0  0  0  0  0
   -1.7984   -0.1160    0.0000 H   0  0  0  0  0  0  0  0  0  0  0  0
   -1.9361   -1.1126    0.0000 H   0  0  0  0  0  0  0  0  0  0  0  0
   -1.0081   -1.5013    0.0000 H   0  0  0  0  0  0  0  0  0  0  0  0
  1  2  1  0  0  0  0
  2  3  1  0  0  0  0
  3  4  1  0  0  0  0
  3  5  2  0  0  0  0
  5  6  1  4  0  0  0
  6  7  1  0  0  0  0
  7  8  1  0  0  0  0
  7  9  1  0  0  0  0
 10  9  1  4  0  0  0
 10 11  2  0  0  0  0
 11 12  1  0  0  0  0
 11 13  1  0  0  0  0
 13 14  1  0  0  0  0
  7 15  1  0  0  0  0
 16 15  1  4  0  0  0
 16 17  2  0  0  0  0
 17 18  1  0  0  0  0
 17 19  1  0  0  0  0
 19 20  1  0  0  0  0
  1 21  1  0  0  0  0
  1 22  1  0  0  0  0
  1 23  1  0  0  0  0
  2 24  1  0  0  0  0
  2 25  1  0  0  0  0
  4 26  1  0  0  0  0
  4 27  1  0  0  0  0
  4 28  1  0  0  0  0
  8 29  1  0  0  0  0
  8 30  1  0  0  0  0
  8 31  1  0  0  0  0
 12 32  1  0  0  0  0
 12 33  1  0  0  0  0
 12 34  1  0  0  0  0
 13 35  1  0  0  0  0
 13 36  1  0  0  0  0
 14 37  1  0  0  0  0
 14 38  1  0  0  0  0
 14 39  1  0  0  0  0
 18 40  1  0  0  0  0
 18 41  1  0  0  0  0
 18 42  1  0  0  0  0
 19 43  1  0  0  0  0
 19 44  1  0  0  0  0
 20 45  1  0  0  0  0
 20 46  1  0  0  0  0
 20 47  1  0  0  0  0
M  END
>  <InChIKey>
OGZPYBBKQGPQNU-DABLZPOSSA-N

>  <UN GHS>
2A

>  <CASRN>
22984-54-9

> <Outcome>
1

>  <Index>
551

>  <StandardizerResult>
Clear Stereo (ID: ClearStereo)
Wedge Clean (ID: WedgeClean)
Mesomerize (ID: Mesomerize)
Tautomerize (ID: Tautomerize)
Add Explicit Hydrogens (ID: AddExplicitH)
Neutralize (ID: Neutralize)
Clean 2D (ID: Clean2D)

> <knn Distance>


> <CpId>
551

$$$$
558
  Mrv1532301301811342D          

 28 29  0  0  0  0            999 V2000
    0.7145   -2.8875    0.0000 O   0  0  0  0  0  0  0  0  0  0  0  0
    0.7145   -2.0625    0.0000 C   0  0  0  0  0  0  0  0  0  0  0  0
    1.4289   -1.6500    0.0000 O   0  0  0  0  0  0  0  0  0  0  0  0
    2.1434   -2.0625    0.0000 O   0  0  0  0  0  0  0  0  0  0  0  0
    2.8579   -1.6500    0.0000 C   0  0  0  0  0  0  0  0  0  0  0  0
    2.8579   -0.8250    0.0000 O   0  0  0  0  0  0  0  0  0  0  0  0
    3.5724   -2.0625    0.0000 C   0  0  0  0  0  0  0  0  0  0  0  0
    4.2868   -1.6500    0.0000 C   0  0  0  0  0  0  0  0  0  0  0  0
    5.0013   -2.0625    0.0000 C   0  0  0  0  0  0  0  0  0  0  0  0
    5.0013   -2.8875    0.0000 C   0  0  0  0  0  0  0  0  0  0  0  0
    4.2868   -3.3000    0.0000 C   0  0  0  0  0  0  0  0  0  0  0  0
    3.5724   -2.8875    0.0000 C   0  0  0  0  0  0  0  0  0  0  0  0
   -0.0000   -1.6500    0.0000 C   0  0  0  0  0  0  0  0  0  0  0  0
   -0.7145   -2.0625    0.0000 C   0  0  0  0  0  0  0  0  0  0  0  0
   -1.4289   -1.6500    0.0000 C   0  0  0  0  0  0  0  0  0  0  0  0
   -1.4289   -0.8250    0.0000 C   0  0  0  0  0  0  0  0  0  0  0  0
   -0.7145   -0.4125    0.0000 C   0  0  0  0  0  0  0  0  0  0  0  0
   -0.0000   -0.8250    0.0000 C   0  0  0  0  0  0  0  0  0  0  0  0
    4.2868   -0.8250    0.0000 H   0  0  0  0  0  0  0  0  0  0  0  0
    5.7158   -1.6500    0.0000 H   0  0  0  0  0  0  0  0  0  0  0  0
    5.7158   -3.3000    0.0000 H   0  0  0  0  0  0  0  0  0  0  0  0
    4.2868   -4.1250    0.0000 H   0  0  0  0  0  0  0  0  0  0  0  0
    2.8579   -3.3000    0.0000 H   0  0  0  0  0  0  0  0  0  0  0  0
   -0.7145   -2.8875    0.0000 H   0  0  0  0  0  0  0  0  0  0  0  0
   -2.1434   -2.0625    0.0000 H   0  0  0  0  0  0  0  0  0  0  0  0
   -2.1434   -0.4125    0.0000 H   0  0  0  0  0  0  0  0  0  0  0  0
   -0.7145    0.4125    0.0000 H   0  0  0  0  0  0  0  0  0  0  0  0
    0.7145   -0.4125    0.0000 H   0  0  0  0  0  0  0  0  0  0  0  0
  1  2  2  0  0  0  0
  2  3  1  0  0  0  0
  3  4  1  0  0  0  0
  4  5  1  0  0  0  0
  5  6  2  0  0  0  0
  5  7  1  0  0  0  0
  7  8  4  0  0  0  0
  8  9  4  0  0  0  0
  9 10  4  0  0  0  0
 10 11  4  0  0  0  0
 11 12  4  0  0  0  0
  7 12  4  0  0  0  0
  2 13  1  0  0  0  0
 13 14  4  0  0  0  0
 14 15  4  0  0  0  0
 15 16  4  0  0  0  0
 16 17  4  0  0  0  0
 17 18  4  0  0  0  0
 13 18  4  0  0  0  0
  8 19  1  0  0  0  0
  9 20  1  0  0  0  0
 10 21  1  0  0  0  0
 11 22  1  0  0  0  0
 12 23  1  0  0  0  0
 14 24  1  0  0  0  0
 15 25  1  0  0  0  0
 16 26  1  0  0  0  0
 17 27  1  0  0  0  0
 18 28  1  0  0  0  0
M  END
>  <InChIKey>
OMPJBNCRMGITSC-UHFFFAOYSA-N

>  <UN GHS>
2A

>  <CASRN>
94-36-0

> <Outcome>
1

>  <Index>
558

>  <StandardizerResult>
Dearomatize (ID: Dearomatize)
Clear Stereo (ID: ClearStereo)
Wedge Clean (ID: WedgeClean)
Mesomerize (ID: Mesomerize)
Tautomerize (ID: Tautomerize)
Aromatize (ID: Aromatize)
Add Explicit Hydrogens (ID: AddExplicitH)
Neutralize (ID: Neutralize)
Clean 2D (ID: Clean2D)

> <knn Distance>


> <CpId>
558

$$$$
562
  Mrv1532301301811342D          

 31 31  0  0  0  0            999 V2000
    0.7208    2.0229    0.0000 C   0  0  0  0  0  0  0  0  0  0  0  0
    0.7208    1.1979    0.0000 C   0  0  0  0  0  0  0  0  0  0  0  0
    1.4353    0.7854    0.0000 C   0  0  0  0  0  0  0  0  0  0  0  0
    1.4353   -0.0396    0.0000 C   0  0  0  0  0  0  0  0  0  0  0  0
    2.1497   -0.4521    0.0000 C   0  0  0  0  0  0  0  0  0  0  0  0
    0.7208   -0.4521    0.0000 C   0  0  0  0  0  0  0  0  0  0  0  0
    0.7208   -1.2771    0.0000 O   0  0  0  0  0  0  0  0  0  0  0  0
    0.0063   -0.0396    0.0000 C   0  0  0  0  0  0  0  0  0  0  0  0
    0.0063    0.7854    0.0000 C   0  0  0  0  0  0  0  0  0  0  0  0
   -0.7082   -0.4521    0.0000 C   0  0  0  0  0  0  0  0  0  0  0  0
   -1.4226   -0.8646    0.0000 C   0  0  0  0  0  0  0  0  0  0  0  0
   -1.1207    0.2624    0.0000 C   0  0  0  0  0  0  0  0  0  0  0  0
   -0.2957   -1.1666    0.0000 C   0  0  0  0  0  0  0  0  0  0  0  0
    1.5458    2.0229    0.0000 H   0  0  0  0  0  0  0  0  0  0  0  0
    0.7208    2.8479    0.0000 H   0  0  0  0  0  0  0  0  0  0  0  0
   -0.1042    2.0229    0.0000 H   0  0  0  0  0  0  0  0  0  0  0  0
    2.1497    1.1979    0.0000 H   0  0  0  0  0  0  0  0  0  0  0  0
    1.7372   -1.1666    0.0000 H   0  0  0  0  0  0  0  0  0  0  0  0
    2.8642   -0.8646    0.0000 H   0  0  0  0  0  0  0  0  0  0  0  0
    2.5622    0.2624    0.0000 H   0  0  0  0  0  0  0  0  0  0  0  0
    0.0063   -1.6896    0.0000 H   0  0  0  0  0  0  0  0  0  0  0  0
   -0.7082    1.1979    0.0000 H   0  0  0  0  0  0  0  0  0  0  0  0
   -1.8351   -0.1501    0.0000 H   0  0  0  0  0  0  0  0  0  0  0  0
   -2.1371   -1.2771    0.0000 H   0  0  0  0  0  0  0  0  0  0  0  0
   -1.0101   -1.5791    0.0000 H   0  0  0  0  0  0  0  0  0  0  0  0
   -0.3027    0.3701    0.0000 H   0  0  0  0  0  0  0  0  0  0  0  0
   -0.9071    1.0593    0.0000 H   0  0  0  0  0  0  0  0  0  0  0  0
   -1.7752    0.7646    0.0000 H   0  0  0  0  0  0  0  0  0  0  0  0
    0.5168   -1.0233    0.0000 H   0  0  0  0  0  0  0  0  0  0  0  0
    0.2346   -0.5346    0.0000 H   0  0  0  0  0  0  0  0  0  0  0  0
   -0.5092   -1.9635    0.0000 H   0  0  0  0  0  0  0  0  0  0  0  0
  1  2  1  0  0  0  0
  2  3  4  0  0  0  0
  3  4  4  0  0  0  0
  4  5  1  0  0  0  0
  4  6  4  0  0  0  0
  6  7  1  0  0  0  0
  6  8  4  0  0  0  0
  8  9  4  0  0  0  0
  2  9  4  0  0  0  0
  8 10  1  0  0  0  0
 10 11  1  0  0  0  0
 10 12  1  0  0  0  0
 10 13  1  0  0  0  0
  1 14  1  0  0  0  0
  1 15  1  0  0  0  0
  1 16  1  0  0  0  0
  3 17  1  0  0  0  0
  5 18  1  0  0  0  0
  5 19  1  0  0  0  0
  5 20  1  0  0  0  0
  7 21  1  0  0  0  0
  9 22  1  0  0  0  0
 11 23  1  0  0  0  0
 11 24  1  0  0  0  0
 11 25  1  0  0  0  0
 12 26  1  0  0  0  0
 12 27  1  0  0  0  0
 12 28  1  0  0  0  0
 13 29  1  0  0  0  0
 13 30  1  0  0  0  0
 13 31  1  0  0  0  0
M  END
>  <InChIKey>
OPLCSTZDXXUYDU-UHFFFAOYSA-N

>  <UN GHS>
2A

>  <CASRN>
1879-09-0

> <Outcome>
1

>  <Index>
562

>  <StandardizerResult>
Dearomatize (ID: Dearomatize)
Clear Stereo (ID: ClearStereo)
Wedge Clean (ID: WedgeClean)
Mesomerize (ID: Mesomerize)
Tautomerize (ID: Tautomerize)
Aromatize (ID: Aromatize)
Add Explicit Hydrogens (ID: AddExplicitH)
Neutralize (ID: Neutralize)
Clean 2D (ID: Clean2D)

> <knn Distance>


> <CpId>
562

$$$$
566
  Mrv1532301301811342D          

 26 25  0  0  0  0            999 V2000
    2.9980    2.5573    0.0000 N   0  0  0  0  0  0  0  0  0  0  0  0
    3.7125    2.1448    0.0000 C   0  0  0  0  0  0  0  0  0  0  0  0
    4.4270    2.5573    0.0000 C   0  0  0  0  0  0  0  0  0  0  0  0
    5.1414    2.1448    0.0000 C   0  0  0  0  0  0  0  0  0  0  0  0
    5.8559    2.5573    0.0000 N   0  0  0  0  0  0  0  0  0  0  0  0
    6.5704    2.1448    0.0000 C   0  0  0  0  0  0  0  0  0  0  0  0
    7.2849    2.5573    0.0000 C   0  0  0  0  0  0  0  0  0  0  0  0
    7.9993    2.1448    0.0000 C   0  0  0  0  0  0  0  0  0  0  0  0
    8.7138    2.5573    0.0000 N   0  0  0  0  0  0  0  0  0  0  0  0
    2.9980    3.3823    0.0000 H   0  0  0  0  0  0  0  0  0  0  0  0
    2.2836    2.1448    0.0000 H   0  0  0  0  0  0  0  0  0  0  0  0
    3.3422    1.4075    0.0000 H   0  0  0  0  0  0  0  0  0  0  0  0
    4.0828    1.4075    0.0000 H   0  0  0  0  0  0  0  0  0  0  0  0
    4.7972    3.2945    0.0000 H   0  0  0  0  0  0  0  0  0  0  0  0
    4.0567    3.2945    0.0000 H   0  0  0  0  0  0  0  0  0  0  0  0
    4.7712    1.4075    0.0000 H   0  0  0  0  0  0  0  0  0  0  0  0
    5.5117    1.4075    0.0000 H   0  0  0  0  0  0  0  0  0  0  0  0
    5.8559    3.3823    0.0000 H   0  0  0  0  0  0  0  0  0  0  0  0
    6.2001    1.4075    0.0000 H   0  0  0  0  0  0  0  0  0  0  0  0
    6.9406    1.4075    0.0000 H   0  0  0  0  0  0  0  0  0  0  0  0
    7.6551    3.2945    0.0000 H   0  0  0  0  0  0  0  0  0  0  0  0
    6.9146    3.2945    0.0000 H   0  0  0  0  0  0  0  0  0  0  0  0
    7.6291    1.4075    0.0000 H   0  0  0  0  0  0  0  0  0  0  0  0
    8.3696    1.4075    0.0000 H   0  0  0  0  0  0  0  0  0  0  0  0
    9.4283    2.1448    0.0000 H   0  0  0  0  0  0  0  0  0  0  0  0
    8.7138    3.3823    0.0000 H   0  0  0  0  0  0  0  0  0  0  0  0
  1  2  1  0  0  0  0
  2  3  1  0  0  0  0
  3  4  1  0  0  0  0
  4  5  1  0  0  0  0
  5  6  1  0  0  0  0
  6  7  1  0  0  0  0
  7  8  1  0  0  0  0
  8  9  1  0  0  0  0
  1 10  1  0  0  0  0
  1 11  1  0  0  0  0
  2 12  1  0  0  0  0
  2 13  1  0  0  0  0
  3 14  1  0  0  0  0
  3 15  1  0  0  0  0
  4 16  1  0  0  0  0
  4 17  1  0  0  0  0
  5 18  1  0  0  0  0
  6 19  1  0  0  0  0
  6 20  1  0  0  0  0
  7 21  1  0  0  0  0
  7 22  1  0  0  0  0
  8 23  1  0  0  0  0
  8 24  1  0  0  0  0
  9 25  1  0  0  0  0
  9 26  1  0  0  0  0
M  END
>  <InChIKey>
OTBHHUPVCYLGQO-UHFFFAOYSA-N

>  <UN GHS>
1

>  <CASRN>
56-18-8

> <Outcome>
1

>  <Index>
566

>  <StandardizerResult>
Clear Stereo (ID: ClearStereo)
Wedge Clean (ID: WedgeClean)
Mesomerize (ID: Mesomerize)
Tautomerize (ID: Tautomerize)
Add Explicit Hydrogens (ID: AddExplicitH)
Neutralize (ID: Neutralize)
Clean 2D (ID: Clean2D)

> <knn Distance>


> <CpId>
566

$$$$
569
  Mrv1532301301811342D          

 78 77  0  0  0  0            999 V2000
   10.4212    6.8589    0.0000 C   0  0  0  0  0  0  0  0  0  0  0  0
   11.1357    6.4464    0.0000 C   0  0  0  0  0  0  0  0  0  0  0  0
   11.8502    6.8589    0.0000 C   0  0  0  0  0  0  0  0  0  0  0  0
   12.5647    6.4464    0.0000 C   0  0  0  0  0  0  0  0  0  0  0  0
   13.2791    6.8589    0.0000 C   0  0  0  0  0  0  0  0  0  0  0  0
   13.9936    6.4464    0.0000 C   0  0  0  0  0  0  0  0  0  0  0  0
   14.7081    6.8589    0.0000 C   0  0  0  0  0  0  0  0  0  0  0  0
   15.4225    6.4464    0.0000 C   0  0  0  0  0  0  0  0  0  0  0  0
   16.1370    6.8589    0.0000 C   0  0  0  0  0  0  0  0  0  0  0  0
   16.8515    6.4464    0.0000 C   0  0  0  0  0  0  0  0  0  0  0  0
   17.5659    6.8589    0.0000 C   0  0  0  0  0  0  0  0  0  0  0  0
   18.2804    6.4464    0.0000 C   0  0  0  0  0  0  0  0  0  0  0  0
   18.9949    6.8589    0.0000 C   0  0  0  0  0  0  0  0  0  0  0  0
   19.7094    6.4464    0.0000 C   0  0  0  0  0  0  0  0  0  0  0  0
   20.4238    6.8589    0.0000 C   0  0  0  0  0  0  0  0  0  0  0  0
   21.1383    6.4464    0.0000 C   0  0  0  0  0  0  0  0  0  0  0  0
   21.8528    6.8589    0.0000 C   0  0  0  0  0  0  0  0  0  0  0  0
   22.5672    6.4464    0.0000 C   0  0  0  0  0  0  0  0  0  0  0  0
   23.2817    6.8589    0.0000 O   0  0  0  0  0  0  0  0  0  0  0  0
   23.9962    6.4464    0.0000 C   0  0  0  0  0  0  0  0  0  0  0  0
   24.7107    6.8589    0.0000 C   0  0  0  0  0  0  0  0  0  0  0  0
   25.4251    6.4464    0.0000 C   0  0  0  0  0  0  0  0  0  0  0  0
   26.1396    6.8589    0.0000 N   0  3  0  0  0  0  0  0  0  0  0  0
   26.8541    7.2714    0.0000 C   0  0  0  0  0  0  0  0  0  0  0  0
   26.5521    6.1444    0.0000 C   0  0  0  0  0  0  0  0  0  0  0  0
   25.7271    7.5734    0.0000 C   0  0  0  0  0  0  0  0  0  0  0  0
   10.8337    7.5734    0.0000 H   0  0  0  0  0  0  0  0  0  0  0  0
    9.7068    7.2714    0.0000 H   0  0  0  0  0  0  0  0  0  0  0  0
   10.0087    6.1444    0.0000 H   0  0  0  0  0  0  0  0  0  0  0  0
   10.7655    5.7091    0.0000 H   0  0  0  0  0  0  0  0  0  0  0  0
   11.5060    5.7091    0.0000 H   0  0  0  0  0  0  0  0  0  0  0  0
   12.2204    7.5961    0.0000 H   0  0  0  0  0  0  0  0  0  0  0  0
   11.4799    7.5961    0.0000 H   0  0  0  0  0  0  0  0  0  0  0  0
   12.1944    5.7091    0.0000 H   0  0  0  0  0  0  0  0  0  0  0  0
   12.9349    5.7091    0.0000 H   0  0  0  0  0  0  0  0  0  0  0  0
   13.6494    7.5961    0.0000 H   0  0  0  0  0  0  0  0  0  0  0  0
   12.9089    7.5961    0.0000 H   0  0  0  0  0  0  0  0  0  0  0  0
   13.6233    5.7091    0.0000 H   0  0  0  0  0  0  0  0  0  0  0  0
   14.3639    5.7091    0.0000 H   0  0  0  0  0  0  0  0  0  0  0  0
   15.0783    7.5961    0.0000 H   0  0  0  0  0  0  0  0  0  0  0  0
   14.3378    7.5961    0.0000 H   0  0  0  0  0  0  0  0  0  0  0  0
   15.0523    5.7091    0.0000 H   0  0  0  0  0  0  0  0  0  0  0  0
   15.7928    5.7091    0.0000 H   0  0  0  0  0  0  0  0  0  0  0  0
   16.5073    7.5961    0.0000 H   0  0  0  0  0  0  0  0  0  0  0  0
   15.7667    7.5961    0.0000 H   0  0  0  0  0  0  0  0  0  0  0  0
   16.4812    5.7091    0.0000 H   0  0  0  0  0  0  0  0  0  0  0  0
   17.2217    5.7091    0.0000 H   0  0  0  0  0  0  0  0  0  0  0  0
   17.9362    7.5961    0.0000 H   0  0  0  0  0  0  0  0  0  0  0  0
   17.1957    7.5961    0.0000 H   0  0  0  0  0  0  0  0  0  0  0  0
   17.9102    5.7091    0.0000 H   0  0  0  0  0  0  0  0  0  0  0  0
   18.6507    5.7091    0.0000 H   0  0  0  0  0  0  0  0  0  0  0  0
   19.3651    7.5961    0.0000 H   0  0  0  0  0  0  0  0  0  0  0  0
   18.6246    7.5961    0.0000 H   0  0  0  0  0  0  0  0  0  0  0  0
   19.3391    5.7091    0.0000 H   0  0  0  0  0  0  0  0  0  0  0  0
   20.0796    5.7091    0.0000 H   0  0  0  0  0  0  0  0  0  0  0  0
   20.7941    7.5961    0.0000 H   0  0  0  0  0  0  0  0  0  0  0  0
   20.0536    7.5961    0.0000 H   0  0  0  0  0  0  0  0  0  0  0  0
   20.7680    5.7091    0.0000 H   0  0  0  0  0  0  0  0  0  0  0  0
   21.5086    5.7091    0.0000 H   0  0  0  0  0  0  0  0  0  0  0  0
   22.2230    7.5961    0.0000 H   0  0  0  0  0  0  0  0  0  0  0  0
   21.4825    7.5961    0.0000 H   0  0  0  0  0  0  0  0  0  0  0  0
   22.1970    5.7091    0.0000 H   0  0  0  0  0  0  0  0  0  0  0  0
   22.9375    5.7091    0.0000 H   0  0  0  0  0  0  0  0  0  0  0  0
   23.6259    5.7091    0.0000 H   0  0  0  0  0  0  0  0  0  0  0  0
   24.3664    5.7091    0.0000 H   0  0  0  0  0  0  0  0  0  0  0  0
   25.0809    7.5961    0.0000 H   0  0  0  0  0  0  0  0  0  0  0  0
   24.3404    7.5961    0.0000 H   0  0  0  0  0  0  0  0  0  0  0  0
   25.0549    5.7091    0.0000 H   0  0  0  0  0  0  0  0  0  0  0  0
   25.7954    5.7091    0.0000 H   0  0  0  0  0  0  0  0  0  0  0  0
   27.2666    6.5569    0.0000 H   0  0  0  0  0  0  0  0  0  0  0  0
   27.5685    7.6839    0.0000 H   0  0  0  0  0  0  0  0  0  0  0  0
   26.4416    7.9859    0.0000 H   0  0  0  0  0  0  0  0  0  0  0  0
   26.3376    5.3478    0.0000 H   0  0  0  0  0  0  0  0  0  0  0  0
   26.9640    5.4296    0.0000 H   0  0  0  0  0  0  0  0  0  0  0  0
   27.3489    5.9306    0.0000 H   0  0  0  0  0  0  0  0  0  0  0  0
   25.8799    8.3841    0.0000 H   0  0  0  0  0  0  0  0  0  0  0  0
   25.2118    8.2176    0.0000 H   0  0  0  0  0  0  0  0  0  0  0  0
   25.3021    6.8663    0.0000 H   0  0  0  0  0  0  0  0  0  0  0  0
  1  2  1  0  0  0  0
  2  3  1  0  0  0  0
  3  4  1  0  0  0  0
  4  5  1  0  0  0  0
  5  6  1  0  0  0  0
  6  7  1  0  0  0  0
  7  8  1  0  0  0  0
  8  9  1  0  0  0  0
  9 10  1  0  0  0  0
 10 11  1  0  0  0  0
 11 12  1  0  0  0  0
 12 13  1  0  0  0  0
 13 14  1  0  0  0  0
 14 15  1  0  0  0  0
 15 16  1  0  0  0  0
 16 17  1  0  0  0  0
 17 18  1  0  0  0  0
 18 19  1  0  0  0  0
 19 20  1  0  0  0  0
 20 21  1  0  0  0  0
 21 22  1  0  0  0  0
 22 23  1  0  0  0  0
 23 24  1  0  0  0  0
 23 25  1  0  0  0  0
 23 26  1  0  0  0  0
  1 27  1  0  0  0  0
  1 28  1  0  0  0  0
  1 29  1  0  0  0  0
  2 30  1  0  0  0  0
  2 31  1  0  0  0  0
  3 32  1  0  0  0  0
  3 33  1  0  0  0  0
  4 34  1  0  0  0  0
  4 35  1  0  0  0  0
  5 36  1  0  0  0  0
  5 37  1  0  0  0  0
  6 38  1  0  0  0  0
  6 39  1  0  0  0  0
  7 40  1  0  0  0  0
  7 41  1  0  0  0  0
  8 42  1  0  0  0  0
  8 43  1  0  0  0  0
  9 44  1  0  0  0  0
  9 45  1  0  0  0  0
 10 46  1  0  0  0  0
 10 47  1  0  0  0  0
 11 48  1  0  0  0  0
 11 49  1  0  0  0  0
 12 50  1  0  0  0  0
 12 51  1  0  0  0  0
 13 52  1  0  0  0  0
 13 53  1  0  0  0  0
 14 54  1  0  0  0  0
 14 55  1  0  0  0  0
 15 56  1  0  0  0  0
 15 57  1  0  0  0  0
 16 58  1  0  0  0  0
 16 59  1  0  0  0  0
 17 60  1  0  0  0  0
 17 61  1  0  0  0  0
 18 62  1  0  0  0  0
 18 63  1  0  0  0  0
 20 64  1  0  0  0  0
 20 65  1  0  0  0  0
 21 66  1  0  0  0  0
 21 67  1  0  0  0  0
 22 68  1  0  0  0  0
 22 69  1  0  0  0  0
 24 70  1  0  0  0  0
 24 71  1  0  0  0  0
 24 72  1  0  0  0  0
 25 73  1  0  0  0  0
 25 74  1  0  0  0  0
 25 75  1  0  0  0  0
 26 76  1  0  0  0  0
 26 77  1  0  0  0  0
 26 78  1  0  0  0  0
M  CHG  1  23   1
M  END
>  <InChIKey>
OWMLFDGBZCHKOL-UHFFFAOYSA-N

>  <UN GHS>
1

>  <CASRN>
23328-71-4

> <Outcome>
1

>  <Index>
569

>  <StandardizerResult>
Clear Stereo (ID: ClearStereo)
Wedge Clean (ID: WedgeClean)
Mesomerize (ID: Mesomerize)
Tautomerize (ID: Tautomerize)
Add Explicit Hydrogens (ID: AddExplicitH)
Clean 2D (ID: Clean2D)

> <knn Distance>


> <CpId>
569

$$$$
570
  Mrv1532301301811342D          

 30 30  0  0  0  0            999 V2000
   -0.0626   -2.4735    0.0000 O   0  0  0  0  0  0  0  0  0  0  0  0
    0.6519   -2.8860    0.0000 C   0  0  0  0  0  0  0  0  0  0  0  0
    1.3664   -2.4735    0.0000 C   0  0  0  0  0  0  0  0  0  0  0  0
    1.3664   -1.6485    0.0000 O   0  0  0  0  0  0  0  0  0  0  0  0
    2.0808   -2.8860    0.0000 C   0  0  0  0  0  0  0  0  0  0  0  0
    2.7953   -2.4735    0.0000 O   0  0  0  0  0  0  0  0  0  0  0  0
    3.5098   -2.8860    0.0000 C   0  0  0  0  0  0  0  0  0  0  0  0
    4.2243   -2.4735    0.0000 C   0  0  0  0  0  0  0  0  0  0  0  0
    4.9387   -2.8860    0.0000 C   0  0  0  0  0  0  0  0  0  0  0  0
    4.9387   -3.7110    0.0000 C   0  0  0  0  0  0  0  0  0  0  0  0
    4.2243   -4.1235    0.0000 C   0  0  0  0  0  0  0  0  0  0  0  0
    3.5098   -3.7110    0.0000 C   0  0  0  0  0  0  0  0  0  0  0  0
   -0.0626   -1.6485    0.0000 H   0  0  0  0  0  0  0  0  0  0  0  0
    0.2816   -3.6233    0.0000 H   0  0  0  0  0  0  0  0  0  0  0  0
    1.0222   -3.6233    0.0000 H   0  0  0  0  0  0  0  0  0  0  0  0
    0.6519   -2.0610    0.0000 H   0  0  0  0  0  0  0  0  0  0  0  0
    1.7789   -0.9340    0.0000 H   0  0  0  0  0  0  0  0  0  0  0  0
    1.7106   -3.6233    0.0000 H   0  0  0  0  0  0  0  0  0  0  0  0
    2.4511   -3.6233    0.0000 H   0  0  0  0  0  0  0  0  0  0  0  0
    2.7953   -3.2985    0.0000 H   0  0  0  0  0  0  0  0  0  0  0  0
    4.5945   -1.7363    0.0000 H   0  0  0  0  0  0  0  0  0  0  0  0
    3.8540   -1.7363    0.0000 H   0  0  0  0  0  0  0  0  0  0  0  0
    5.7623   -2.8380    0.0000 H   0  0  0  0  0  0  0  0  0  0  0  0
    5.3921   -2.1967    0.0000 H   0  0  0  0  0  0  0  0  0  0  0  0
    5.3921   -4.4003    0.0000 H   0  0  0  0  0  0  0  0  0  0  0  0
    5.7623   -3.7590    0.0000 H   0  0  0  0  0  0  0  0  0  0  0  0
    3.8540   -4.8608    0.0000 H   0  0  0  0  0  0  0  0  0  0  0  0
    4.5945   -4.8608    0.0000 H   0  0  0  0  0  0  0  0  0  0  0  0
    2.8778   -4.2413    0.0000 H   0  0  0  0  0  0  0  0  0  0  0  0
    3.3665   -4.5235    0.0000 H   0  0  0  0  0  0  0  0  0  0  0  0
  1  2  1  0  0  0  0
  2  3  1  0  0  0  0
  3  4  1  0  0  0  0
  3  5  1  0  0  0  0
  5  6  1  0  0  0  0
  6  7  1  0  0  0  0
  7  8  1  0  0  0  0
  8  9  1  0  0  0  0
  9 10  1  0  0  0  0
 10 11  1  0  0  0  0
 11 12  1  0  0  0  0
  7 12  1  0  0  0  0
  1 13  1  0  0  0  0
  2 14  1  0  0  0  0
  2 15  1  0  0  0  0
  3 16  1  0  0  0  0
  4 17  1  0  0  0  0
  5 18  1  0  0  0  0
  5 19  1  0  0  0  0
  7 20  1  0  0  0  0
  8 21  1  0  0  0  0
  8 22  1  0  0  0  0
  9 23  1  0  0  0  0
  9 24  1  0  0  0  0
 10 25  1  0  0  0  0
 10 26  1  0  0  0  0
 11 27  1  0  0  0  0
 11 28  1  0  0  0  0
 12 29  1  0  0  0  0
 12 30  1  0  0  0  0
M  END
>  <InChIKey>
OWTXHZITCDRRTI-UHFFFAOYSA-N

>  <UN GHS>
1

>  <CASRN>
10305-41-6

> <Outcome>
1

>  <Index>
570

>  <StandardizerResult>
Clear Stereo (ID: ClearStereo)
Wedge Clean (ID: WedgeClean)
Mesomerize (ID: Mesomerize)
Tautomerize (ID: Tautomerize)
Add Explicit Hydrogens (ID: AddExplicitH)
Neutralize (ID: Neutralize)
Clean 2D (ID: Clean2D)

> <knn Distance>


> <CpId>
570

$$$$
572
  Mrv1532301301811342D          

 29 29  0  0  0  0            999 V2000
    1.4423    3.3063    0.0000 C   0  0  0  0  0  0  0  0  0  0  0  0
    1.4423    2.4813    0.0000 C   0  0  0  0  0  0  0  0  0  0  0  0
    0.7278    2.0688    0.0000 C   0  0  0  0  0  0  0  0  0  0  0  0
    0.0134    2.4813    0.0000 C   0  0  0  0  0  0  0  0  0  0  0  0
    0.7278    1.2438    0.0000 C   0  0  0  0  0  0  0  0  0  0  0  0
    1.4423    0.8313    0.0000 C   0  0  0  0  0  0  0  0  0  0  0  0
    1.4423    0.0063    0.0000 C   0  0  0  0  0  0  0  0  0  0  0  0
    0.7278   -0.4062    0.0000 C   0  0  0  0  0  0  0  0  0  0  0  0
    0.0134    0.0063    0.0000 C   0  0  0  0  0  0  0  0  0  0  0  0
    0.0134    0.8313    0.0000 C   0  0  0  0  0  0  0  0  0  0  0  0
   -0.7011    1.2438    0.0000 O   0  0  0  0  0  0  0  0  0  0  0  0
   -0.7011   -0.4062    0.0000 N   0  0  0  0  0  0  0  0  0  0  0  0
   -0.7011   -1.2312    0.0000 O   0  0  0  0  0  0  0  0  0  0  0  0
   -1.4156    0.0063    0.0000 O   0  0  0  0  0  0  0  0  0  0  0  0
    2.1568   -0.4062    0.0000 N   0  0  0  0  0  0  0  0  0  0  0  0
    2.1568   -1.2312    0.0000 O   0  0  0  0  0  0  0  0  0  0  0  0
    2.8712    0.0063    0.0000 O   0  0  0  0  0  0  0  0  0  0  0  0
    2.2673    3.3063    0.0000 H   0  0  0  0  0  0  0  0  0  0  0  0
    1.4423    4.1313    0.0000 H   0  0  0  0  0  0  0  0  0  0  0  0
    0.6173    3.3063    0.0000 H   0  0  0  0  0  0  0  0  0  0  0  0
    1.8956    1.7920    0.0000 H   0  0  0  0  0  0  0  0  0  0  0  0
    2.2659    2.4333    0.0000 H   0  0  0  0  0  0  0  0  0  0  0  0
    0.7278    2.8938    0.0000 H   0  0  0  0  0  0  0  0  0  0  0  0
   -0.2002    3.2782    0.0000 H   0  0  0  0  0  0  0  0  0  0  0  0
   -0.8116    2.4813    0.0000 H   0  0  0  0  0  0  0  0  0  0  0  0
   -0.2002    1.6844    0.0000 H   0  0  0  0  0  0  0  0  0  0  0  0
    2.1568    1.2438    0.0000 H   0  0  0  0  0  0  0  0  0  0  0  0
    0.7278   -1.2312    0.0000 H   0  0  0  0  0  0  0  0  0  0  0  0
   -1.5221    1.1623    0.0000 H   0  0  0  0  0  0  0  0  0  0  0  0
  1  2  1  0  0  0  0
  2  3  1  0  0  0  0
  3  4  1  0  0  0  0
  3  5  1  0  0  0  0
  5  6  4  0  0  0  0
  6  7  4  0  0  0  0
  7  8  4  0  0  0  0
  8  9  4  0  0  0  0
  9 10  4  0  0  0  0
  5 10  4  0  0  0  0
 10 11  1  0  0  0  0
  9 12  1  0  0  0  0
 12 13  2  0  0  0  0
 12 14  2  0  0  0  0
  7 15  1  0  0  0  0
 15 16  2  0  0  0  0
 15 17  2  0  0  0  0
  1 18  1  0  0  0  0
  1 19  1  0  0  0  0
  1 20  1  0  0  0  0
  2 21  1  0  0  0  0
  2 22  1  0  0  0  0
  3 23  1  0  0  0  0
  4 24  1  0  0  0  0
  4 25  1  0  0  0  0
  4 26  1  0  0  0  0
  6 27  1  0  0  0  0
  8 28  1  0  0  0  0
 11 29  1  0  0  0  0
M  END
>  <InChIKey>
OWZPCEFYPSAJFR-UHFFFAOYSA-N

>  <UN GHS>
2A

>  <CASRN>
88-85-7

> <Outcome>
1

>  <Index>
572

>  <StandardizerResult>
Dearomatize (ID: Dearomatize)
Clear Stereo (ID: ClearStereo)
Wedge Clean (ID: WedgeClean)
Mesomerize (ID: Mesomerize)
Tautomerize (ID: Tautomerize)
Aromatize (ID: Aromatize)
Add Explicit Hydrogens (ID: AddExplicitH)
Neutralize (ID: Neutralize)
Clean 2D (ID: Clean2D)

> <knn Distance>


> <CpId>
572

$$$$
575
  Mrv1532301301811342D          

 24 23  0  0  0  0            999 V2000
    1.9520    0.3020    0.0000 C   0  0  0  0  0  0  0  0  0  0  0  0
    1.2375    0.7145    0.0000 C   0  0  0  0  0  0  0  0  0  0  0  0
    0.5230    1.1270    0.0000 C   0  0  0  0  0  0  0  0  0  0  0  0
    0.8250    0.0000    0.0000 N   0  0  0  0  0  0  0  0  0  0  0  0
    0.0000    0.0000    0.0000 N   0  0  0  0  0  0  0  0  0  0  0  0
   -0.4125   -0.7145    0.0000 C   0  0  0  0  0  0  0  0  0  0  0  0
    0.3020   -1.1270    0.0000 C   0  0  0  0  0  0  0  0  0  0  0  0
   -1.1270   -0.3020    0.0000 C   0  0  0  0  0  0  0  0  0  0  0  0
   -0.8250   -1.4289    0.0000 C   0  0  0  0  0  0  0  0  0  0  0  0
   -1.2375   -2.1434    0.0000 N   0  0  0  0  0  0  0  0  0  0  0  0
    1.6500    1.4289    0.0000 C   0  0  0  0  0  0  0  0  0  0  0  0
    2.0625    2.1434    0.0000 N   0  0  0  0  0  0  0  0  0  0  0  0
    1.5395   -0.4125    0.0000 H   0  0  0  0  0  0  0  0  0  0  0  0
    2.6664   -0.1105    0.0000 H   0  0  0  0  0  0  0  0  0  0  0  0
    2.3645    1.0164    0.0000 H   0  0  0  0  0  0  0  0  0  0  0  0
    0.9355    1.8414    0.0000 H   0  0  0  0  0  0  0  0  0  0  0  0
   -0.1914    1.5395    0.0000 H   0  0  0  0  0  0  0  0  0  0  0  0
    0.1105    0.4125    0.0000 H   0  0  0  0  0  0  0  0  0  0  0  0
   -0.1105   -1.8414    0.0000 H   0  0  0  0  0  0  0  0  0  0  0  0
    1.0164   -1.5395    0.0000 H   0  0  0  0  0  0  0  0  0  0  0  0
    0.7145   -0.4125    0.0000 H   0  0  0  0  0  0  0  0  0  0  0  0
   -0.7145    0.4125    0.0000 H   0  0  0  0  0  0  0  0  0  0  0  0
   -1.8414    0.1105    0.0000 H   0  0  0  0  0  0  0  0  0  0  0  0
   -1.5395   -1.0164    0.0000 H   0  0  0  0  0  0  0  0  0  0  0  0
  1  2  1  0  0  0  0
  2  3  1  0  0  0  0
  4  2  1  4  0  0  0
  4  5  2  0  0  0  0
  5  6  1  0  0  0  0
  6  7  1  0  0  0  0
  6  8  1  0  0  0  0
  6  9  1  0  0  0  0
  9 10  3  0  0  0  0
  2 11  1  0  0  0  0
 11 12  3  0  0  0  0
  1 13  1  0  0  0  0
  1 14  1  0  0  0  0
  1 15  1  0  0  0  0
  3 16  1  0  0  0  0
  3 17  1  0  0  0  0
  3 18  1  0  0  0  0
  7 19  1  0  0  0  0
  7 20  1  0  0  0  0
  7 21  1  0  0  0  0
  8 22  1  0  0  0  0
  8 23  1  0  0  0  0
  8 24  1  0  0  0  0
M  END
>  <InChIKey>
OZAIFHULBGXAKX-UHFFFAOYSA-N

>  <UN GHS>
2B

>  <CASRN>
78-67-1

> <Outcome>
1

>  <Index>
575

>  <StandardizerResult>
Clear Stereo (ID: ClearStereo)
Wedge Clean (ID: WedgeClean)
Mesomerize (ID: Mesomerize)
Tautomerize (ID: Tautomerize)
Add Explicit Hydrogens (ID: AddExplicitH)
Neutralize (ID: Neutralize)
Clean 2D (ID: Clean2D)

> <knn Distance>


> <CpId>
575

$$$$
577
  Mrv1532301301811342D          

 15 15  0  0  0  0            999 V2000
    2.5883   -0.5582    0.0000 O   0  0  0  0  0  0  0  0  0  0  0  0
    1.8738   -0.1457    0.0000 C   0  0  0  0  0  0  0  0  0  0  0  0
    1.1594   -0.5582    0.0000 C   0  0  0  0  0  0  0  0  0  0  0  0
    0.4449   -0.1457    0.0000 C   0  0  0  0  0  0  0  0  0  0  0  0
    0.4449    0.6793    0.0000 C   0  0  0  0  0  0  0  0  0  0  0  0
    1.1594    1.0918    0.0000 C   0  0  0  0  0  0  0  0  0  0  0  0
    1.8738    0.6793    0.0000 O   0  0  0  0  0  0  0  0  0  0  0  0
    0.7891   -1.2954    0.0000 H   0  0  0  0  0  0  0  0  0  0  0  0
    1.5296   -1.2954    0.0000 H   0  0  0  0  0  0  0  0  0  0  0  0
   -0.3787   -0.1937    0.0000 H   0  0  0  0  0  0  0  0  0  0  0  0
   -0.0084   -0.8350    0.0000 H   0  0  0  0  0  0  0  0  0  0  0  0
   -0.0084    1.3686    0.0000 H   0  0  0  0  0  0  0  0  0  0  0  0
   -0.3787    0.7273    0.0000 H   0  0  0  0  0  0  0  0  0  0  0  0
    1.5296    1.8291    0.0000 H   0  0  0  0  0  0  0  0  0  0  0  0
    0.7891    1.8291    0.0000 H   0  0  0  0  0  0  0  0  0  0  0  0
  1  2  2  0  0  0  0
  2  3  1  0  0  0  0
  3  4  1  0  0  0  0
  4  5  1  0  0  0  0
  5  6  1  0  0  0  0
  6  7  1  0  0  0  0
  2  7  1  0  0  0  0
  3  8  1  0  0  0  0
  3  9  1  0  0  0  0
  4 10  1  0  0  0  0
  4 11  1  0  0  0  0
  5 12  1  0  0  0  0
  5 13  1  0  0  0  0
  6 14  1  0  0  0  0
  6 15  1  0  0  0  0
M  END
>  <InChIKey>
OZJPLYNZGCXSJM-UHFFFAOYSA-N

>  <UN GHS>
1

>  <CASRN>
542-28-9

> <Outcome>
1

>  <Index>
577

>  <StandardizerResult>
Clear Stereo (ID: ClearStereo)
Wedge Clean (ID: WedgeClean)
Mesomerize (ID: Mesomerize)
Tautomerize (ID: Tautomerize)
Add Explicit Hydrogens (ID: AddExplicitH)
Neutralize (ID: Neutralize)
Clean 2D (ID: Clean2D)

> <knn Distance>


> <CpId>
577

$$$$
578
  Mrv1532301301811342D          

  8  7  0  0  0  0            999 V2000
    2.0625   -0.7145    0.0000 Br  0  0  0  0  0  0  0  0  0  0  0  0
    1.2375   -0.7145    0.0000 C   0  0  0  0  0  0  0  0  0  0  0  0
    0.8250   -0.0000    0.0000 C   0  0  0  0  0  0  0  0  0  0  0  0
    0.0000   -0.0000    0.0000 Br  0  0  0  0  0  0  0  0  0  0  0  0
    0.5482   -1.1678    0.0000 H   0  0  0  0  0  0  0  0  0  0  0  0
    1.1895   -1.5381    0.0000 H   0  0  0  0  0  0  0  0  0  0  0  0
    1.5143    0.4533    0.0000 H   0  0  0  0  0  0  0  0  0  0  0  0
    0.8730    0.8236    0.0000 H   0  0  0  0  0  0  0  0  0  0  0  0
  1  2  1  0  0  0  0
  2  3  1  0  0  0  0
  3  4  1  0  0  0  0
  2  5  1  0  0  0  0
  2  6  1  0  0  0  0
  3  7  1  0  0  0  0
  3  8  1  0  0  0  0
M  END
>  <InChIKey>
PAAZPARNPHGIKF-UHFFFAOYSA-N

>  <UN GHS>
2A

>  <CASRN>
106-93-4

> <Outcome>
1

>  <Index>
578

>  <StandardizerResult>
Clear Stereo (ID: ClearStereo)
Wedge Clean (ID: WedgeClean)
Mesomerize (ID: Mesomerize)
Tautomerize (ID: Tautomerize)
Add Explicit Hydrogens (ID: AddExplicitH)
Neutralize (ID: Neutralize)
Clean 2D (ID: Clean2D)

> <knn Distance>


> <CpId>
578

$$$$
579
  Mrv1532301301811342D          

 20 20  0  0  0  0            999 V2000
    1.9572    1.3459    0.0000 C   0  0  0  0  0  0  0  0  0  0  0  0
    1.2427    0.9334    0.0000 N   0  0  0  0  0  0  0  0  0  0  0  0
    1.2427    0.1084    0.0000 C   0  0  0  0  0  0  0  0  0  0  0  0
    0.5283   -0.3041    0.0000 C   0  0  0  0  0  0  0  0  0  0  0  0
   -0.1862    0.1084    0.0000 C   0  0  0  0  0  0  0  0  0  0  0  0
   -0.1862    0.9334    0.0000 C   0  0  0  0  0  0  0  0  0  0  0  0
    0.5283    1.3459    0.0000 C   0  0  0  0  0  0  0  0  0  0  0  0
    2.3697    0.6314    0.0000 H   0  0  0  0  0  0  0  0  0  0  0  0
    2.6717    1.7584    0.0000 H   0  0  0  0  0  0  0  0  0  0  0  0
    1.5447    2.0604    0.0000 H   0  0  0  0  0  0  0  0  0  0  0  0
    1.6961   -0.5809    0.0000 H   0  0  0  0  0  0  0  0  0  0  0  0
    2.0663    0.0604    0.0000 H   0  0  0  0  0  0  0  0  0  0  0  0
    0.1580   -1.0414    0.0000 H   0  0  0  0  0  0  0  0  0  0  0  0
    0.8985   -1.0414    0.0000 H   0  0  0  0  0  0  0  0  0  0  0  0
   -1.0098    0.0604    0.0000 H   0  0  0  0  0  0  0  0  0  0  0  0
   -0.6396   -0.5809    0.0000 H   0  0  0  0  0  0  0  0  0  0  0  0
   -0.6396    1.6227    0.0000 H   0  0  0  0  0  0  0  0  0  0  0  0
   -1.0098    0.9814    0.0000 H   0  0  0  0  0  0  0  0  0  0  0  0
    0.8985    2.0831    0.0000 H   0  0  0  0  0  0  0  0  0  0  0  0
    0.1580    2.0831    0.0000 H   0  0  0  0  0  0  0  0  0  0  0  0
  1  2  1  0  0  0  0
  2  3  1  0  0  0  0
  3  4  1  0  0  0  0
  4  5  1  0  0  0  0
  5  6  1  0  0  0  0
  6  7  1  0  0  0  0
  2  7  1  0  0  0  0
  1  8  1  0  0  0  0
  1  9  1  0  0  0  0
  1 10  1  0  0  0  0
  3 11  1  0  0  0  0
  3 12  1  0  0  0  0
  4 13  1  0  0  0  0
  4 14  1  0  0  0  0
  5 15  1  0  0  0  0
  5 16  1  0  0  0  0
  6 17  1  0  0  0  0
  6 18  1  0  0  0  0
  7 19  1  0  0  0  0
  7 20  1  0  0  0  0
M  END
>  <InChIKey>
PAMIQIKDUOTOBW-UHFFFAOYSA-N

>  <UN GHS>
2A

>  <CASRN>
626-67-5

> <Outcome>
1

>  <Index>
579

>  <StandardizerResult>
Clear Stereo (ID: ClearStereo)
Wedge Clean (ID: WedgeClean)
Mesomerize (ID: Mesomerize)
Tautomerize (ID: Tautomerize)
Add Explicit Hydrogens (ID: AddExplicitH)
Neutralize (ID: Neutralize)
Clean 2D (ID: Clean2D)

> <knn Distance>


> <CpId>
579

$$$$
580
  Mrv1532301301811342D          

 18 18  0  0  0  0            999 V2000
    2.9687   -0.0907    0.0000 O   0  0  0  0  0  0  0  0  0  0  0  0
    2.1644    0.0929    0.0000 C   0  0  0  0  0  0  0  0  0  0  0  0
    1.6500   -0.5521    0.0000 C   0  0  0  0  0  0  0  0  0  0  0  0
    0.8250   -0.5521    0.0000 C   0  0  0  0  0  0  0  0  0  0  0  0
    0.3106    0.0929    0.0000 C   0  0  0  0  0  0  0  0  0  0  0  0
    0.4942    0.8972    0.0000 C   0  0  0  0  0  0  0  0  0  0  0  0
    1.2375    1.2552    0.0000 C   0  0  0  0  0  0  0  0  0  0  0  0
    1.9808    0.8972    0.0000 O   0  0  0  0  0  0  0  0  0  0  0  0
    1.6500   -1.3771    0.0000 H   0  0  0  0  0  0  0  0  0  0  0  0
    2.2950   -1.0665    0.0000 H   0  0  0  0  0  0  0  0  0  0  0  0
    0.1800   -1.0665    0.0000 H   0  0  0  0  0  0  0  0  0  0  0  0
    0.8250   -1.3771    0.0000 H   0  0  0  0  0  0  0  0  0  0  0  0
   -0.4937    0.2765    0.0000 H   0  0  0  0  0  0  0  0  0  0  0  0
   -0.3344   -0.4215    0.0000 H   0  0  0  0  0  0  0  0  0  0  0  0
    0.1363    1.6405    0.0000 H   0  0  0  0  0  0  0  0  0  0  0  0
   -0.3101    1.0808    0.0000 H   0  0  0  0  0  0  0  0  0  0  0  0
    1.5955    1.9985    0.0000 H   0  0  0  0  0  0  0  0  0  0  0  0
    0.8796    1.9985    0.0000 H   0  0  0  0  0  0  0  0  0  0  0  0
  1  2  2  0  0  0  0
  2  3  1  0  0  0  0
  3  4  1  0  0  0  0
  4  5  1  0  0  0  0
  5  6  1  0  0  0  0
  6  7  1  0  0  0  0
  7  8  1  0  0  0  0
  2  8  1  0  0  0  0
  3  9  1  0  0  0  0
  3 10  1  0  0  0  0
  4 11  1  0  0  0  0
  4 12  1  0  0  0  0
  5 13  1  0  0  0  0
  5 14  1  0  0  0  0
  6 15  1  0  0  0  0
  6 16  1  0  0  0  0
  7 17  1  0  0  0  0
  7 18  1  0  0  0  0
M  END
>  <InChIKey>
PAPBSGBWRJIAAV-UHFFFAOYSA-N

>  <UN GHS>
2A

>  <CASRN>
502-44-3

> <Outcome>
1

>  <Index>
580

>  <StandardizerResult>
Clear Stereo (ID: ClearStereo)
Wedge Clean (ID: WedgeClean)
Mesomerize (ID: Mesomerize)
Tautomerize (ID: Tautomerize)
Add Explicit Hydrogens (ID: AddExplicitH)
Neutralize (ID: Neutralize)
Clean 2D (ID: Clean2D)

> <knn Distance>


> <CpId>
580

$$$$
587
  Mrv1532301301811342D          

 28 28  0  0  0  0            999 V2000
    2.4481   -3.3651    0.0000 C   0  0  0  0  0  0  0  0  0  0  0  0
    3.1625   -2.9526    0.0000 C   0  0  0  0  0  0  0  0  0  0  0  0
    3.1625   -2.1276    0.0000 C   0  0  0  0  0  0  0  0  0  0  0  0
    3.8770   -3.3651    0.0000 C   0  0  0  0  0  0  0  0  0  0  0  0
    3.8770   -4.1901    0.0000 O   0  0  0  0  0  0  0  0  0  0  0  0
    4.5915   -2.9526    0.0000 O   0  0  0  0  0  0  0  0  0  0  0  0
    5.3060   -3.3651    0.0000 C   0  0  0  0  0  0  0  0  0  0  0  0
    6.0204   -2.9526    0.0000 C   0  0  0  0  0  0  0  0  0  0  0  0
    6.7349   -3.3651    0.0000 N   0  0  0  0  0  0  0  0  0  0  0  0
    7.4886   -3.0296    0.0000 C   0  0  0  0  0  0  0  0  0  0  0  0
    8.0406   -3.6427    0.0000 C   0  0  0  0  0  0  0  0  0  0  0  0
    7.6281   -4.3571    0.0000 N   0  0  0  0  0  0  0  0  0  0  0  0
    6.8211   -4.1856    0.0000 C   0  0  0  0  0  0  0  0  0  0  0  0
    6.2080   -4.7377    0.0000 O   0  0  0  0  0  0  0  0  0  0  0  0
    2.0356   -2.6507    0.0000 H   0  0  0  0  0  0  0  0  0  0  0  0
    1.7336   -3.7776    0.0000 H   0  0  0  0  0  0  0  0  0  0  0  0
    2.8606   -4.0796    0.0000 H   0  0  0  0  0  0  0  0  0  0  0  0
    3.8770   -1.7151    0.0000 H   0  0  0  0  0  0  0  0  0  0  0  0
    2.4481   -1.7151    0.0000 H   0  0  0  0  0  0  0  0  0  0  0  0
    4.9357   -4.1024    0.0000 H   0  0  0  0  0  0  0  0  0  0  0  0
    5.6762   -4.1024    0.0000 H   0  0  0  0  0  0  0  0  0  0  0  0
    6.3907   -2.2154    0.0000 H   0  0  0  0  0  0  0  0  0  0  0  0
    5.6502   -2.2154    0.0000 H   0  0  0  0  0  0  0  0  0  0  0  0
    8.0189   -2.3976    0.0000 H   0  0  0  0  0  0  0  0  0  0  0  0
    7.2612   -2.2365    0.0000 H   0  0  0  0  0  0  0  0  0  0  0  0
    8.8055   -3.9517    0.0000 H   0  0  0  0  0  0  0  0  0  0  0  0
    8.7246   -3.1813    0.0000 H   0  0  0  0  0  0  0  0  0  0  0  0
    7.9637   -5.1108    0.0000 H   0  0  0  0  0  0  0  0  0  0  0  0
  1  2  1  0  0  0  0
  2  3  2  0  0  0  0
  2  4  1  0  0  0  0
  4  5  2  0  0  0  0
  4  6  1  0  0  0  0
  6  7  1  0  0  0  0
  7  8  1  0  0  0  0
  8  9  1  0  0  0  0
  9 10  1  0  0  0  0
 10 11  1  0  0  0  0
 11 12  1  0  0  0  0
 12 13  1  0  0  0  0
  9 13  1  0  0  0  0
 13 14  2  0  0  0  0
  1 15  1  0  0  0  0
  1 16  1  0  0  0  0
  1 17  1  0  0  0  0
  3 18  1  0  0  0  0
  3 19  1  0  0  0  0
  7 20  1  0  0  0  0
  7 21  1  0  0  0  0
  8 22  1  0  0  0  0
  8 23  1  0  0  0  0
 10 24  1  0  0  0  0
 10 25  1  0  0  0  0
 11 26  1  0  0  0  0
 11 27  1  0  0  0  0
 12 28  1  0  0  0  0
M  END
>  <InChIKey>
PFPUZMSQZJFLBK-UHFFFAOYSA-N

>  <UN GHS>
1

>  <CASRN>
86261-90-7

> <Outcome>
1

>  <Index>
587

>  <StandardizerResult>
Clear Stereo (ID: ClearStereo)
Wedge Clean (ID: WedgeClean)
Mesomerize (ID: Mesomerize)
Tautomerize (ID: Tautomerize)
Add Explicit Hydrogens (ID: AddExplicitH)
Neutralize (ID: Neutralize)
Clean 2D (ID: Clean2D)

> <knn Distance>


> <CpId>
587

$$$$
588
  Mrv1532301301811342D          

 36 35  0  0  0  0            999 V2000
   -3.0433    0.6851    0.0000 C   0  0  0  0  0  0  0  0  0  0  0  0
   -2.3288    0.2726    0.0000 O   0  0  0  0  0  0  0  0  0  0  0  0
   -1.6144    0.6851    0.0000 Si  0  0  0  0  0  0  0  0  0  0  0  0
   -0.8999    1.0976    0.0000 C   0  0  0  0  0  0  0  0  0  0  0  0
   -0.1854    0.6851    0.0000 C   0  0  0  0  0  0  0  0  0  0  0  0
    0.5291    1.0976    0.0000 C   0  0  0  0  0  0  0  0  0  0  0  0
    1.2435    0.6851    0.0000 N   0  0  0  0  0  0  0  0  0  0  0  0
    1.9580    1.0976    0.0000 C   0  0  0  0  0  0  0  0  0  0  0  0
    2.6725    0.6851    0.0000 C   0  0  0  0  0  0  0  0  0  0  0  0
    3.3869    1.0976    0.0000 N   0  0  0  0  0  0  0  0  0  0  0  0
   -1.2019   -0.0294    0.0000 O   0  0  0  0  0  0  0  0  0  0  0  0
   -0.3769   -0.0294    0.0000 C   0  0  0  0  0  0  0  0  0  0  0  0
   -2.0269    1.3996    0.0000 O   0  0  0  0  0  0  0  0  0  0  0  0
   -1.6144    2.1140    0.0000 C   0  0  0  0  0  0  0  0  0  0  0  0
   -2.6308    1.3996    0.0000 H   0  0  0  0  0  0  0  0  0  0  0  0
   -3.7578    1.0976    0.0000 H   0  0  0  0  0  0  0  0  0  0  0  0
   -3.4558   -0.0294    0.0000 H   0  0  0  0  0  0  0  0  0  0  0  0
   -0.5296    1.8349    0.0000 H   0  0  0  0  0  0  0  0  0  0  0  0
   -1.2701    1.8349    0.0000 H   0  0  0  0  0  0  0  0  0  0  0  0
    0.4691    0.1829    0.0000 H   0  0  0  0  0  0  0  0  0  0  0  0
   -0.1854    1.5101    0.0000 H   0  0  0  0  0  0  0  0  0  0  0  0
    1.1610    1.6279    0.0000 H   0  0  0  0  0  0  0  0  0  0  0  0
    0.6723    1.9101    0.0000 H   0  0  0  0  0  0  0  0  0  0  0  0
    1.6744   -0.0185    0.0000 H   0  0  0  0  0  0  0  0  0  0  0  0
    2.6810    1.4949    0.0000 H   0  0  0  0  0  0  0  0  0  0  0  0
    1.9929    1.9219    0.0000 H   0  0  0  0  0  0  0  0  0  0  0  0
    2.3022   -0.0521    0.0000 H   0  0  0  0  0  0  0  0  0  0  0  0
    3.0427   -0.0521    0.0000 H   0  0  0  0  0  0  0  0  0  0  0  0
    4.0781    0.6472    0.0000 H   0  0  0  0  0  0  0  0  0  0  0  0
    4.0732    1.5556    0.0000 H   0  0  0  0  0  0  0  0  0  0  0  0
   -0.5837   -0.8280    0.0000 H   0  0  0  0  0  0  0  0  0  0  0  0
    0.0182   -0.7537    0.0000 H   0  0  0  0  0  0  0  0  0  0  0  0
   -0.8791    0.6251    0.0000 H   0  0  0  0  0  0  0  0  0  0  0  0
   -0.9051    2.5354    0.0000 H   0  0  0  0  0  0  0  0  0  0  0  0
   -1.7644    2.9253    0.0000 H   0  0  0  0  0  0  0  0  0  0  0  0
   -2.4274    2.2539    0.0000 H   0  0  0  0  0  0  0  0  0  0  0  0
  1  2  1  0  0  0  0
  2  3  1  0  0  0  0
  3  4  1  0  0  0  0
  4  5  1  0  0  0  0
  5  6  1  0  0  0  0
  6  7  1  0  0  0  0
  7  8  1  0  0  0  0
  8  9  1  0  0  0  0
  9 10  1  0  0  0  0
  3 11  1  0  0  0  0
 11 12  1  0  0  0  0
  3 13  1  0  0  0  0
 13 14  1  0  0  0  0
  1 15  1  0  0  0  0
  1 16  1  0  0  0  0
  1 17  1  0  0  0  0
  4 18  1  0  0  0  0
  4 19  1  0  0  0  0
  5 20  1  0  0  0  0
  5 21  1  0  0  0  0
  6 22  1  0  0  0  0
  6 23  1  0  0  0  0
  7 24  1  0  0  0  0
  8 25  1  0  0  0  0
  8 26  1  0  0  0  0
  9 27  1  0  0  0  0
  9 28  1  0  0  0  0
 10 29  1  0  0  0  0
 10 30  1  0  0  0  0
 12 31  1  0  0  0  0
 12 32  1  0  0  0  0
 12 33  1  0  0  0  0
 14 34  1  0  0  0  0
 14 35  1  0  0  0  0
 14 36  1  0  0  0  0
M  END
>  <InChIKey>
PHQOGHDTIVQXHL-UHFFFAOYSA-N

>  <UN GHS>
1

>  <CASRN>
1760-24-3

> <Outcome>
1

>  <Index>
588

>  <StandardizerResult>
Clear Stereo (ID: ClearStereo)
Wedge Clean (ID: WedgeClean)
Mesomerize (ID: Mesomerize)
Tautomerize (ID: Tautomerize)
Add Explicit Hydrogens (ID: AddExplicitH)
Neutralize (ID: Neutralize)
Clean 2D (ID: Clean2D)

> <knn Distance>


> <CpId>
588

$$$$
589
  Mrv1532301301811342D          

 18 17  0  0  0  0            999 V2000
    2.5748   -1.3661    0.0000 C   0  0  0  0  0  0  0  0  0  0  0  0
    2.1623   -0.6516    0.0000 C   0  0  0  0  0  0  0  0  0  0  0  0
    2.5748    0.0629    0.0000 C   0  0  0  0  0  0  0  0  0  0  0  0
    1.3373   -0.6516    0.0000 C   0  0  0  0  0  0  0  0  0  0  0  0
    0.9248    0.0629    0.0000 C   0  0  0  0  0  0  0  0  0  0  0  0
    0.0998    0.0629    0.0000 O   0  0  0  0  0  0  0  0  0  0  0  0
    1.8603   -1.7786    0.0000 H   0  0  0  0  0  0  0  0  0  0  0  0
    2.9873   -2.0805    0.0000 H   0  0  0  0  0  0  0  0  0  0  0  0
    3.2892   -0.9536    0.0000 H   0  0  0  0  0  0  0  0  0  0  0  0
    2.9873   -0.6516    0.0000 H   0  0  0  0  0  0  0  0  0  0  0  0
    3.3717    0.2764    0.0000 H   0  0  0  0  0  0  0  0  0  0  0  0
    2.5748    0.8879    0.0000 H   0  0  0  0  0  0  0  0  0  0  0  0
    1.7779    0.2764    0.0000 H   0  0  0  0  0  0  0  0  0  0  0  0
    0.6480   -1.1049    0.0000 H   0  0  0  0  0  0  0  0  0  0  0  0
    1.2893   -1.4752    0.0000 H   0  0  0  0  0  0  0  0  0  0  0  0
    0.8239    0.8817    0.0000 H   0  0  0  0  0  0  0  0  0  0  0  0
    0.5123   -0.6516    0.0000 H   0  0  0  0  0  0  0  0  0  0  0  0
   -0.6147    0.4754    0.0000 H   0  0  0  0  0  0  0  0  0  0  0  0
  1  2  1  0  0  0  0
  2  3  1  0  0  0  0
  2  4  1  0  0  0  0
  4  5  1  0  0  0  0
  5  6  1  0  0  0  0
  1  7  1  0  0  0  0
  1  8  1  0  0  0  0
  1  9  1  0  0  0  0
  2 10  1  0  0  0  0
  3 11  1  0  0  0  0
  3 12  1  0  0  0  0
  3 13  1  0  0  0  0
  4 14  1  0  0  0  0
  4 15  1  0  0  0  0
  5 16  1  0  0  0  0
  5 17  1  0  0  0  0
  6 18  1  0  0  0  0
M  END
>  <InChIKey>
PHTQWCKDNZKARW-UHFFFAOYSA-N

>  <UN GHS>
2A

>  <CASRN>
8013-75-0

> <Outcome>
1

>  <Index>
589

>  <StandardizerResult>
Clear Stereo (ID: ClearStereo)
Wedge Clean (ID: WedgeClean)
Mesomerize (ID: Mesomerize)
Tautomerize (ID: Tautomerize)
Add Explicit Hydrogens (ID: AddExplicitH)
Neutralize (ID: Neutralize)
Clean 2D (ID: Clean2D)

> <knn Distance>


> <CpId>
589

$$$$
596
  Mrv1532301301811342D          

 26 25  0  0  0  0            999 V2000
    1.3640   -4.7327    0.0000 C   0  0  0  0  0  0  0  0  0  0  0  0
    1.3640   -3.9077    0.0000 C   0  0  0  0  0  0  0  0  0  0  0  0
    0.6496   -3.4952    0.0000 O   0  0  0  0  0  0  0  0  0  0  0  0
    0.6496   -2.6702    0.0000 Si  0  0  0  0  0  0  0  0  0  0  0  0
   -0.0649   -2.2577    0.0000 O   0  0  0  0  0  0  0  0  0  0  0  0
   -0.0649   -1.4327    0.0000 C   0  0  0  0  0  0  0  0  0  0  0  0
   -0.7794   -1.0202    0.0000 C   0  0  0  0  0  0  0  0  0  0  0  0
    1.3640   -2.2577    0.0000 O   0  0  0  0  0  0  0  0  0  0  0  0
    1.3640   -1.4327    0.0000 C   0  0  0  0  0  0  0  0  0  0  0  0
    2.0785   -1.0202    0.0000 C   0  0  0  0  0  0  0  0  0  0  0  0
    0.5390   -4.7327    0.0000 H   0  0  0  0  0  0  0  0  0  0  0  0
    1.3640   -5.5577    0.0000 H   0  0  0  0  0  0  0  0  0  0  0  0
    2.1890   -4.7327    0.0000 H   0  0  0  0  0  0  0  0  0  0  0  0
    2.1876   -3.8598    0.0000 H   0  0  0  0  0  0  0  0  0  0  0  0
    1.8174   -3.2185    0.0000 H   0  0  0  0  0  0  0  0  0  0  0  0
   -0.0649   -3.0827    0.0000 H   0  0  0  0  0  0  0  0  0  0  0  0
    0.7587   -1.3848    0.0000 H   0  0  0  0  0  0  0  0  0  0  0  0
    0.3884   -0.7435    0.0000 H   0  0  0  0  0  0  0  0  0  0  0  0
   -0.3669   -0.3058    0.0000 H   0  0  0  0  0  0  0  0  0  0  0  0
   -1.4939   -0.6077    0.0000 H   0  0  0  0  0  0  0  0  0  0  0  0
   -1.1919   -1.7347    0.0000 H   0  0  0  0  0  0  0  0  0  0  0  0
    1.1822   -0.6280    0.0000 H   0  0  0  0  0  0  0  0  0  0  0  0
    2.0785   -1.8452    0.0000 H   0  0  0  0  0  0  0  0  0  0  0  0
    2.8754   -1.2338    0.0000 H   0  0  0  0  0  0  0  0  0  0  0  0
    2.4910   -0.3058    0.0000 H   0  0  0  0  0  0  0  0  0  0  0  0
    1.4951   -0.4369    0.0000 H   0  0  0  0  0  0  0  0  0  0  0  0
  1  2  1  0  0  0  0
  2  3  1  0  0  0  0
  3  4  1  0  0  0  0
  4  5  1  0  0  0  0
  5  6  1  0  0  0  0
  6  7  1  0  0  0  0
  4  8  1  0  0  0  0
  8  9  1  0  0  0  0
  9 10  1  0  0  0  0
  1 11  1  0  0  0  0
  1 12  1  0  0  0  0
  1 13  1  0  0  0  0
  2 14  1  0  0  0  0
  2 15  1  0  0  0  0
  4 16  1  0  0  0  0
  6 17  1  0  0  0  0
  6 18  1  0  0  0  0
  7 19  1  0  0  0  0
  7 20  1  0  0  0  0
  7 21  1  0  0  0  0
  9 22  1  0  0  0  0
  9 23  1  0  0  0  0
 10 24  1  0  0  0  0
 10 25  1  0  0  0  0
 10 26  1  0  0  0  0
M  END
>  <InChIKey>
PKDCQJMRWCHQOH-UHFFFAOYSA-N

>  <UN GHS>
1

>  <CASRN>
998-30-1

> <Outcome>
1

>  <Index>
596

>  <StandardizerResult>
Clear Stereo (ID: ClearStereo)
Wedge Clean (ID: WedgeClean)
Mesomerize (ID: Mesomerize)
Tautomerize (ID: Tautomerize)
Add Explicit Hydrogens (ID: AddExplicitH)
Neutralize (ID: Neutralize)
Clean 2D (ID: Clean2D)

> <knn Distance>


> <CpId>
596

$$$$
598
  Mrv1532301301811342D          

 32 31  0  0  0  0            999 V2000
    0.4335   -2.0122    0.0000 C   0  0  0  0  0  0  0  0  0  0  0  0
    0.4335   -1.1872    0.0000 C   0  0  0  0  0  0  0  0  0  0  0  0
    1.1479   -0.7747    0.0000 C   0  0  0  0  0  0  0  0  0  0  0  0
    1.5604   -1.4892    0.0000 C   0  0  0  0  0  0  0  0  0  0  0  0
    1.8624   -0.3622    0.0000 C   0  0  0  0  0  0  0  0  0  0  0  0
    1.8624    0.4628    0.0000 C   0  0  0  0  0  0  0  0  0  0  0  0
    2.5769    0.8753    0.0000 C   0  0  0  0  0  0  0  0  0  0  0  0
    2.5769    1.7003    0.0000 C   0  0  0  0  0  0  0  0  0  0  0  0
    3.2914    0.4628    0.0000 C   0  0  0  0  0  0  0  0  0  0  0  0
    0.7354   -0.0603    0.0000 C   0  0  0  0  0  0  0  0  0  0  0  0
    1.1479    0.6542    0.0000 O   0  0  0  0  0  0  0  0  0  0  0  0
   -0.0896   -0.0603    0.0000 O   0  0  0  0  0  0  0  0  0  0  0  0
   -0.3915   -2.0122    0.0000 H   0  0  0  0  0  0  0  0  0  0  0  0
    0.4335   -2.8372    0.0000 H   0  0  0  0  0  0  0  0  0  0  0  0
    1.2585   -2.0122    0.0000 H   0  0  0  0  0  0  0  0  0  0  0  0
   -0.0199   -0.4979    0.0000 H   0  0  0  0  0  0  0  0  0  0  0  0
   -0.3901   -1.1393    0.0000 H   0  0  0  0  0  0  0  0  0  0  0  0
    1.9729   -2.2037    0.0000 H   0  0  0  0  0  0  0  0  0  0  0  0
    2.3854   -1.4892    0.0000 H   0  0  0  0  0  0  0  0  0  0  0  0
    1.9729   -0.7747    0.0000 H   0  0  0  0  0  0  0  0  0  0  0  0
    2.6804   -0.2545    0.0000 H   0  0  0  0  0  0  0  0  0  0  0  0
    1.1479    0.0503    0.0000 H   0  0  0  0  0  0  0  0  0  0  0  0
    1.7547    1.2807    0.0000 H   0  0  0  0  0  0  0  0  0  0  0  0
    2.5769    0.0503    0.0000 H   0  0  0  0  0  0  0  0  0  0  0  0
    3.2914    1.2878    0.0000 H   0  0  0  0  0  0  0  0  0  0  0  0
    3.2966    2.1035    0.0000 H   0  0  0  0  0  0  0  0  0  0  0  0
    2.5982    2.5250    0.0000 H   0  0  0  0  0  0  0  0  0  0  0  0
    1.8789    2.1402    0.0000 H   0  0  0  0  0  0  0  0  0  0  0  0
    3.5005   -0.3353    0.0000 H   0  0  0  0  0  0  0  0  0  0  0  0
    4.0655    0.1777    0.0000 H   0  0  0  0  0  0  0  0  0  0  0  0
    3.9680    0.9347    0.0000 H   0  0  0  0  0  0  0  0  0  0  0  0
    0.4894    1.1512    0.0000 H   0  0  0  0  0  0  0  0  0  0  0  0
  1  2  1  0  0  0  0
  2  3  1  0  0  0  0
  3  4  1  0  0  0  0
  3  5  1  0  0  0  0
  5  6  1  0  0  0  0
  6  7  1  0  0  0  0
  7  8  1  0  0  0  0
  7  9  1  0  0  0  0
  3 10  1  0  0  0  0
 10 11  1  0  0  0  0
 10 12  2  0  0  0  0
  1 13  1  0  0  0  0
  1 14  1  0  0  0  0
  1 15  1  0  0  0  0
  2 16  1  0  0  0  0
  2 17  1  0  0  0  0
  4 18  1  0  0  0  0
  4 19  1  0  0  0  0
  4 20  1  0  0  0  0
  5 21  1  0  0  0  0
  5 22  1  0  0  0  0
  6 23  1  0  0  0  0
  6 24  1  0  0  0  0
  7 25  1  0  0  0  0
  8 26  1  0  0  0  0
  8 27  1  0  0  0  0
  8 28  1  0  0  0  0
  9 29  1  0  0  0  0
  9 30  1  0  0  0  0
  9 31  1  0  0  0  0
 11 32  1  0  0  0  0
M  END
>  <InChIKey>
PKJSRUTWBDIWAR-UHFFFAOYSA-N

>  <UN GHS>
2B

>  <CASRN>
26896-20-8

> <Outcome>
1

>  <Index>
598

>  <StandardizerResult>
Clear Stereo (ID: ClearStereo)
Wedge Clean (ID: WedgeClean)
Mesomerize (ID: Mesomerize)
Tautomerize (ID: Tautomerize)
Add Explicit Hydrogens (ID: AddExplicitH)
Neutralize (ID: Neutralize)
Clean 2D (ID: Clean2D)

> <knn Distance>


> <CpId>
598

$$$$
601
  Mrv1532301301811342D          

 33 32  0  0  0  0            999 V2000
    2.1954    2.1392    0.0000 C   0  0  0  0  0  0  0  0  0  0  0  0
    2.9099    2.5517    0.0000 C   0  0  0  0  0  0  0  0  0  0  0  0
    2.9099    3.3767    0.0000 C   0  0  0  0  0  0  0  0  0  0  0  0
    3.6243    2.1392    0.0000 C   0  0  0  0  0  0  0  0  0  0  0  0
    4.3388    2.5517    0.0000 C   0  0  0  0  0  0  0  0  0  0  0  0
    5.0533    2.1392    0.0000 C   0  0  0  0  0  0  0  0  0  0  0  0
    5.7678    2.5517    0.0000 C   0  0  0  0  0  0  0  0  0  0  0  0
    6.4822    2.1392    0.0000 C   0  0  0  0  0  0  0  0  0  0  0  0
    7.1967    2.5517    0.0000 C   0  0  0  0  0  0  0  0  0  0  0  0
    7.9112    2.1392    0.0000 C   0  0  0  0  0  0  0  0  0  0  0  0
    8.6256    2.5517    0.0000 O   0  0  0  0  0  0  0  0  0  0  0  0
    1.7829    2.8537    0.0000 H   0  0  0  0  0  0  0  0  0  0  0  0
    1.4809    1.7267    0.0000 H   0  0  0  0  0  0  0  0  0  0  0  0
    2.6079    1.4248    0.0000 H   0  0  0  0  0  0  0  0  0  0  0  0
    2.1954    2.9642    0.0000 H   0  0  0  0  0  0  0  0  0  0  0  0
    3.7068    3.1632    0.0000 H   0  0  0  0  0  0  0  0  0  0  0  0
    3.3224    4.0912    0.0000 H   0  0  0  0  0  0  0  0  0  0  0  0
    2.3265    3.9601    0.0000 H   0  0  0  0  0  0  0  0  0  0  0  0
    3.2541    1.4020    0.0000 H   0  0  0  0  0  0  0  0  0  0  0  0
    3.9946    1.4020    0.0000 H   0  0  0  0  0  0  0  0  0  0  0  0
    4.8356    3.2104    0.0000 H   0  0  0  0  0  0  0  0  0  0  0  0
    4.3388    1.7267    0.0000 H   0  0  0  0  0  0  0  0  0  0  0  0
    5.1965    1.3268    0.0000 H   0  0  0  0  0  0  0  0  0  0  0  0
    5.6853    1.6089    0.0000 H   0  0  0  0  0  0  0  0  0  0  0  0
    6.1380    3.2890    0.0000 H   0  0  0  0  0  0  0  0  0  0  0  0
    5.3975    3.2890    0.0000 H   0  0  0  0  0  0  0  0  0  0  0  0
    6.5172    1.3150    0.0000 H   0  0  0  0  0  0  0  0  0  0  0  0
    7.2053    1.7420    0.0000 H   0  0  0  0  0  0  0  0  0  0  0  0
    7.5670    3.2890    0.0000 H   0  0  0  0  0  0  0  0  0  0  0  0
    6.8264    3.2890    0.0000 H   0  0  0  0  0  0  0  0  0  0  0  0
    8.0490    1.3258    0.0000 H   0  0  0  0  0  0  0  0  0  0  0  0
    8.5409    1.6062    0.0000 H   0  0  0  0  0  0  0  0  0  0  0  0
    9.0697    3.2471    0.0000 H   0  0  0  0  0  0  0  0  0  0  0  0
  1  2  1  0  0  0  0
  2  3  1  0  0  0  0
  2  4  1  0  0  0  0
  4  5  1  0  0  0  0
  5  6  1  0  0  0  0
  6  7  1  0  0  0  0
  7  8  1  0  0  0  0
  8  9  1  0  0  0  0
  9 10  1  0  0  0  0
 10 11  1  0  0  0  0
  1 12  1  0  0  0  0
  1 13  1  0  0  0  0
  1 14  1  0  0  0  0
  2 15  1  0  0  0  0
  3 16  1  0  0  0  0
  3 17  1  0  0  0  0
  3 18  1  0  0  0  0
  4 19  1  0  0  0  0
  4 20  1  0  0  0  0
  5 21  1  0  0  0  0
  5 22  1  0  0  0  0
  6 23  1  0  0  0  0
  6 24  1  0  0  0  0
  7 25  1  0  0  0  0
  7 26  1  0  0  0  0
  8 27  1  0  0  0  0
  8 28  1  0  0  0  0
  9 29  1  0  0  0  0
  9 30  1  0  0  0  0
 10 31  1  0  0  0  0
 10 32  1  0  0  0  0
 11 33  1  0  0  0  0
M  END
>  <InChIKey>
PLLBRTOLHQQAQQ-UHFFFAOYSA-N

>  <UN GHS>
2B

>  <CASRN>
68551-08-6

> <Outcome>
1

>  <Index>
601

>  <StandardizerResult>
Clear Stereo (ID: ClearStereo)
Wedge Clean (ID: WedgeClean)
Mesomerize (ID: Mesomerize)
Tautomerize (ID: Tautomerize)
Add Explicit Hydrogens (ID: AddExplicitH)
Neutralize (ID: Neutralize)
Clean 2D (ID: Clean2D)

> <knn Distance>


> <CpId>
601

$$$$
603
  Mrv1532301301811342D          

212211  0  0  0  0            999 V2000
    5.4522    4.6818    0.0000 C   0  0  0  0  0  0  0  0  0  0  0  0
    5.4031    3.8583    0.0000 C   0  0  0  0  0  0  0  0  0  0  0  0
    6.0917    3.4040    0.0000 C   0  0  0  0  0  0  0  0  0  0  0  0
    6.0425    2.5804    0.0000 C   0  0  0  0  0  0  0  0  0  0  0  0
    6.7311    2.1261    0.0000 C   0  0  0  0  0  0  0  0  0  0  0  0
    7.4689    2.4952    0.0000 C   0  0  0  0  0  0  0  0  0  0  0  0
    7.5181    3.3188    0.0000 C   0  0  0  0  0  0  0  0  0  0  0  0
    8.2559    3.6879    0.0000 C   0  0  0  0  0  0  0  0  0  0  0  0
    8.3050    4.5115    0.0000 C   0  0  0  0  0  0  0  0  0  0  0  0
    9.0428    4.8806    0.0000 C   0  0  0  0  0  0  0  0  0  0  0  0
    9.0920    5.7042    0.0000 C   0  0  0  0  0  0  0  0  0  0  0  0
    9.8298    6.0733    0.0000 C   0  0  0  0  0  0  0  0  0  0  0  0
    9.8790    6.8969    0.0000 C   0  0  0  0  0  0  0  0  0  0  0  0
   10.6168    7.2660    0.0000 C   0  0  0  0  0  0  0  0  0  0  0  0
   11.3054    6.8117    0.0000 C   0  0  0  0  0  0  0  0  0  0  0  0
   12.0432    7.1808    0.0000 C   0  0  0  0  0  0  0  0  0  0  0  0
   12.0924    8.0044    0.0000 C   0  0  0  0  0  0  0  0  0  0  0  0
   12.8302    8.3735    0.0000 C   0  0  0  0  0  0  0  0  0  0  0  0
   12.8794    9.1971    0.0000 C   0  0  0  0  0  0  0  0  0  0  0  0
   13.6172    9.5662    0.0000 C   0  0  0  0  0  0  0  0  0  0  0  0
   13.6663   10.3898    0.0000 C   0  0  0  0  0  0  0  0  0  0  0  0
   14.4041   10.7589    0.0000 C   0  0  0  0  0  0  0  0  0  0  0  0
   14.4533   11.5825    0.0000 C   0  0  0  0  0  0  0  0  0  0  0  0
   15.1911   11.9517    0.0000 C   0  0  0  0  0  0  0  0  0  0  0  0
   15.8797   11.4973    0.0000 C   0  0  0  0  0  0  0  0  0  0  0  0
   16.6175   11.8665    0.0000 C   0  0  0  0  0  0  0  0  0  0  0  0
   17.3061   11.4121    0.0000 C   0  0  0  0  0  0  0  0  0  0  0  0
   18.0439   11.7813    0.0000 C   0  0  0  0  0  0  0  0  0  0  0  0
   18.7325   11.3269    0.0000 C   0  0  0  0  0  0  0  0  0  0  0  0
   19.4703   11.6961    0.0000 C   0  0  0  0  0  0  0  0  0  0  0  0
   20.1589   11.2417    0.0000 C   0  0  0  0  0  0  0  0  0  0  0  0
   20.8967   11.6109    0.0000 C   0  0  0  0  0  0  0  0  0  0  0  0
   21.5853   11.1565    0.0000 C   0  0  0  0  0  0  0  0  0  0  0  0
   22.3231   11.5257    0.0000 C   0  0  0  0  0  0  0  0  0  0  0  0
   23.0117   11.0713    0.0000 C   0  0  0  0  0  0  0  0  0  0  0  0
   23.7495   11.4405    0.0000 C   0  0  0  0  0  0  0  0  0  0  0  0
   24.4381   10.9861    0.0000 N   0  0  0  0  0  0  0  0  0  0  0  0
   25.1759   11.3553    0.0000 C   0  0  0  0  0  0  0  0  0  0  0  0
   25.8645   10.9009    0.0000 C   0  0  0  0  0  0  0  0  0  0  0  0
   26.6023   11.2701    0.0000 C   0  0  0  0  0  0  0  0  0  0  0  0
   27.2909   10.8157    0.0000 C   0  0  0  0  0  0  0  0  0  0  0  0
   28.0287   11.1849    0.0000 C   0  0  0  0  0  0  0  0  0  0  0  0
   28.7173   10.7306    0.0000 C   0  0  0  0  0  0  0  0  0  0  0  0
   29.4551   11.0997    0.0000 C   0  0  0  0  0  0  0  0  0  0  0  0
   30.1437   10.6454    0.0000 C   0  0  0  0  0  0  0  0  0  0  0  0
   30.8815   11.0145    0.0000 C   0  0  0  0  0  0  0  0  0  0  0  0
   31.5701   10.5602    0.0000 C   0  0  0  0  0  0  0  0  0  0  0  0
   32.3079   10.9293    0.0000 C   0  0  0  0  0  0  0  0  0  0  0  0
   32.3571   11.7529    0.0000 C   0  0  0  0  0  0  0  0  0  0  0  0
   33.0949   12.1220    0.0000 C   0  0  0  0  0  0  0  0  0  0  0  0
   33.7835   11.6677    0.0000 C   0  0  0  0  0  0  0  0  0  0  0  0
   34.5213   12.0368    0.0000 C   0  0  0  0  0  0  0  0  0  0  0  0
   35.2099   11.5825    0.0000 C   0  0  0  0  0  0  0  0  0  0  0  0
   35.9477   11.9517    0.0000 C   0  0  0  0  0  0  0  0  0  0  0  0
   36.6363   11.4973    0.0000 C   0  0  0  0  0  0  0  0  0  0  0  0
   37.3741   11.8665    0.0000 C   0  0  0  0  0  0  0  0  0  0  0  0
   38.0627   11.4121    0.0000 C   0  0  0  0  0  0  0  0  0  0  0  0
   38.8005   11.7813    0.0000 C   0  0  0  0  0  0  0  0  0  0  0  0
   39.4891   11.3269    0.0000 C   0  0  0  0  0  0  0  0  0  0  0  0
   40.2269   11.6961    0.0000 C   0  0  0  0  0  0  0  0  0  0  0  0
   40.2761   12.5196    0.0000 C   0  0  0  0  0  0  0  0  0  0  0  0
   41.0139   12.8888    0.0000 C   0  0  0  0  0  0  0  0  0  0  0  0
   41.0631   13.7123    0.0000 C   0  0  0  0  0  0  0  0  0  0  0  0
   41.8009   14.0815    0.0000 C   0  0  0  0  0  0  0  0  0  0  0  0
   41.8500   14.9050    0.0000 C   0  0  0  0  0  0  0  0  0  0  0  0
   42.5878   15.2742    0.0000 C   0  0  0  0  0  0  0  0  0  0  0  0
   42.6370   16.0977    0.0000 C   0  0  0  0  0  0  0  0  0  0  0  0
   43.3748   16.4669    0.0000 C   0  0  0  0  0  0  0  0  0  0  0  0
   43.4240   17.2904    0.0000 C   0  0  0  0  0  0  0  0  0  0  0  0
   44.1618   17.6596    0.0000 C   0  0  0  0  0  0  0  0  0  0  0  0
   44.2110   18.4831    0.0000 C   0  0  0  0  0  0  0  0  0  0  0  0
   44.9488   18.8523    0.0000 C   0  0  0  0  0  0  0  0  0  0  0  0
   44.9980   19.6758    0.0000 C   0  0  0  0  0  0  0  0  0  0  0  0
    6.2758    4.6327    0.0000 H   0  0  0  0  0  0  0  0  0  0  0  0
    5.5014    5.5054    0.0000 H   0  0  0  0  0  0  0  0  0  0  0  0
    4.6287    4.7310    0.0000 H   0  0  0  0  0  0  0  0  0  0  0  0
    4.5781    3.8595    0.0000 H   0  0  0  0  0  0  0  0  0  0  0  0
    4.9094    3.1973    0.0000 H   0  0  0  0  0  0  0  0  0  0  0  0
    6.9167    3.4027    0.0000 H   0  0  0  0  0  0  0  0  0  0  0  0
    6.5853    4.0650    0.0000 H   0  0  0  0  0  0  0  0  0  0  0  0
    5.2175    2.5816    0.0000 H   0  0  0  0  0  0  0  0  0  0  0  0
    5.5488    1.9194    0.0000 H   0  0  0  0  0  0  0  0  0  0  0  0
    6.3175    1.4122    0.0000 H   0  0  0  0  0  0  0  0  0  0  0  0
    7.0567    1.3680    0.0000 H   0  0  0  0  0  0  0  0  0  0  0  0
    7.8803    1.7801    0.0000 H   0  0  0  0  0  0  0  0  0  0  0  0
    8.2882    2.3982    0.0000 H   0  0  0  0  0  0  0  0  0  0  0  0
    7.3845    4.1329    0.0000 H   0  0  0  0  0  0  0  0  0  0  0  0
    8.2067    2.8644    0.0000 H   0  0  0  0  0  0  0  0  0  0  0  0
    9.0129    3.3600    0.0000 H   0  0  0  0  0  0  0  0  0  0  0  0
    9.0465    3.9234    0.0000 H   0  0  0  0  0  0  0  0  0  0  0  0
    7.8936    5.2265    0.0000 H   0  0  0  0  0  0  0  0  0  0  0  0
    7.4858    4.6084    0.0000 H   0  0  0  0  0  0  0  0  0  0  0  0
    9.7501    4.4558    0.0000 H   0  0  0  0  0  0  0  0  0  0  0  0
    9.7726    5.2653    0.0000 H   0  0  0  0  0  0  0  0  0  0  0  0
    8.6806    6.4192    0.0000 H   0  0  0  0  0  0  0  0  0  0  0  0
    8.2727    5.8012    0.0000 H   0  0  0  0  0  0  0  0  0  0  0  0
   10.5846    5.7404    0.0000 H   0  0  0  0  0  0  0  0  0  0  0  0
   10.6215    6.3054    0.0000 H   0  0  0  0  0  0  0  0  0  0  0  0
    9.4676    7.6119    0.0000 H   0  0  0  0  0  0  0  0  0  0  0  0
    9.0597    6.9939    0.0000 H   0  0  0  0  0  0  0  0  0  0  0  0
   11.0304    7.9799    0.0000 H   0  0  0  0  0  0  0  0  0  0  0  0
   10.2911    8.0240    0.0000 H   0  0  0  0  0  0  0  0  0  0  0  0
   11.7370    6.1086    0.0000 H   0  0  0  0  0  0  0  0  0  0  0  0
   11.3546    7.6352    0.0000 H   0  0  0  0  0  0  0  0  0  0  0  0
   12.4546    6.4658    0.0000 H   0  0  0  0  0  0  0  0  0  0  0  0
   12.8625    7.0839    0.0000 H   0  0  0  0  0  0  0  0  0  0  0  0
   11.9978    8.8239    0.0000 H   0  0  0  0  0  0  0  0  0  0  0  0
   11.4931    8.5714    0.0000 H   0  0  0  0  0  0  0  0  0  0  0  0
   13.2416    7.6585    0.0000 H   0  0  0  0  0  0  0  0  0  0  0  0
   13.6495    8.2766    0.0000 H   0  0  0  0  0  0  0  0  0  0  0  0
   12.9460   10.0194    0.0000 H   0  0  0  0  0  0  0  0  0  0  0  0
   12.2106    9.6802    0.0000 H   0  0  0  0  0  0  0  0  0  0  0  0
   14.0286    8.8512    0.0000 H   0  0  0  0  0  0  0  0  0  0  0  0
   14.4364    9.4693    0.0000 H   0  0  0  0  0  0  0  0  0  0  0  0
   13.2931   11.1255    0.0000 H   0  0  0  0  0  0  0  0  0  0  0  0
   15.0927   10.3046    0.0000 H   0  0  0  0  0  0  0  0  0  0  0  0
   14.0419   12.2976    0.0000 H   0  0  0  0  0  0  0  0  0  0  0  0
   13.6340   11.6795    0.0000 H   0  0  0  0  0  0  0  0  0  0  0  0
   15.2403   12.7752    0.0000 H   0  0  0  0  0  0  0  0  0  0  0  0
   15.8305   10.6738    0.0000 H   0  0  0  0  0  0  0  0  0  0  0  0
   17.0311   12.5803    0.0000 H   0  0  0  0  0  0  0  0  0  0  0  0
   16.2919   12.6245    0.0000 H   0  0  0  0  0  0  0  0  0  0  0  0
   16.8926   10.6982    0.0000 H   0  0  0  0  0  0  0  0  0  0  0  0
   17.6318   10.6541    0.0000 H   0  0  0  0  0  0  0  0  0  0  0  0
   18.4575   12.4951    0.0000 H   0  0  0  0  0  0  0  0  0  0  0  0
   17.7183   12.5393    0.0000 H   0  0  0  0  0  0  0  0  0  0  0  0
   18.3190   10.6130    0.0000 H   0  0  0  0  0  0  0  0  0  0  0  0
   19.0582   10.5689    0.0000 H   0  0  0  0  0  0  0  0  0  0  0  0
   19.8839   12.4099    0.0000 H   0  0  0  0  0  0  0  0  0  0  0  0
   19.1447   12.4541    0.0000 H   0  0  0  0  0  0  0  0  0  0  0  0
   19.7454   10.5278    0.0000 H   0  0  0  0  0  0  0  0  0  0  0  0
   20.4846   10.4837    0.0000 H   0  0  0  0  0  0  0  0  0  0  0  0
   21.3103   12.3247    0.0000 H   0  0  0  0  0  0  0  0  0  0  0  0
   20.5711   12.3689    0.0000 H   0  0  0  0  0  0  0  0  0  0  0  0
   21.1718   10.4427    0.0000 H   0  0  0  0  0  0  0  0  0  0  0  0
   21.9110   10.3985    0.0000 H   0  0  0  0  0  0  0  0  0  0  0  0
   22.7367   12.2395    0.0000 H   0  0  0  0  0  0  0  0  0  0  0  0
   21.9975   12.2837    0.0000 H   0  0  0  0  0  0  0  0  0  0  0  0
   22.5982   10.3575    0.0000 H   0  0  0  0  0  0  0  0  0  0  0  0
   23.3374   10.3133    0.0000 H   0  0  0  0  0  0  0  0  0  0  0  0
   24.1631   12.1544    0.0000 H   0  0  0  0  0  0  0  0  0  0  0  0
   23.4239   12.1985    0.0000 H   0  0  0  0  0  0  0  0  0  0  0  0
   24.3889   10.1626    0.0000 H   0  0  0  0  0  0  0  0  0  0  0  0
   25.5895   12.0692    0.0000 H   0  0  0  0  0  0  0  0  0  0  0  0
   24.8503   12.1133    0.0000 H   0  0  0  0  0  0  0  0  0  0  0  0
   25.4510   10.1871    0.0000 H   0  0  0  0  0  0  0  0  0  0  0  0
   26.1902   10.1429    0.0000 H   0  0  0  0  0  0  0  0  0  0  0  0
   27.0159   11.9840    0.0000 H   0  0  0  0  0  0  0  0  0  0  0  0
   26.2767   12.0281    0.0000 H   0  0  0  0  0  0  0  0  0  0  0  0
   26.8774   10.1019    0.0000 H   0  0  0  0  0  0  0  0  0  0  0  0
   27.6166   10.0577    0.0000 H   0  0  0  0  0  0  0  0  0  0  0  0
   28.4423   11.8988    0.0000 H   0  0  0  0  0  0  0  0  0  0  0  0
   27.7031   11.9429    0.0000 H   0  0  0  0  0  0  0  0  0  0  0  0
   28.3038   10.0167    0.0000 H   0  0  0  0  0  0  0  0  0  0  0  0
   29.0430    9.9725    0.0000 H   0  0  0  0  0  0  0  0  0  0  0  0
   29.8687   11.8136    0.0000 H   0  0  0  0  0  0  0  0  0  0  0  0
   29.1295   11.8577    0.0000 H   0  0  0  0  0  0  0  0  0  0  0  0
   29.7302    9.9315    0.0000 H   0  0  0  0  0  0  0  0  0  0  0  0
   30.4694    9.8873    0.0000 H   0  0  0  0  0  0  0  0  0  0  0  0
   31.2951   11.7284    0.0000 H   0  0  0  0  0  0  0  0  0  0  0  0
   30.5559   11.7725    0.0000 H   0  0  0  0  0  0  0  0  0  0  0  0
   31.1566    9.8463    0.0000 H   0  0  0  0  0  0  0  0  0  0  0  0
   31.8958    9.8022    0.0000 H   0  0  0  0  0  0  0  0  0  0  0  0
   32.7194   10.2143    0.0000 H   0  0  0  0  0  0  0  0  0  0  0  0
   33.1272   10.8323    0.0000 H   0  0  0  0  0  0  0  0  0  0  0  0
   31.9457   12.4679    0.0000 H   0  0  0  0  0  0  0  0  0  0  0  0
   31.5378   11.8499    0.0000 H   0  0  0  0  0  0  0  0  0  0  0  0
   33.5084   12.8359    0.0000 H   0  0  0  0  0  0  0  0  0  0  0  0
   32.7692   12.8800    0.0000 H   0  0  0  0  0  0  0  0  0  0  0  0
   33.3699   10.9538    0.0000 H   0  0  0  0  0  0  0  0  0  0  0  0
   34.1091   10.9097    0.0000 H   0  0  0  0  0  0  0  0  0  0  0  0
   34.9348   12.7507    0.0000 H   0  0  0  0  0  0  0  0  0  0  0  0
   34.1956   12.7949    0.0000 H   0  0  0  0  0  0  0  0  0  0  0  0
   34.7963   10.8686    0.0000 H   0  0  0  0  0  0  0  0  0  0  0  0
   35.5355   10.8245    0.0000 H   0  0  0  0  0  0  0  0  0  0  0  0
   36.3612   12.6655    0.0000 H   0  0  0  0  0  0  0  0  0  0  0  0
   35.6220   12.7097    0.0000 H   0  0  0  0  0  0  0  0  0  0  0  0
   36.2227   10.7834    0.0000 H   0  0  0  0  0  0  0  0  0  0  0  0
   36.9619   10.7393    0.0000 H   0  0  0  0  0  0  0  0  0  0  0  0
   37.7876   12.5803    0.0000 H   0  0  0  0  0  0  0  0  0  0  0  0
   37.0484   12.6245    0.0000 H   0  0  0  0  0  0  0  0  0  0  0  0
   37.6491   10.6982    0.0000 H   0  0  0  0  0  0  0  0  0  0  0  0
   38.3883   10.6541    0.0000 H   0  0  0  0  0  0  0  0  0  0  0  0
   38.8497   12.6048    0.0000 H   0  0  0  0  0  0  0  0  0  0  0  0
   39.4399   10.5034    0.0000 H   0  0  0  0  0  0  0  0  0  0  0  0
   40.6383   10.9810    0.0000 H   0  0  0  0  0  0  0  0  0  0  0  0
   41.0462   11.5991    0.0000 H   0  0  0  0  0  0  0  0  0  0  0  0
   39.5875   12.9740    0.0000 H   0  0  0  0  0  0  0  0  0  0  0  0
   41.7025   12.4344    0.0000 H   0  0  0  0  0  0  0  0  0  0  0  0
   40.6516   14.4274    0.0000 H   0  0  0  0  0  0  0  0  0  0  0  0
   40.2438   13.8093    0.0000 H   0  0  0  0  0  0  0  0  0  0  0  0
   42.2123   13.3664    0.0000 H   0  0  0  0  0  0  0  0  0  0  0  0
   42.6201   13.9845    0.0000 H   0  0  0  0  0  0  0  0  0  0  0  0
   41.4386   15.6201    0.0000 H   0  0  0  0  0  0  0  0  0  0  0  0
   41.0308   15.0020    0.0000 H   0  0  0  0  0  0  0  0  0  0  0  0
   42.9993   14.5591    0.0000 H   0  0  0  0  0  0  0  0  0  0  0  0
   43.4071   15.1772    0.0000 H   0  0  0  0  0  0  0  0  0  0  0  0
   42.2256   16.8128    0.0000 H   0  0  0  0  0  0  0  0  0  0  0  0
   41.8177   16.1947    0.0000 H   0  0  0  0  0  0  0  0  0  0  0  0
   43.7863   15.7518    0.0000 H   0  0  0  0  0  0  0  0  0  0  0  0
   44.1941   16.3699    0.0000 H   0  0  0  0  0  0  0  0  0  0  0  0
   43.0126   18.0055    0.0000 H   0  0  0  0  0  0  0  0  0  0  0  0
   42.6047   17.3874    0.0000 H   0  0  0  0  0  0  0  0  0  0  0  0
   44.5732   16.9445    0.0000 H   0  0  0  0  0  0  0  0  0  0  0  0
   44.9811   17.5626    0.0000 H   0  0  0  0  0  0  0  0  0  0  0  0
   43.7995   19.1982    0.0000 H   0  0  0  0  0  0  0  0  0  0  0  0
   43.3917   18.5801    0.0000 H   0  0  0  0  0  0  0  0  0  0  0  0
   45.3602   18.1372    0.0000 H   0  0  0  0  0  0  0  0  0  0  0  0
   45.7680   18.7553    0.0000 H   0  0  0  0  0  0  0  0  0  0  0  0
   45.8215   19.6266    0.0000 H   0  0  0  0  0  0  0  0  0  0  0  0
   45.0471   20.4994    0.0000 H   0  0  0  0  0  0  0  0  0  0  0  0
   44.1744   19.7250    0.0000 H   0  0  0  0  0  0  0  0  0  0  0  0
  1  2  1  0  0  0  0
  2  3  1  0  0  0  0
  3  4  1  0  0  0  0
  4  5  1  0  0  0  0
  5  6  1  0  0  0  0
  6  7  1  0  0  0  0
  7  8  1  0  0  0  0
  8  9  1  0  0  0  0
  9 10  1  0  0  0  0
 10 11  1  0  0  0  0
 11 12  1  0  0  0  0
 12 13  1  0  0  0  0
 13 14  1  0  0  0  0
 14 15  1  0  0  0  0
 15 16  1  0  0  0  0
 16 17  1  0  0  0  0
 17 18  1  0  0  0  0
 18 19  1  0  0  0  0
 19 20  1  0  0  0  0
 21 20  1  0  0  0  0
 21 22  2  0  0  0  0
 22 23  1  0  0  0  0
 24 23  1  0  0  0  0
 24 25  2  0  0  0  0
 25 26  1  0  0  0  0
 26 27  1  0  0  0  0
 27 28  1  0  0  0  0
 28 29  1  0  0  0  0
 29 30  1  0  0  0  0
 30 31  1  0  0  0  0
 31 32  1  0  0  0  0
 32 33  1  0  0  0  0
 33 34  1  0  0  0  0
 34 35  1  0  0  0  0
 35 36  1  0  0  0  0
 36 37  1  0  0  0  0
 37 38  1  0  0  0  0
 38 39  1  0  0  0  0
 39 40  1  0  0  0  0
 40 41  1  0  0  0  0
 41 42  1  0  0  0  0
 42 43  1  0  0  0  0
 43 44  1  0  0  0  0
 44 45  1  0  0  0  0
 45 46  1  0  0  0  0
 46 47  1  0  0  0  0
 47 48  1  0  0  0  0
 48 49  1  0  0  0  0
 49 50  1  0  0  0  0
 50 51  1  0  0  0  0
 51 52  1  0  0  0  0
 52 53  1  0  0  0  0
 53 54  1  0  0  0  0
 54 55  1  0  0  0  0
 55 56  1  0  0  0  0
 56 57  1  0  0  0  0
 58 57  1  0  0  0  0
 58 59  2  0  0  0  0
 59 60  1  0  0  0  0
 61 60  1  0  0  0  0
 61 62  2  0  0  0  0
 62 63  1  0  0  0  0
 63 64  1  0  0  0  0
 64 65  1  0  0  0  0
 65 66  1  0  0  0  0
 66 67  1  0  0  0  0
 67 68  1  0  0  0  0
 68 69  1  0  0  0  0
 69 70  1  0  0  0  0
 70 71  1  0  0  0  0
 71 72  1  0  0  0  0
 72 73  1  0  0  0  0
  1 74  1  0  0  0  0
  1 75  1  0  0  0  0
  1 76  1  0  0  0  0
  2 77  1  0  0  0  0
  2 78  1  0  0  0  0
  3 79  1  0  0  0  0
  3 80  1  0  0  0  0
  4 81  1  0  0  0  0
  4 82  1  0  0  0  0
  5 83  1  0  0  0  0
  5 84  1  0  0  0  0
  6 85  1  0  0  0  0
  6 86  1  0  0  0  0
  7 87  1  0  0  0  0
  7 88  1  0  0  0  0
  8 89  1  0  0  0  0
  8 90  1  0  0  0  0
  9 91  1  0  0  0  0
  9 92  1  0  0  0  0
 10 93  1  0  0  0  0
 10 94  1  0  0  0  0
 11 95  1  0  0  0  0
 11 96  1  0  0  0  0
 12 97  1  0  0  0  0
 12 98  1  0  0  0  0
 13 99  1  0  0  0  0
 13100  1  0  0  0  0
 14101  1  0  0  0  0
 14102  1  0  0  0  0
 15103  1  0  0  0  0
 15104  1  0  0  0  0
 16105  1  0  0  0  0
 16106  1  0  0  0  0
 17107  1  0  0  0  0
 17108  1  0  0  0  0
 18109  1  0  0  0  0
 18110  1  0  0  0  0
 19111  1  0  0  0  0
 19112  1  0  0  0  0
 20113  1  0  0  0  0
 20114  1  0  0  0  0
 21115  1  4  0  0  0
 22116  1  0  0  0  0
 23117  1  0  0  0  0
 23118  1  0  0  0  0
 24119  1  4  0  0  0
 25120  1  0  0  0  0
 26121  1  0  0  0  0
 26122  1  0  0  0  0
 27123  1  0  0  0  0
 27124  1  0  0  0  0
 28125  1  0  0  0  0
 28126  1  0  0  0  0
 29127  1  0  0  0  0
 29128  1  0  0  0  0
 30129  1  0  0  0  0
 30130  1  0  0  0  0
 31131  1  0  0  0  0
 31132  1  0  0  0  0
 32133  1  0  0  0  0
 32134  1  0  0  0  0
 33135  1  0  0  0  0
 33136  1  0  0  0  0
 34137  1  0  0  0  0
 34138  1  0  0  0  0
 35139  1  0  0  0  0
 35140  1  0  0  0  0
 36141  1  0  0  0  0
 36142  1  0  0  0  0
 37143  1  0  0  0  0
 38144  1  0  0  0  0
 38145  1  0  0  0  0
 39146  1  0  0  0  0
 39147  1  0  0  0  0
 40148  1  0  0  0  0
 40149  1  0  0  0  0
 41150  1  0  0  0  0
 41151  1  0  0  0  0
 42152  1  0  0  0  0
 42153  1  0  0  0  0
 43154  1  0  0  0  0
 43155  1  0  0  0  0
 44156  1  0  0  0  0
 44157  1  0  0  0  0
 45158  1  0  0  0  0
 45159  1  0  0  0  0
 46160  1  0  0  0  0
 46161  1  0  0  0  0
 47162  1  0  0  0  0
 47163  1  0  0  0  0
 48164  1  0  0  0  0
 48165  1  0  0  0  0
 49166  1  0  0  0  0
 49167  1  0  0  0  0
 50168  1  0  0  0  0
 50169  1  0  0  0  0
 51170  1  0  0  0  0
 51171  1  0  0  0  0
 52172  1  0  0  0  0
 52173  1  0  0  0  0
 53174  1  0  0  0  0
 53175  1  0  0  0  0
 54176  1  0  0  0  0
 54177  1  0  0  0  0
 55178  1  0  0  0  0
 55179  1  0  0  0  0
 56180  1  0  0  0  0
 56181  1  0  0  0  0
 57182  1  0  0  0  0
 57183  1  0  0  0  0
 58184  1  4  0  0  0
 59185  1  0  0  0  0
 60186  1  0  0  0  0
 60187  1  0  0  0  0
 61188  1  4  0  0  0
 62189  1  0  0  0  0
 63190  1  0  0  0  0
 63191  1  0  0  0  0
 64192  1  0  0  0  0
 64193  1  0  0  0  0
 65194  1  0  0  0  0
 65195  1  0  0  0  0
 66196  1  0  0  0  0
 66197  1  0  0  0  0
 67198  1  0  0  0  0
 67199  1  0  0  0  0
 68200  1  0  0  0  0
 68201  1  0  0  0  0
 69202  1  0  0  0  0
 69203  1  0  0  0  0
 70204  1  0  0  0  0
 70205  1  0  0  0  0
 71206  1  0  0  0  0
 71207  1  0  0  0  0
 72208  1  0  0  0  0
 72209  1  0  0  0  0
 73210  1  0  0  0  0
 73211  1  0  0  0  0
 73212  1  0  0  0  0
M  END
>  <InChIKey>
PNJSUECMZCQDCC-ONBHPNORSA-N

>  <UN GHS>
1

>  <CASRN>
68955-56-6

> <Outcome>
1

>  <Index>
603

>  <StandardizerResult>
Clear Stereo (ID: ClearStereo)
Wedge Clean (ID: WedgeClean)
Mesomerize (ID: Mesomerize)
Tautomerize (ID: Tautomerize)
Add Explicit Hydrogens (ID: AddExplicitH)
Neutralize (ID: Neutralize)
Clean 2D (ID: Clean2D)

> <knn Distance>


> <CpId>
603

$$$$
605
  Mrv1532301301811342D          

 22 21  0  0  0  0            999 V2000
    1.0461    1.4281    0.0000 C   0  0  0  0  0  0  0  0  0  0  0  0
    1.7605    1.8406    0.0000 C   0  0  0  0  0  0  0  0  0  0  0  0
    2.4750    1.4281    0.0000 C   0  0  0  0  0  0  0  0  0  0  0  0
    3.1895    1.8406    0.0000 C   0  0  0  0  0  0  0  0  0  0  0  0
    3.9040    1.4281    0.0000 O   0  0  0  0  0  0  0  0  0  0  0  0
    4.6184    1.8406    0.0000 C   0  0  0  0  0  0  0  0  0  0  0  0
    5.3329    1.4281    0.0000 C   0  0  0  0  0  0  0  0  0  0  0  0
    6.0474    1.8406    0.0000 O   0  0  0  0  0  0  0  0  0  0  0  0
    0.6336    2.1426    0.0000 H   0  0  0  0  0  0  0  0  0  0  0  0
    0.3316    1.0156    0.0000 H   0  0  0  0  0  0  0  0  0  0  0  0
    1.4586    0.7136    0.0000 H   0  0  0  0  0  0  0  0  0  0  0  0
    2.1308    2.5778    0.0000 H   0  0  0  0  0  0  0  0  0  0  0  0
    1.3903    2.5778    0.0000 H   0  0  0  0  0  0  0  0  0  0  0  0
    2.1048    0.6908    0.0000 H   0  0  0  0  0  0  0  0  0  0  0  0
    2.8453    0.6908    0.0000 H   0  0  0  0  0  0  0  0  0  0  0  0
    3.5597    2.5778    0.0000 H   0  0  0  0  0  0  0  0  0  0  0  0
    2.8192    2.5778    0.0000 H   0  0  0  0  0  0  0  0  0  0  0  0
    4.9887    2.5778    0.0000 H   0  0  0  0  0  0  0  0  0  0  0  0
    4.2482    2.5778    0.0000 H   0  0  0  0  0  0  0  0  0  0  0  0
    4.9626    0.6908    0.0000 H   0  0  0  0  0  0  0  0  0  0  0  0
    5.7032    0.6908    0.0000 H   0  0  0  0  0  0  0  0  0  0  0  0
    6.7618    1.4281    0.0000 H   0  0  0  0  0  0  0  0  0  0  0  0
  1  2  1  0  0  0  0
  2  3  1  0  0  0  0
  3  4  1  0  0  0  0
  4  5  1  0  0  0  0
  5  6  1  0  0  0  0
  6  7  1  0  0  0  0
  7  8  1  0  0  0  0
  1  9  1  0  0  0  0
  1 10  1  0  0  0  0
  1 11  1  0  0  0  0
  2 12  1  0  0  0  0
  2 13  1  0  0  0  0
  3 14  1  0  0  0  0
  3 15  1  0  0  0  0
  4 16  1  0  0  0  0
  4 17  1  0  0  0  0
  6 18  1  0  0  0  0
  6 19  1  0  0  0  0
  7 20  1  0  0  0  0
  7 21  1  0  0  0  0
  8 22  1  0  0  0  0
M  END
>  <InChIKey>
POAOYUHQDCAZBD-UHFFFAOYSA-N

>  <UN GHS>
2A

>  <CASRN>
111-76-2

> <Outcome>
1

>  <Index>
605

>  <StandardizerResult>
Clear Stereo (ID: ClearStereo)
Wedge Clean (ID: WedgeClean)
Mesomerize (ID: Mesomerize)
Tautomerize (ID: Tautomerize)
Add Explicit Hydrogens (ID: AddExplicitH)
Neutralize (ID: Neutralize)
Clean 2D (ID: Clean2D)

> <knn Distance>


> <CpId>
605

$$$$
615
  Mrv1532301301811342D          

 13 12  0  0  0  0            999 V2000
    2.4750   -1.4289    0.0000 C   0  0  0  0  0  0  0  0  0  0  0  0
    2.0625   -0.7145    0.0000 N   0  0  0  0  0  0  0  0  0  0  0  0
    1.2375   -0.7145    0.0000 C   0  0  0  0  0  0  0  0  0  0  0  0
    0.8250   -1.4289    0.0000 S   0  0  0  0  0  0  0  0  0  0  0  0
    0.8250    0.0000    0.0000 N   0  0  0  0  0  0  0  0  0  0  0  0
    0.0000    0.0000    0.0000 N   0  0  0  0  0  0  0  0  0  0  0  0
    1.7605   -1.8414    0.0000 H   0  0  0  0  0  0  0  0  0  0  0  0
    2.8875   -2.1434    0.0000 H   0  0  0  0  0  0  0  0  0  0  0  0
    3.1895   -1.0164    0.0000 H   0  0  0  0  0  0  0  0  0  0  0  0
    2.4750    0.0000    0.0000 H   0  0  0  0  0  0  0  0  0  0  0  0
    1.2375    0.7145    0.0000 H   0  0  0  0  0  0  0  0  0  0  0  0
   -0.4125    0.7145    0.0000 H   0  0  0  0  0  0  0  0  0  0  0  0
   -0.4125   -0.7145    0.0000 H   0  0  0  0  0  0  0  0  0  0  0  0
  1  2  1  0  0  0  0
  2  3  1  0  0  0  0
  3  4  2  0  0  0  0
  3  5  1  0  0  0  0
  5  6  1  0  0  0  0
  1  7  1  0  0  0  0
  1  8  1  0  0  0  0
  1  9  1  0  0  0  0
  2 10  1  0  0  0  0
  5 11  1  0  0  0  0
  6 12  1  0  0  0  0
  6 13  1  0  0  0  0
M  END
>  <InChIKey>
PTVZQOAHCSKAAS-UHFFFAOYSA-N

>  <UN GHS>
2B

>  <CASRN>
6610-29-3

> <Outcome>
1

>  <Index>
615

>  <StandardizerResult>
Clear Stereo (ID: ClearStereo)
Wedge Clean (ID: WedgeClean)
Mesomerize (ID: Mesomerize)
Tautomerize (ID: Tautomerize)
Add Explicit Hydrogens (ID: AddExplicitH)
Neutralize (ID: Neutralize)
Clean 2D (ID: Clean2D)

> <knn Distance>


> <CpId>
615

$$$$
616
  Mrv1532301301811342D          

 14 14  0  0  0  0            999 V2000
   -0.0000    2.4750    0.0000 O   0  0  0  0  0  0  0  0  0  0  0  0
    0.7145    2.0625    0.0000 C   0  0  0  0  0  0  0  0  0  0  0  0
    1.4289    2.4750    0.0000 O   0  0  0  0  0  0  0  0  0  0  0  0
    0.7145    1.2375    0.0000 C   0  0  0  0  0  0  0  0  0  0  0  0
    1.4289    0.8250    0.0000 C   0  0  0  0  0  0  0  0  0  0  0  0
    1.4289    0.0000    0.0000 C   0  0  0  0  0  0  0  0  0  0  0  0
    0.7145   -0.4125    0.0000 C   0  0  0  0  0  0  0  0  0  0  0  0
   -0.0000    0.0000    0.0000 N   0  0  0  0  0  0  0  0  0  0  0  0
   -0.0000    0.8250    0.0000 C   0  0  0  0  0  0  0  0  0  0  0  0
   -0.0000    3.3000    0.0000 H   0  0  0  0  0  0  0  0  0  0  0  0
    2.1434    1.2375    0.0000 H   0  0  0  0  0  0  0  0  0  0  0  0
    2.1434   -0.4125    0.0000 H   0  0  0  0  0  0  0  0  0  0  0  0
    0.7145   -1.2375    0.0000 H   0  0  0  0  0  0  0  0  0  0  0  0
   -0.7145    1.2375    0.0000 H   0  0  0  0  0  0  0  0  0  0  0  0
  1  2  1  0  0  0  0
  2  3  2  0  0  0  0
  2  4  1  0  0  0  0
  4  5  4  0  0  0  0
  5  6  4  0  0  0  0
  6  7  4  0  0  0  0
  7  8  4  0  0  0  0
  8  9  4  0  0  0  0
  4  9  4  0  0  0  0
  1 10  1  0  0  0  0
  5 11  1  0  0  0  0
  6 12  1  0  0  0  0
  7 13  1  0  0  0  0
  9 14  1  0  0  0  0
M  END
>  <InChIKey>
PVNIIMVLHYAWGP-UHFFFAOYSA-N

>  <UN GHS>
2A

>  <CASRN>
59-67-6

> <Outcome>
1

>  <Index>
616

>  <StandardizerResult>
Dearomatize (ID: Dearomatize)
Clear Stereo (ID: ClearStereo)
Wedge Clean (ID: WedgeClean)
Mesomerize (ID: Mesomerize)
Tautomerize (ID: Tautomerize)
Aromatize (ID: Aromatize)
Add Explicit Hydrogens (ID: AddExplicitH)
Neutralize (ID: Neutralize)
Clean 2D (ID: Clean2D)

> <knn Distance>


> <CpId>
616

$$$$
618
  Mrv1532301301811342D          

 12 11  0  0  0  0            999 V2000
    2.1185   -0.7218    0.0000 C   0  0  0  0  0  0  0  0  0  0  0  0
    1.2935   -0.7218    0.0000 C   0  0  0  0  0  0  0  0  0  0  0  0
    0.8810   -1.4363    0.0000 C   0  0  0  0  0  0  0  0  0  0  0  0
    0.8810   -0.0074    0.0000 N   0  0  0  0  0  0  0  0  0  0  0  0
    0.0560   -0.0074    0.0000 O   0  0  0  0  0  0  0  0  0  0  0  0
    2.1185   -1.5468    0.0000 H   0  0  0  0  0  0  0  0  0  0  0  0
    2.9435   -0.7218    0.0000 H   0  0  0  0  0  0  0  0  0  0  0  0
    2.1185    0.1032    0.0000 H   0  0  0  0  0  0  0  0  0  0  0  0
    1.7060   -1.4363    0.0000 H   0  0  0  0  0  0  0  0  0  0  0  0
    0.2976   -0.8529    0.0000 H   0  0  0  0  0  0  0  0  0  0  0  0
    0.1665   -1.8488    0.0000 H   0  0  0  0  0  0  0  0  0  0  0  0
    1.0945   -2.2332    0.0000 H   0  0  0  0  0  0  0  0  0  0  0  0
  1  2  1  0  0  0  0
  2  3  1  0  0  0  0
  2  4  1  0  0  0  0
  4  5  2  0  0  0  0
  1  6  1  0  0  0  0
  1  7  1  0  0  0  0
  1  8  1  0  0  0  0
  2  9  1  0  0  0  0
  3 10  1  0  0  0  0
  3 11  1  0  0  0  0
  3 12  1  0  0  0  0
M  END
>  <InChIKey>
PXAJQJMDEXJWFB-UHFFFAOYSA-N

>  <UN GHS>
1

>  <CASRN>
127-06-0

> <Outcome>
1

>  <Index>
618

>  <StandardizerResult>
Clear Stereo (ID: ClearStereo)
Wedge Clean (ID: WedgeClean)
Mesomerize (ID: Mesomerize)
Tautomerize (ID: Tautomerize)
Add Explicit Hydrogens (ID: AddExplicitH)
Neutralize (ID: Neutralize)
Clean 2D (ID: Clean2D)

> <knn Distance>


> <CpId>
618

$$$$
621
  Mrv1532301301811342D          

 32 31  0  0  0  0            999 V2000
   -0.1443   -3.0857    0.0000 C   0  0  0  0  0  0  0  0  0  0  0  0
    0.6658   -2.9298    0.0000 C   0  0  0  0  0  0  0  0  0  0  0  0
    1.2059   -3.5534    0.0000 C   0  0  0  0  0  0  0  0  0  0  0  0
    2.0160   -3.3975    0.0000 C   0  0  0  0  0  0  0  0  0  0  0  0
    2.5561   -4.0211    0.0000 C   0  0  0  0  0  0  0  0  0  0  0  0
    3.3663   -3.8652    0.0000 C   0  0  0  0  0  0  0  0  0  0  0  0
    3.9063   -4.4889    0.0000 O   0  0  0  0  0  0  0  0  0  0  0  0
    4.7165   -4.3330    0.0000 C   0  0  0  0  0  0  0  0  0  0  0  0
    5.2566   -4.9566    0.0000 C   0  0  0  0  0  0  0  0  0  0  0  0
    6.0667   -4.8007    0.0000 O   0  0  0  0  0  0  0  0  0  0  0  0
    4.9865   -3.5534    0.0000 C   0  0  0  0  0  0  0  0  0  0  0  0
    5.7967   -3.3975    0.0000 O   0  0  0  0  0  0  0  0  0  0  0  0
   -0.3002   -2.2755    0.0000 H   0  0  0  0  0  0  0  0  0  0  0  0
   -0.9545   -3.2416    0.0000 H   0  0  0  0  0  0  0  0  0  0  0  0
    0.0116   -3.8958    0.0000 H   0  0  0  0  0  0  0  0  0  0  0  0
    1.2570   -2.3543    0.0000 H   0  0  0  0  0  0  0  0  0  0  0  0
    0.5573   -2.1119    0.0000 H   0  0  0  0  0  0  0  0  0  0  0  0
    0.6147   -4.1288    0.0000 H   0  0  0  0  0  0  0  0  0  0  0  0
    1.3144   -4.3712    0.0000 H   0  0  0  0  0  0  0  0  0  0  0  0
    2.6072   -2.8221    0.0000 H   0  0  0  0  0  0  0  0  0  0  0  0
    1.9075   -2.5797    0.0000 H   0  0  0  0  0  0  0  0  0  0  0  0
    1.9649   -4.5966    0.0000 H   0  0  0  0  0  0  0  0  0  0  0  0
    2.6647   -4.8390    0.0000 H   0  0  0  0  0  0  0  0  0  0  0  0
    3.9574   -3.2898    0.0000 H   0  0  0  0  0  0  0  0  0  0  0  0
    3.2577   -3.0474    0.0000 H   0  0  0  0  0  0  0  0  0  0  0  0
    4.4464   -5.1125    0.0000 H   0  0  0  0  0  0  0  0  0  0  0  0
    5.1260   -5.7712    0.0000 H   0  0  0  0  0  0  0  0  0  0  0  0
    5.6802   -5.6645    0.0000 H   0  0  0  0  0  0  0  0  0  0  0  0
    6.7133   -4.2883    0.0000 H   0  0  0  0  0  0  0  0  0  0  0  0
    4.7838   -2.7537    0.0000 H   0  0  0  0  0  0  0  0  0  0  0  0
    4.2240   -3.2385    0.0000 H   0  0  0  0  0  0  0  0  0  0  0  0
    6.3367   -4.0211    0.0000 H   0  0  0  0  0  0  0  0  0  0  0  0
  1  2  1  0  0  0  0
  2  3  1  0  0  0  0
  3  4  1  0  0  0  0
  4  5  1  0  0  0  0
  5  6  1  0  0  0  0
  6  7  1  0  0  0  0
  7  8  1  0  0  0  0
  8  9  1  0  0  0  0
  9 10  1  0  0  0  0
  8 11  1  0  0  0  0
 11 12  1  0  0  0  0
  1 13  1  0  0  0  0
  1 14  1  0  0  0  0
  1 15  1  0  0  0  0
  2 16  1  0  0  0  0
  2 17  1  0  0  0  0
  3 18  1  0  0  0  0
  3 19  1  0  0  0  0
  4 20  1  0  0  0  0
  4 21  1  0  0  0  0
  5 22  1  0  0  0  0
  5 23  1  0  0  0  0
  6 24  1  0  0  0  0
  6 25  1  0  0  0  0
  8 26  1  0  0  0  0
  9 27  1  0  0  0  0
  9 28  1  0  0  0  0
 10 29  1  0  0  0  0
 11 30  1  0  0  0  0
 11 31  1  0  0  0  0
 12 32  1  0  0  0  0
M  END
>  <InChIKey>
PXWAQUODOTWYMT-UHFFFAOYSA-N

>  <UN GHS>
2A

>  <CASRN>
10305-38-1

> <Outcome>
1

>  <Index>
621

>  <StandardizerResult>
Clear Stereo (ID: ClearStereo)
Wedge Clean (ID: WedgeClean)
Mesomerize (ID: Mesomerize)
Tautomerize (ID: Tautomerize)
Add Explicit Hydrogens (ID: AddExplicitH)
Neutralize (ID: Neutralize)
Clean 2D (ID: Clean2D)

> <knn Distance>


> <CpId>
621

$$$$
623
  Mrv1532301301811342D          

 17 16  0  0  0  0            999 V2000
    2.4478    0.0406    0.0000 C   0  0  0  0  0  0  0  0  0  0  0  0
    2.0353    0.7550    0.0000 O   0  0  0  0  0  0  0  0  0  0  0  0
    1.2103    0.7550    0.0000 C   0  0  0  0  0  0  0  0  0  0  0  0
    0.7978    1.4695    0.0000 O   0  0  0  0  0  0  0  0  0  0  0  0
   -0.0272    1.4695    0.0000 C   0  0  0  0  0  0  0  0  0  0  0  0
    0.7978    0.0406    0.0000 O   0  0  0  0  0  0  0  0  0  0  0  0
   -0.0272    0.0406    0.0000 C   0  0  0  0  0  0  0  0  0  0  0  0
    1.7333   -0.3719    0.0000 H   0  0  0  0  0  0  0  0  0  0  0  0
    2.8603   -0.6739    0.0000 H   0  0  0  0  0  0  0  0  0  0  0  0
    3.1623    0.4531    0.0000 H   0  0  0  0  0  0  0  0  0  0  0  0
    1.6228    1.4695    0.0000 H   0  0  0  0  0  0  0  0  0  0  0  0
   -0.0272    2.2945    0.0000 H   0  0  0  0  0  0  0  0  0  0  0  0
   -0.8522    1.4695    0.0000 H   0  0  0  0  0  0  0  0  0  0  0  0
   -0.0272    0.6445    0.0000 H   0  0  0  0  0  0  0  0  0  0  0  0
   -0.7894    0.3563    0.0000 H   0  0  0  0  0  0  0  0  0  0  0  0
   -0.6106   -0.5428    0.0000 H   0  0  0  0  0  0  0  0  0  0  0  0
    0.2885   -0.7216    0.0000 H   0  0  0  0  0  0  0  0  0  0  0  0
  1  2  1  0  0  0  0
  2  3  1  0  0  0  0
  3  4  1  0  0  0  0
  4  5  1  0  0  0  0
  3  6  1  0  0  0  0
  6  7  1  0  0  0  0
  1  8  1  0  0  0  0
  1  9  1  0  0  0  0
  1 10  1  0  0  0  0
  3 11  1  0  0  0  0
  5 12  1  0  0  0  0
  5 13  1  0  0  0  0
  5 14  1  0  0  0  0
  7 15  1  0  0  0  0
  7 16  1  0  0  0  0
  7 17  1  0  0  0  0
M  END
>  <InChIKey>
PYOKUURKVVELLB-UHFFFAOYSA-N

>  <UN GHS>
2A

>  <CASRN>
149-73-5

> <Outcome>
1

>  <Index>
623

>  <StandardizerResult>
Clear Stereo (ID: ClearStereo)
Wedge Clean (ID: WedgeClean)
Mesomerize (ID: Mesomerize)
Tautomerize (ID: Tautomerize)
Add Explicit Hydrogens (ID: AddExplicitH)
Neutralize (ID: Neutralize)
Clean 2D (ID: Clean2D)

> <knn Distance>


> <CpId>
623

$$$$
624
  Mrv1532301301811342D          

 20 19  0  0  0  0            999 V2000
   -0.1792    0.7196    0.0000 C   0  0  0  0  0  0  0  0  0  0  0  0
    0.5352    1.1321    0.0000 N   0  0  0  0  0  0  0  0  0  0  0  0
    0.5352    1.9571    0.0000 C   0  0  0  0  0  0  0  0  0  0  0  0
    1.2497    0.7196    0.0000 C   0  0  0  0  0  0  0  0  0  0  0  0
    1.9642    1.1321    0.0000 C   0  0  0  0  0  0  0  0  0  0  0  0
    2.6786    0.7196    0.0000 C   0  0  0  0  0  0  0  0  0  0  0  0
    3.3931    1.1321    0.0000 O   0  0  0  0  0  0  0  0  0  0  0  0
   -0.5917    1.4341    0.0000 H   0  0  0  0  0  0  0  0  0  0  0  0
   -0.8937    0.3071    0.0000 H   0  0  0  0  0  0  0  0  0  0  0  0
    0.2333    0.0051    0.0000 H   0  0  0  0  0  0  0  0  0  0  0  0
    1.3602    1.9571    0.0000 H   0  0  0  0  0  0  0  0  0  0  0  0
    0.5352    2.7821    0.0000 H   0  0  0  0  0  0  0  0  0  0  0  0
   -0.2898    1.9571    0.0000 H   0  0  0  0  0  0  0  0  0  0  0  0
    0.8794   -0.0177    0.0000 H   0  0  0  0  0  0  0  0  0  0  0  0
    1.6200   -0.0177    0.0000 H   0  0  0  0  0  0  0  0  0  0  0  0
    2.3344    1.8693    0.0000 H   0  0  0  0  0  0  0  0  0  0  0  0
    1.5939    1.8693    0.0000 H   0  0  0  0  0  0  0  0  0  0  0  0
    2.3084   -0.0177    0.0000 H   0  0  0  0  0  0  0  0  0  0  0  0
    3.0489   -0.0177    0.0000 H   0  0  0  0  0  0  0  0  0  0  0  0
    4.1076    0.7196    0.0000 H   0  0  0  0  0  0  0  0  0  0  0  0
  1  2  1  0  0  0  0
  2  3  1  0  0  0  0
  2  4  1  0  0  0  0
  4  5  1  0  0  0  0
  5  6  1  0  0  0  0
  6  7  1  0  0  0  0
  1  8  1  0  0  0  0
  1  9  1  0  0  0  0
  1 10  1  0  0  0  0
  3 11  1  0  0  0  0
  3 12  1  0  0  0  0
  3 13  1  0  0  0  0
  4 14  1  0  0  0  0
  4 15  1  0  0  0  0
  5 16  1  0  0  0  0
  5 17  1  0  0  0  0
  6 18  1  0  0  0  0
  6 19  1  0  0  0  0
  7 20  1  0  0  0  0
M  END
>  <InChIKey>
PYSGFFTXMUWEOT-UHFFFAOYSA-N

>  <UN GHS>
1

>  <CASRN>
3179-63-3

> <Outcome>
1

>  <Index>
624

>  <StandardizerResult>
Clear Stereo (ID: ClearStereo)
Wedge Clean (ID: WedgeClean)
Mesomerize (ID: Mesomerize)
Tautomerize (ID: Tautomerize)
Add Explicit Hydrogens (ID: AddExplicitH)
Neutralize (ID: Neutralize)
Clean 2D (ID: Clean2D)

> <knn Distance>


> <CpId>
624

$$$$
625
  Mrv1532301301811342D          

 82 81  0  0  0  0            999 V2000
   14.1355    8.9862    0.0000 C   0  0  0  0  0  0  0  0  0  0  0  0
   14.8500    8.5737    0.0000 C   0  0  0  0  0  0  0  0  0  0  0  0
   15.5645    8.9862    0.0000 C   0  0  0  0  0  0  0  0  0  0  0  0
   16.2789    8.5737    0.0000 C   0  0  0  0  0  0  0  0  0  0  0  0
   16.9934    8.9862    0.0000 C   0  0  0  0  0  0  0  0  0  0  0  0
   17.7079    8.5737    0.0000 C   0  0  0  0  0  0  0  0  0  0  0  0
   18.4224    8.9862    0.0000 C   0  0  0  0  0  0  0  0  0  0  0  0
   19.1368    8.5737    0.0000 C   0  0  0  0  0  0  0  0  0  0  0  0
   19.8513    8.9862    0.0000 C   0  0  0  0  0  0  0  0  0  0  0  0
   20.5658    8.5737    0.0000 C   0  0  0  0  0  0  0  0  0  0  0  0
   21.2802    8.9862    0.0000 C   0  0  0  0  0  0  0  0  0  0  0  0
   21.9947    8.5737    0.0000 C   0  0  0  0  0  0  0  0  0  0  0  0
   22.7092    8.9862    0.0000 C   0  0  0  0  0  0  0  0  0  0  0  0
   23.4237    8.5737    0.0000 N   0  0  0  0  0  0  0  0  0  0  0  0
   24.1381    8.9862    0.0000 C   0  0  0  0  0  0  0  0  0  0  0  0
   24.8526    8.5737    0.0000 C   0  0  0  0  0  0  0  0  0  0  0  0
   25.5671    8.9862    0.0000 C   0  0  0  0  0  0  0  0  0  0  0  0
   26.2815    8.5737    0.0000 C   0  0  0  0  0  0  0  0  0  0  0  0
   26.9960    8.9862    0.0000 C   0  0  0  0  0  0  0  0  0  0  0  0
   27.7105    8.5737    0.0000 C   0  0  0  0  0  0  0  0  0  0  0  0
   28.4249    8.9862    0.0000 C   0  0  0  0  0  0  0  0  0  0  0  0
   29.1394    8.5737    0.0000 C   0  0  0  0  0  0  0  0  0  0  0  0
   29.8539    8.9862    0.0000 C   0  0  0  0  0  0  0  0  0  0  0  0
   30.5684    8.5737    0.0000 C   0  0  0  0  0  0  0  0  0  0  0  0
   31.2828    8.9862    0.0000 C   0  0  0  0  0  0  0  0  0  0  0  0
   31.9973    8.5737    0.0000 C   0  0  0  0  0  0  0  0  0  0  0  0
   32.7118    8.9862    0.0000 C   0  0  0  0  0  0  0  0  0  0  0  0
   14.5480    9.7007    0.0000 H   0  0  0  0  0  0  0  0  0  0  0  0
   13.4211    9.3987    0.0000 H   0  0  0  0  0  0  0  0  0  0  0  0
   13.7230    8.2717    0.0000 H   0  0  0  0  0  0  0  0  0  0  0  0
   14.4797    7.8365    0.0000 H   0  0  0  0  0  0  0  0  0  0  0  0
   15.2203    7.8365    0.0000 H   0  0  0  0  0  0  0  0  0  0  0  0
   15.9347    9.7234    0.0000 H   0  0  0  0  0  0  0  0  0  0  0  0
   15.1942    9.7234    0.0000 H   0  0  0  0  0  0  0  0  0  0  0  0
   15.9087    7.8365    0.0000 H   0  0  0  0  0  0  0  0  0  0  0  0
   16.6492    7.8365    0.0000 H   0  0  0  0  0  0  0  0  0  0  0  0
   17.3637    9.7234    0.0000 H   0  0  0  0  0  0  0  0  0  0  0  0
   16.6232    9.7234    0.0000 H   0  0  0  0  0  0  0  0  0  0  0  0
   17.3376    7.8365    0.0000 H   0  0  0  0  0  0  0  0  0  0  0  0
   18.0781    7.8365    0.0000 H   0  0  0  0  0  0  0  0  0  0  0  0
   18.7926    9.7234    0.0000 H   0  0  0  0  0  0  0  0  0  0  0  0
   18.0521    9.7234    0.0000 H   0  0  0  0  0  0  0  0  0  0  0  0
   18.7666    7.8365    0.0000 H   0  0  0  0  0  0  0  0  0  0  0  0
   19.5071    7.8365    0.0000 H   0  0  0  0  0  0  0  0  0  0  0  0
   20.2216    9.7234    0.0000 H   0  0  0  0  0  0  0  0  0  0  0  0
   19.4810    9.7234    0.0000 H   0  0  0  0  0  0  0  0  0  0  0  0
   20.1955    7.8365    0.0000 H   0  0  0  0  0  0  0  0  0  0  0  0
   20.9360    7.8365    0.0000 H   0  0  0  0  0  0  0  0  0  0  0  0
   21.6505    9.7234    0.0000 H   0  0  0  0  0  0  0  0  0  0  0  0
   20.9100    9.7234    0.0000 H   0  0  0  0  0  0  0  0  0  0  0  0
   21.6244    7.8365    0.0000 H   0  0  0  0  0  0  0  0  0  0  0  0
   22.3650    7.8365    0.0000 H   0  0  0  0  0  0  0  0  0  0  0  0
   23.0794    9.7234    0.0000 H   0  0  0  0  0  0  0  0  0  0  0  0
   22.3389    9.7234    0.0000 H   0  0  0  0  0  0  0  0  0  0  0  0
   23.4237    7.7487    0.0000 H   0  0  0  0  0  0  0  0  0  0  0  0
   24.5084    9.7234    0.0000 H   0  0  0  0  0  0  0  0  0  0  0  0
   23.7679    9.7234    0.0000 H   0  0  0  0  0  0  0  0  0  0  0  0
   24.4823    7.8365    0.0000 H   0  0  0  0  0  0  0  0  0  0  0  0
   25.2229    7.8365    0.0000 H   0  0  0  0  0  0  0  0  0  0  0  0
   25.9373    9.7234    0.0000 H   0  0  0  0  0  0  0  0  0  0  0  0
   25.1968    9.7234    0.0000 H   0  0  0  0  0  0  0  0  0  0  0  0
   25.9113    7.8365    0.0000 H   0  0  0  0  0  0  0  0  0  0  0  0
   26.6518    7.8365    0.0000 H   0  0  0  0  0  0  0  0  0  0  0  0
   27.3663    9.7234    0.0000 H   0  0  0  0  0  0  0  0  0  0  0  0
   26.6257    9.7234    0.0000 H   0  0  0  0  0  0  0  0  0  0  0  0
   27.3402    7.8365    0.0000 H   0  0  0  0  0  0  0  0  0  0  0  0
   28.0807    7.8365    0.0000 H   0  0  0  0  0  0  0  0  0  0  0  0
   28.7952    9.7234    0.0000 H   0  0  0  0  0  0  0  0  0  0  0  0
   28.0547    9.7234    0.0000 H   0  0  0  0  0  0  0  0  0  0  0  0
   28.7692    7.8365    0.0000 H   0  0  0  0  0  0  0  0  0  0  0  0
   29.5097    7.8365    0.0000 H   0  0  0  0  0  0  0  0  0  0  0  0
   30.2241    9.7234    0.0000 H   0  0  0  0  0  0  0  0  0  0  0  0
   29.4836    9.7234    0.0000 H   0  0  0  0  0  0  0  0  0  0  0  0
   30.1981    7.8365    0.0000 H   0  0  0  0  0  0  0  0  0  0  0  0
   30.9386    7.8365    0.0000 H   0  0  0  0  0  0  0  0  0  0  0  0
   31.6531    9.7234    0.0000 H   0  0  0  0  0  0  0  0  0  0  0  0
   30.9126    9.7234    0.0000 H   0  0  0  0  0  0  0  0  0  0  0  0
   31.6270    7.8365    0.0000 H   0  0  0  0  0  0  0  0  0  0  0  0
   32.3676    7.8365    0.0000 H   0  0  0  0  0  0  0  0  0  0  0  0
   33.1243    8.2717    0.0000 H   0  0  0  0  0  0  0  0  0  0  0  0
   33.4262    9.3987    0.0000 H   0  0  0  0  0  0  0  0  0  0  0  0
   32.2993    9.7007    0.0000 H   0  0  0  0  0  0  0  0  0  0  0  0
  1  2  1  0  0  0  0
  2  3  1  0  0  0  0
  3  4  1  0  0  0  0
  4  5  1  0  0  0  0
  5  6  1  0  0  0  0
  6  7  1  0  0  0  0
  7  8  1  0  0  0  0
  8  9  1  0  0  0  0
  9 10  1  0  0  0  0
 10 11  1  0  0  0  0
 11 12  1  0  0  0  0
 12 13  1  0  0  0  0
 13 14  1  0  0  0  0
 14 15  1  0  0  0  0
 15 16  1  0  0  0  0
 16 17  1  0  0  0  0
 17 18  1  0  0  0  0
 18 19  1  0  0  0  0
 19 20  1  0  0  0  0
 20 21  1  0  0  0  0
 21 22  1  0  0  0  0
 22 23  1  0  0  0  0
 23 24  1  0  0  0  0
 24 25  1  0  0  0  0
 25 26  1  0  0  0  0
 26 27  1  0  0  0  0
  1 28  1  0  0  0  0
  1 29  1  0  0  0  0
  1 30  1  0  0  0  0
  2 31  1  0  0  0  0
  2 32  1  0  0  0  0
  3 33  1  0  0  0  0
  3 34  1  0  0  0  0
  4 35  1  0  0  0  0
  4 36  1  0  0  0  0
  5 37  1  0  0  0  0
  5 38  1  0  0  0  0
  6 39  1  0  0  0  0
  6 40  1  0  0  0  0
  7 41  1  0  0  0  0
  7 42  1  0  0  0  0
  8 43  1  0  0  0  0
  8 44  1  0  0  0  0
  9 45  1  0  0  0  0
  9 46  1  0  0  0  0
 10 47  1  0  0  0  0
 10 48  1  0  0  0  0
 11 49  1  0  0  0  0
 11 50  1  0  0  0  0
 12 51  1  0  0  0  0
 12 52  1  0  0  0  0
 13 53  1  0  0  0  0
 13 54  1  0  0  0  0
 14 55  1  0  0  0  0
 15 56  1  0  0  0  0
 15 57  1  0  0  0  0
 16 58  1  0  0  0  0
 16 59  1  0  0  0  0
 17 60  1  0  0  0  0
 17 61  1  0  0  0  0
 18 62  1  0  0  0  0
 18 63  1  0  0  0  0
 19 64  1  0  0  0  0
 19 65  1  0  0  0  0
 20 66  1  0  0  0  0
 20 67  1  0  0  0  0
 21 68  1  0  0  0  0
 21 69  1  0  0  0  0
 22 70  1  0  0  0  0
 22 71  1  0  0  0  0
 23 72  1  0  0  0  0
 23 73  1  0  0  0  0
 24 74  1  0  0  0  0
 24 75  1  0  0  0  0
 25 76  1  0  0  0  0
 25 77  1  0  0  0  0
 26 78  1  0  0  0  0
 26 79  1  0  0  0  0
 27 80  1  0  0  0  0
 27 81  1  0  0  0  0
 27 82  1  0  0  0  0
M  END
>  <InChIKey>
PZFYOFFTIYJCEW-UHFFFAOYSA-N

>  <UN GHS>
1

>  <CASRN>
101012-97-9

> <Outcome>
1

>  <Index>
625

>  <StandardizerResult>
Clear Stereo (ID: ClearStereo)
Wedge Clean (ID: WedgeClean)
Mesomerize (ID: Mesomerize)
Tautomerize (ID: Tautomerize)
Add Explicit Hydrogens (ID: AddExplicitH)
Neutralize (ID: Neutralize)
Clean 2D (ID: Clean2D)

> <knn Distance>


> <CpId>
625

$$$$
627
  Mrv1532301301811342D          

 78 77  0  0  0  0            999 V2000
    0.5450    7.3268    0.0000 C   0  0  0  0  0  0  0  0  0  0  0  0
    1.1866    7.8454    0.0000 C   0  0  0  0  0  0  0  0  0  0  0  0
    1.0583    8.6603    0.0000 C   0  0  0  0  0  0  0  0  0  0  0  0
    1.9566    7.5490    0.0000 C   0  0  0  0  0  0  0  0  0  0  0  0
    2.5982    8.0676    0.0000 C   0  0  0  0  0  0  0  0  0  0  0  0
    3.3681    7.7713    0.0000 C   0  0  0  0  0  0  0  0  0  0  0  0
    4.0097    8.2899    0.0000 C   0  0  0  0  0  0  0  0  0  0  0  0
    4.7797    7.9935    0.0000 C   0  0  0  0  0  0  0  0  0  0  0  0
    5.4213    8.5122    0.0000 C   0  0  0  0  0  0  0  0  0  0  0  0
    6.1912    8.2158    0.0000 C   0  0  0  0  0  0  0  0  0  0  0  0
    6.8328    8.7344    0.0000 O   0  0  0  0  0  0  0  0  0  0  0  0
    7.6028    8.4381    0.0000 C   0  0  0  0  0  0  0  0  0  0  0  0
    7.7311    7.6231    0.0000 O   0  0  0  0  0  0  0  0  0  0  0  0
    8.2444    8.9567    0.0000 C   0  0  0  0  0  0  0  0  0  0  0  0
    9.0143    8.6603    0.0000 C   0  0  0  0  0  0  0  0  0  0  0  0
    9.6559    9.1789    0.0000 C   0  0  0  0  0  0  0  0  0  0  0  0
    9.5276    9.9939    0.0000 O   0  0  0  0  0  0  0  0  0  0  0  0
   10.4259    8.8826    0.0000 O   0  0  0  0  0  0  0  0  0  0  0  0
   11.0675    9.4012    0.0000 C   0  0  0  0  0  0  0  0  0  0  0  0
   11.8374    9.1049    0.0000 C   0  0  0  0  0  0  0  0  0  0  0  0
   12.4790    9.6235    0.0000 C   0  0  0  0  0  0  0  0  0  0  0  0
   13.2490    9.3271    0.0000 C   0  0  0  0  0  0  0  0  0  0  0  0
   13.8906    9.8457    0.0000 C   0  0  0  0  0  0  0  0  0  0  0  0
   14.6605    9.5494    0.0000 C   0  0  0  0  0  0  0  0  0  0  0  0
   15.3021   10.0680    0.0000 C   0  0  0  0  0  0  0  0  0  0  0  0
   16.0721    9.7716    0.0000 C   0  0  0  0  0  0  0  0  0  0  0  0
   16.7137   10.2902    0.0000 C   0  0  0  0  0  0  0  0  0  0  0  0
   16.2004    8.9567    0.0000 C   0  0  0  0  0  0  0  0  0  0  0  0
    9.1426    7.8454    0.0000 S   0  0  0  0  0  0  0  0  0  0  0  0
    8.3277    7.7170    0.0000 O   0  0  0  0  0  0  0  0  0  0  0  0
    9.9576    7.9737    0.0000 O   0  0  0  0  0  0  0  0  0  0  0  0
    9.2710    7.0304    0.0000 O   0  0  0  0  0  0  0  0  0  0  0  0
    0.0264    7.9684    0.0000 H   0  0  0  0  0  0  0  0  0  0  0  0
   -0.0966    6.8081    0.0000 H   0  0  0  0  0  0  0  0  0  0  0  0
    1.0636    6.6851    0.0000 H   0  0  0  0  0  0  0  0  0  0  0  0
    0.4167    8.1417    0.0000 H   0  0  0  0  0  0  0  0  0  0  0  0
    1.8787    8.5734    0.0000 H   0  0  0  0  0  0  0  0  0  0  0  0
    1.3546    9.4303    0.0000 H   0  0  0  0  0  0  0  0  0  0  0  0
    0.3913    9.1459    0.0000 H   0  0  0  0  0  0  0  0  0  0  0  0
    1.7055    6.7632    0.0000 H   0  0  0  0  0  0  0  0  0  0  0  0
    2.4370    6.8783    0.0000 H   0  0  0  0  0  0  0  0  0  0  0  0
    2.9865    8.7955    0.0000 H   0  0  0  0  0  0  0  0  0  0  0  0
    2.7265    7.2527    0.0000 H   0  0  0  0  0  0  0  0  0  0  0  0
    3.6360    6.9910    0.0000 H   0  0  0  0  0  0  0  0  0  0  0  0
    4.0749    7.3457    0.0000 H   0  0  0  0  0  0  0  0  0  0  0  0
    4.2608    9.0758    0.0000 H   0  0  0  0  0  0  0  0  0  0  0  0
    3.5293    8.9606    0.0000 H   0  0  0  0  0  0  0  0  0  0  0  0
    4.9424    7.1847    0.0000 H   0  0  0  0  0  0  0  0  0  0  0  0
    5.5557    7.7136    0.0000 H   0  0  0  0  0  0  0  0  0  0  0  0
    5.6724    9.2980    0.0000 H   0  0  0  0  0  0  0  0  0  0  0  0
    4.9408    9.1828    0.0000 H   0  0  0  0  0  0  0  0  0  0  0  0
    6.4539    7.4337    0.0000 H   0  0  0  0  0  0  0  0  0  0  0  0
    6.8962    7.7872    0.0000 H   0  0  0  0  0  0  0  0  0  0  0  0
    8.4955    9.7425    0.0000 H   0  0  0  0  0  0  0  0  0  0  0  0
    7.7639    9.6274    0.0000 H   0  0  0  0  0  0  0  0  0  0  0  0
    8.8860    9.4753    0.0000 H   0  0  0  0  0  0  0  0  0  0  0  0
   11.3186   10.1871    0.0000 H   0  0  0  0  0  0  0  0  0  0  0  0
   10.5870   10.0719    0.0000 H   0  0  0  0  0  0  0  0  0  0  0  0
   11.5863    8.3190    0.0000 H   0  0  0  0  0  0  0  0  0  0  0  0
   12.3178    8.4342    0.0000 H   0  0  0  0  0  0  0  0  0  0  0  0
   12.7301   10.4093    0.0000 H   0  0  0  0  0  0  0  0  0  0  0  0
   11.9986   10.2941    0.0000 H   0  0  0  0  0  0  0  0  0  0  0  0
   12.9979    8.5412    0.0000 H   0  0  0  0  0  0  0  0  0  0  0  0
   13.7294    8.6564    0.0000 H   0  0  0  0  0  0  0  0  0  0  0  0
   14.1417   10.6316    0.0000 H   0  0  0  0  0  0  0  0  0  0  0  0
   13.4101   10.5164    0.0000 H   0  0  0  0  0  0  0  0  0  0  0  0
   14.4094    8.7635    0.0000 H   0  0  0  0  0  0  0  0  0  0  0  0
   15.1409    8.8787    0.0000 H   0  0  0  0  0  0  0  0  0  0  0  0
   15.5532   10.8539    0.0000 H   0  0  0  0  0  0  0  0  0  0  0  0
   14.8217   10.7387    0.0000 H   0  0  0  0  0  0  0  0  0  0  0  0
   15.9437   10.5866    0.0000 H   0  0  0  0  0  0  0  0  0  0  0  0
   17.0486    9.5363    0.0000 H   0  0  0  0  0  0  0  0  0  0  0  0
   17.5286   10.4186    0.0000 H   0  0  0  0  0  0  0  0  0  0  0  0
   16.8007   11.1106    0.0000 H   0  0  0  0  0  0  0  0  0  0  0  0
   15.3854    8.8284    0.0000 H   0  0  0  0  0  0  0  0  0  0  0  0
   16.3287    8.1417    0.0000 H   0  0  0  0  0  0  0  0  0  0  0  0
   17.0153    9.0850    0.0000 H   0  0  0  0  0  0  0  0  0  0  0  0
    8.1993    8.5320    0.0000 H   0  0  0  0  0  0  0  0  0  0  0  0
  1  2  1  0  0  0  0
  2  3  1  0  0  0  0
  2  4  1  0  0  0  0
  4  5  1  0  0  0  0
  5  6  1  0  0  0  0
  6  7  1  0  0  0  0
  7  8  1  0  0  0  0
  8  9  1  0  0  0  0
  9 10  1  0  0  0  0
 10 11  1  0  0  0  0
 11 12  1  0  0  0  0
 12 13  2  0  0  0  0
 12 14  1  0  0  0  0
 14 15  1  0  0  0  0
 15 16  1  0  0  0  0
 16 17  2  0  0  0  0
 16 18  1  0  0  0  0
 18 19  1  0  0  0  0
 19 20  1  0  0  0  0
 20 21  1  0  0  0  0
 21 22  1  0  0  0  0
 22 23  1  0  0  0  0
 23 24  1  0  0  0  0
 24 25  1  0  0  0  0
 25 26  1  0  0  0  0
 26 27  1  0  0  0  0
 26 28  1  0  0  0  0
 15 29  1  0  0  0  0
 29 30  1  0  0  0  0
 29 31  2  0  0  0  0
 29 32  2  0  0  0  0
  1 33  1  0  0  0  0
  1 34  1  0  0  0  0
  1 35  1  0  0  0  0
  2 36  1  0  0  0  0
  3 37  1  0  0  0  0
  3 38  1  0  0  0  0
  3 39  1  0  0  0  0
  4 40  1  0  0  0  0
  4 41  1  0  0  0  0
  5 42  1  0  0  0  0
  5 43  1  0  0  0  0
  6 44  1  0  0  0  0
  6 45  1  0  0  0  0
  7 46  1  0  0  0  0
  7 47  1  0  0  0  0
  8 48  1  0  0  0  0
  8 49  1  0  0  0  0
  9 50  1  0  0  0  0
  9 51  1  0  0  0  0
 10 52  1  0  0  0  0
 10 53  1  0  0  0  0
 14 54  1  0  0  0  0
 14 55  1  0  0  0  0
 15 56  1  0  0  0  0
 19 57  1  0  0  0  0
 19 58  1  0  0  0  0
 20 59  1  0  0  0  0
 20 60  1  0  0  0  0
 21 61  1  0  0  0  0
 21 62  1  0  0  0  0
 22 63  1  0  0  0  0
 22 64  1  0  0  0  0
 23 65  1  0  0  0  0
 23 66  1  0  0  0  0
 24 67  1  0  0  0  0
 24 68  1  0  0  0  0
 25 69  1  0  0  0  0
 25 70  1  0  0  0  0
 26 71  1  0  0  0  0
 27 72  1  0  0  0  0
 27 73  1  0  0  0  0
 27 74  1  0  0  0  0
 28 75  1  0  0  0  0
 28 76  1  0  0  0  0
 28 77  1  0  0  0  0
 30 78  1  0  0  0  0
M  END
>  <InChIKey>
QANVQYKQPMHTAM-UHFFFAOYSA-M

>  <UN GHS>
2A

>  <CASRN>
29857-13-4

> <Outcome>
1

>  <Index>
627

>  <StandardizerResult>
Clear Stereo (ID: ClearStereo)
Wedge Clean (ID: WedgeClean)
Mesomerize (ID: Mesomerize)
Tautomerize (ID: Tautomerize)
Add Explicit Hydrogens (ID: AddExplicitH)
Neutralize (ID: Neutralize)
Clean 2D (ID: Clean2D)

> <knn Distance>


> <CpId>
627

$$$$
629
  Mrv1532301301811342D          

 20 20  0  0  0  0            999 V2000
   -0.7145    3.7125    0.0000 O   0  0  0  0  0  0  0  0  0  0  0  0
   -0.0000    3.3000    0.0000 C   0  0  0  0  0  0  0  0  0  0  0  0
   -0.0000    2.4750    0.0000 C   0  0  0  0  0  0  0  0  0  0  0  0
    0.7145    2.0625    0.0000 O   0  0  0  0  0  0  0  0  0  0  0  0
    0.7145    1.2375    0.0000 C   0  0  0  0  0  0  0  0  0  0  0  0
    1.4289    0.8250    0.0000 C   0  0  0  0  0  0  0  0  0  0  0  0
    1.4289    0.0000    0.0000 C   0  0  0  0  0  0  0  0  0  0  0  0
    0.7145   -0.4125    0.0000 C   0  0  0  0  0  0  0  0  0  0  0  0
   -0.0000    0.0000    0.0000 C   0  0  0  0  0  0  0  0  0  0  0  0
   -0.0000    0.8250    0.0000 C   0  0  0  0  0  0  0  0  0  0  0  0
   -0.7145    4.5375    0.0000 H   0  0  0  0  0  0  0  0  0  0  0  0
    0.8236    3.3480    0.0000 H   0  0  0  0  0  0  0  0  0  0  0  0
    0.4533    3.9893    0.0000 H   0  0  0  0  0  0  0  0  0  0  0  0
   -0.8236    2.4270    0.0000 H   0  0  0  0  0  0  0  0  0  0  0  0
   -0.4533    1.7857    0.0000 H   0  0  0  0  0  0  0  0  0  0  0  0
    2.1434    1.2375    0.0000 H   0  0  0  0  0  0  0  0  0  0  0  0
    2.1434   -0.4125    0.0000 H   0  0  0  0  0  0  0  0  0  0  0  0
    0.7145   -1.2375    0.0000 H   0  0  0  0  0  0  0  0  0  0  0  0
   -0.7145   -0.4125    0.0000 H   0  0  0  0  0  0  0  0  0  0  0  0
   -0.7145    1.2375    0.0000 H   0  0  0  0  0  0  0  0  0  0  0  0
  1  2  1  0  0  0  0
  2  3  1  0  0  0  0
  3  4  1  0  0  0  0
  4  5  1  0  0  0  0
  5  6  4  0  0  0  0
  6  7  4  0  0  0  0
  7  8  4  0  0  0  0
  8  9  4  0  0  0  0
  9 10  4  0  0  0  0
  5 10  4  0  0  0  0
  1 11  1  0  0  0  0
  2 12  1  0  0  0  0
  2 13  1  0  0  0  0
  3 14  1  0  0  0  0
  3 15  1  0  0  0  0
  6 16  1  0  0  0  0
  7 17  1  0  0  0  0
  8 18  1  0  0  0  0
  9 19  1  0  0  0  0
 10 20  1  0  0  0  0
M  END
>  <InChIKey>
QCDWFXQBSFUVSP-UHFFFAOYSA-N

>  <UN GHS>
2A

>  <CASRN>
122-99-6

> <Outcome>
1

>  <Index>
629

>  <StandardizerResult>
Dearomatize (ID: Dearomatize)
Clear Stereo (ID: ClearStereo)
Wedge Clean (ID: WedgeClean)
Mesomerize (ID: Mesomerize)
Tautomerize (ID: Tautomerize)
Aromatize (ID: Aromatize)
Add Explicit Hydrogens (ID: AddExplicitH)
Neutralize (ID: Neutralize)
Clean 2D (ID: Clean2D)

> <knn Distance>


> <CpId>
629

$$$$
632
  Mrv1532301301811342D          

 18 17  0  0  0  0            999 V2000
    2.7313    0.6382    0.0000 O   0  0  0  0  0  0  0  0  0  0  0  0
    2.0168    0.2257    0.0000 C   0  0  0  0  0  0  0  0  0  0  0  0
    1.3023    0.6382    0.0000 C   0  0  0  0  0  0  0  0  0  0  0  0
    0.5879    1.0507    0.0000 C   0  0  0  0  0  0  0  0  0  0  0  0
   -0.1266    0.6382    0.0000 Br  0  0  0  0  0  0  0  0  0  0  0  0
    1.7148    1.3526    0.0000 C   0  0  0  0  0  0  0  0  0  0  0  0
    1.3023    2.0671    0.0000 Br  0  0  0  0  0  0  0  0  0  0  0  0
    0.8898   -0.0763    0.0000 C   0  0  0  0  0  0  0  0  0  0  0  0
    0.0648   -0.0763    0.0000 Br  0  0  0  0  0  0  0  0  0  0  0  0
    3.4457    0.2257    0.0000 H   0  0  0  0  0  0  0  0  0  0  0  0
    1.6465   -0.5116    0.0000 H   0  0  0  0  0  0  0  0  0  0  0  0
    2.3871   -0.5116    0.0000 H   0  0  0  0  0  0  0  0  0  0  0  0
    0.9581    1.7879    0.0000 H   0  0  0  0  0  0  0  0  0  0  0  0
    0.2176    1.7879    0.0000 H   0  0  0  0  0  0  0  0  0  0  0  0
    2.4521    0.9824    0.0000 H   0  0  0  0  0  0  0  0  0  0  0  0
    2.4521    1.7229    0.0000 H   0  0  0  0  0  0  0  0  0  0  0  0
    0.6769   -0.8734    0.0000 H   0  0  0  0  0  0  0  0  0  0  0  0
    0.4773    0.6382    0.0000 H   0  0  0  0  0  0  0  0  0  0  0  0
  1  2  1  0  0  0  0
  2  3  1  0  0  0  0
  3  4  1  0  0  0  0
  4  5  1  0  0  0  0
  3  6  1  0  0  0  0
  6  7  1  0  0  0  0
  3  8  1  0  0  0  0
  8  9  1  0  0  0  0
  1 10  1  0  0  0  0
  2 11  1  0  0  0  0
  2 12  1  0  0  0  0
  4 13  1  0  0  0  0
  4 14  1  0  0  0  0
  6 15  1  0  0  0  0
  6 16  1  0  0  0  0
  8 17  1  0  0  0  0
  8 18  1  0  0  0  0
M  END
>  <InChIKey>
QEJPOEGPNIVDMK-UHFFFAOYSA-N

>  <UN GHS>
1

>  <CASRN>
36483-57-5

> <Outcome>
1

>  <Index>
632

>  <StandardizerResult>
Clear Stereo (ID: ClearStereo)
Wedge Clean (ID: WedgeClean)
Mesomerize (ID: Mesomerize)
Tautomerize (ID: Tautomerize)
Add Explicit Hydrogens (ID: AddExplicitH)
Neutralize (ID: Neutralize)
Clean 2D (ID: Clean2D)

> <knn Distance>


> <CpId>
632

$$$$
636
  Mrv1532301301811342D          

 50 49  0  0  0  0            999 V2000
   18.4962    4.8848    0.0000 O   0  0  0  0  0  0  0  0  0  0  0  0
   18.4962    5.7098    0.0000 C   0  0  0  0  0  0  0  0  0  0  0  0
   17.7817    6.1223    0.0000 C   0  0  0  0  0  0  0  0  0  0  0  0
   17.0672    5.7098    0.0000 O   0  0  0  0  0  0  0  0  0  0  0  0
   16.3528    6.1223    0.0000 C   0  0  0  0  0  0  0  0  0  0  0  0
   15.6383    5.7098    0.0000 C   0  0  0  0  0  0  0  0  0  0  0  0
   14.9238    6.1223    0.0000 C   0  0  0  0  0  0  0  0  0  0  0  0
   14.2094    5.7098    0.0000 C   0  0  0  0  0  0  0  0  0  0  0  0
   13.4949    6.1223    0.0000 O   0  0  0  0  0  0  0  0  0  0  0  0
   12.7804    5.7098    0.0000 C   0  0  0  0  0  0  0  0  0  0  0  0
   12.0660    6.1223    0.0000 C   0  0  0  0  0  0  0  0  0  0  0  0
   12.0660    6.9473    0.0000 O   0  0  0  0  0  0  0  0  0  0  0  0
   11.3515    5.7098    0.0000 C   0  0  0  0  0  0  0  0  0  0  0  0
   10.6370    6.1223    0.0000 O   0  0  0  0  0  0  0  0  0  0  0  0
    9.9225    5.7098    0.0000 C   0  0  0  0  0  0  0  0  0  0  0  0
    9.9225    4.8848    0.0000 O   0  0  0  0  0  0  0  0  0  0  0  0
    9.2081    6.1223    0.0000 C   0  0  0  0  0  0  0  0  0  0  0  0
    8.4936    5.7098    0.0000 C   0  0  0  0  0  0  0  0  0  0  0  0
   19.2107    6.1223    0.0000 C   0  0  0  0  0  0  0  0  0  0  0  0
   19.9251    5.7098    0.0000 O   0  0  0  0  0  0  0  0  0  0  0  0
   20.6396    6.1223    0.0000 C   0  0  0  0  0  0  0  0  0  0  0  0
   20.6396    6.9473    0.0000 O   0  0  0  0  0  0  0  0  0  0  0  0
   21.3541    5.7098    0.0000 C   0  0  0  0  0  0  0  0  0  0  0  0
   22.0685    6.1223    0.0000 C   0  0  0  0  0  0  0  0  0  0  0  0
   17.7817    4.4723    0.0000 H   0  0  0  0  0  0  0  0  0  0  0  0
   17.7817    5.2973    0.0000 H   0  0  0  0  0  0  0  0  0  0  0  0
   18.1520    6.8595    0.0000 H   0  0  0  0  0  0  0  0  0  0  0  0
   17.4115    6.8595    0.0000 H   0  0  0  0  0  0  0  0  0  0  0  0
   16.7230    6.8595    0.0000 H   0  0  0  0  0  0  0  0  0  0  0  0
   15.9825    6.8595    0.0000 H   0  0  0  0  0  0  0  0  0  0  0  0
   15.2680    4.9725    0.0000 H   0  0  0  0  0  0  0  0  0  0  0  0
   16.0086    4.9725    0.0000 H   0  0  0  0  0  0  0  0  0  0  0  0
   15.2941    6.8595    0.0000 H   0  0  0  0  0  0  0  0  0  0  0  0
   14.5536    6.8595    0.0000 H   0  0  0  0  0  0  0  0  0  0  0  0
   13.8391    4.9725    0.0000 H   0  0  0  0  0  0  0  0  0  0  0  0
   14.5796    4.9725    0.0000 H   0  0  0  0  0  0  0  0  0  0  0  0
   12.4102    4.9725    0.0000 H   0  0  0  0  0  0  0  0  0  0  0  0
   13.1507    4.9725    0.0000 H   0  0  0  0  0  0  0  0  0  0  0  0
   12.7804    6.5348    0.0000 H   0  0  0  0  0  0  0  0  0  0  0  0
   11.6535    7.6617    0.0000 H   0  0  0  0  0  0  0  0  0  0  0  0
   10.9812    4.9725    0.0000 H   0  0  0  0  0  0  0  0  0  0  0  0
   11.7217    4.9725    0.0000 H   0  0  0  0  0  0  0  0  0  0  0  0
    9.2081    6.9473    0.0000 H   0  0  0  0  0  0  0  0  0  0  0  0
    7.7791    6.1223    0.0000 H   0  0  0  0  0  0  0  0  0  0  0  0
    8.4936    4.8848    0.0000 H   0  0  0  0  0  0  0  0  0  0  0  0
   19.5809    6.8595    0.0000 H   0  0  0  0  0  0  0  0  0  0  0  0
   18.8404    6.8595    0.0000 H   0  0  0  0  0  0  0  0  0  0  0  0
   21.3541    4.8848    0.0000 H   0  0  0  0  0  0  0  0  0  0  0  0
   22.7830    5.7098    0.0000 H   0  0  0  0  0  0  0  0  0  0  0  0
   22.0685    6.9473    0.0000 H   0  0  0  0  0  0  0  0  0  0  0  0
  1  2  1  0  0  0  0
  2  3  1  0  0  0  0
  3  4  1  0  0  0  0
  4  5  1  0  0  0  0
  5  6  1  0  0  0  0
  6  7  1  0  0  0  0
  7  8  1  0  0  0  0
  8  9  1  0  0  0  0
  9 10  1  0  0  0  0
 10 11  1  0  0  0  0
 11 12  1  0  0  0  0
 11 13  1  0  0  0  0
 13 14  1  0  0  0  0
 14 15  1  0  0  0  0
 15 16  2  0  0  0  0
 15 17  1  0  0  0  0
 17 18  2  0  0  0  0
  2 19  1  0  0  0  0
 19 20  1  0  0  0  0
 20 21  1  0  0  0  0
 21 22  2  0  0  0  0
 21 23  1  0  0  0  0
 23 24  2  0  0  0  0
  1 25  1  0  0  0  0
  2 26  1  0  0  0  0
  3 27  1  0  0  0  0
  3 28  1  0  0  0  0
  5 29  1  0  0  0  0
  5 30  1  0  0  0  0
  6 31  1  0  0  0  0
  6 32  1  0  0  0  0
  7 33  1  0  0  0  0
  7 34  1  0  0  0  0
  8 35  1  0  0  0  0
  8 36  1  0  0  0  0
 10 37  1  0  0  0  0
 10 38  1  0  0  0  0
 11 39  1  0  0  0  0
 12 40  1  0  0  0  0
 13 41  1  0  0  0  0
 13 42  1  0  0  0  0
 17 43  1  0  0  0  0
 18 44  1  0  0  0  0
 18 45  1  0  0  0  0
 19 46  1  0  0  0  0
 19 47  1  0  0  0  0
 23 48  1  0  0  0  0
 24 49  1  0  0  0  0
 24 50  1  0  0  0  0
M  END
>  <InChIKey>
QIPOUSKNIMYTRA-UHFFFAOYSA-N

>  <UN GHS>
1

>  <CASRN>
52408-42-1

> <Outcome>
1

>  <Index>
636

>  <StandardizerResult>
Clear Stereo (ID: ClearStereo)
Wedge Clean (ID: WedgeClean)
Mesomerize (ID: Mesomerize)
Tautomerize (ID: Tautomerize)
Add Explicit Hydrogens (ID: AddExplicitH)
Neutralize (ID: Neutralize)
Clean 2D (ID: Clean2D)

> <knn Distance>


> <CpId>
636

$$$$
651
  Mrv1532301301811342D          

 22 22  0  0  0  0            999 V2000
    0.7360    2.0105    0.0000 C   0  0  0  0  0  0  0  0  0  0  0  0
    0.7360    1.1855    0.0000 C   0  0  0  0  0  0  0  0  0  0  0  0
    1.4505    0.7730    0.0000 C   0  0  0  0  0  0  0  0  0  0  0  0
    1.4505   -0.0520    0.0000 C   0  0  0  0  0  0  0  0  0  0  0  0
    0.7360   -0.4645    0.0000 C   0  0  0  0  0  0  0  0  0  0  0  0
    0.7360   -1.2895    0.0000 C   0  0  0  0  0  0  0  0  0  0  0  0
    0.0215   -0.0520    0.0000 C   0  0  0  0  0  0  0  0  0  0  0  0
   -0.6930   -0.4645    0.0000 O   0  0  0  0  0  0  0  0  0  0  0  0
    0.0215    0.7730    0.0000 C   0  0  0  0  0  0  0  0  0  0  0  0
   -0.6930    1.1855    0.0000 C   0  0  0  0  0  0  0  0  0  0  0  0
    1.5610    2.0105    0.0000 H   0  0  0  0  0  0  0  0  0  0  0  0
    0.7360    2.8355    0.0000 H   0  0  0  0  0  0  0  0  0  0  0  0
   -0.0890    2.0105    0.0000 H   0  0  0  0  0  0  0  0  0  0  0  0
    2.1649    1.1855    0.0000 H   0  0  0  0  0  0  0  0  0  0  0  0
    2.1649   -0.4645    0.0000 H   0  0  0  0  0  0  0  0  0  0  0  0
   -0.0890   -1.2895    0.0000 H   0  0  0  0  0  0  0  0  0  0  0  0
    0.7360   -2.1145    0.0000 H   0  0  0  0  0  0  0  0  0  0  0  0
    1.5610   -1.2895    0.0000 H   0  0  0  0  0  0  0  0  0  0  0  0
   -1.4074   -0.0520    0.0000 H   0  0  0  0  0  0  0  0  0  0  0  0
   -0.2805    1.8999    0.0000 H   0  0  0  0  0  0  0  0  0  0  0  0
   -1.4074    1.5980    0.0000 H   0  0  0  0  0  0  0  0  0  0  0  0
   -1.1055    0.4710    0.0000 H   0  0  0  0  0  0  0  0  0  0  0  0
  1  2  1  0  0  0  0
  2  3  4  0  0  0  0
  3  4  4  0  0  0  0
  4  5  4  0  0  0  0
  5  6  1  0  0  0  0
  5  7  4  0  0  0  0
  7  8  1  0  0  0  0
  7  9  4  0  0  0  0
  2  9  4  0  0  0  0
  9 10  1  0  0  0  0
  1 11  1  0  0  0  0
  1 12  1  0  0  0  0
  1 13  1  0  0  0  0
  3 14  1  0  0  0  0
  4 15  1  0  0  0  0
  6 16  1  0  0  0  0
  6 17  1  0  0  0  0
  6 18  1  0  0  0  0
  8 19  1  0  0  0  0
 10 20  1  0  0  0  0
 10 21  1  0  0  0  0
 10 22  1  0  0  0  0
M  END
>  <InChIKey>
QQOMQLYQAXGHSU-UHFFFAOYSA-N

>  <UN GHS>
1

>  <CASRN>
2416-94-6

> <Outcome>
1

>  <Index>
651

>  <StandardizerResult>
Dearomatize (ID: Dearomatize)
Clear Stereo (ID: ClearStereo)
Wedge Clean (ID: WedgeClean)
Mesomerize (ID: Mesomerize)
Tautomerize (ID: Tautomerize)
Aromatize (ID: Aromatize)
Add Explicit Hydrogens (ID: AddExplicitH)
Neutralize (ID: Neutralize)
Clean 2D (ID: Clean2D)

> <knn Distance>


> <CpId>
651

$$$$
654
  Mrv1532301301811342D          

 14 15  0  0  0  0            999 V2000
    3.3523    1.9354    0.0000 C   0  0  0  0  0  0  0  0  0  0  0  0
    3.3523    1.1104    0.0000 C   0  0  0  0  0  0  0  0  0  0  0  0
    2.6378    0.6979    0.0000 C   0  0  0  0  0  0  0  0  0  0  0  0
    1.9233    1.1104    0.0000 C   0  0  0  0  0  0  0  0  0  0  0  0
    1.1387    0.8555    0.0000 N   0  0  0  0  0  0  0  0  0  0  0  0
    0.6538    1.5229    0.0000 N   0  0  0  0  0  0  0  0  0  0  0  0
    1.1387    2.1903    0.0000 N   0  0  0  0  0  0  0  0  0  0  0  0
    1.9233    1.9354    0.0000 C   0  0  0  0  0  0  0  0  0  0  0  0
    2.6378    2.3479    0.0000 C   0  0  0  0  0  0  0  0  0  0  0  0
    4.0667    2.3479    0.0000 H   0  0  0  0  0  0  0  0  0  0  0  0
    4.0667    0.6979    0.0000 H   0  0  0  0  0  0  0  0  0  0  0  0
    2.6378   -0.1271    0.0000 H   0  0  0  0  0  0  0  0  0  0  0  0
    0.8838    0.0708    0.0000 H   0  0  0  0  0  0  0  0  0  0  0  0
    2.6378    3.1729    0.0000 H   0  0  0  0  0  0  0  0  0  0  0  0
  1  2  4  0  0  0  0
  2  3  4  0  0  0  0
  3  4  4  0  0  0  0
  4  5  4  0  0  0  0
  5  6  4  0  0  0  0
  6  7  4  0  0  0  0
  7  8  4  0  0  0  0
  4  8  4  0  0  0  0
  8  9  4  0  0  0  0
  1  9  4  0  0  0  0
  1 10  1  0  0  0  0
  2 11  1  0  0  0  0
  3 12  1  0  0  0  0
  5 13  1  0  0  0  0
  9 14  1  0  0  0  0
M  END
>  <InChIKey>
QRUDEWIWKLJBPS-UHFFFAOYSA-N

>  <UN GHS>
2A

>  <CASRN>
95-14-7

> <Outcome>
1

>  <Index>
654

>  <StandardizerResult>
Dearomatize (ID: Dearomatize)
Clear Stereo (ID: ClearStereo)
Wedge Clean (ID: WedgeClean)
Mesomerize (ID: Mesomerize)
Tautomerize (ID: Tautomerize)
Aromatize (ID: Aromatize)
Add Explicit Hydrogens (ID: AddExplicitH)
Neutralize (ID: Neutralize)
Clean 2D (ID: Clean2D)

> <knn Distance>


> <CpId>
654

$$$$
658
  Mrv1532301301811342D          

 32 32  0  0  0  0            999 V2000
   -2.1642    1.2707    0.0000 C   0  0  0  0  0  0  0  0  0  0  0  0
   -1.4497    1.6832    0.0000 C   0  0  0  0  0  0  0  0  0  0  0  0
   -0.7352    1.2707    0.0000 C   0  0  0  0  0  0  0  0  0  0  0  0
   -0.0208    1.6832    0.0000 O   0  0  0  0  0  0  0  0  0  0  0  0
    0.6937    1.2707    0.0000 C   0  0  0  0  0  0  0  0  0  0  0  0
    0.6937    0.4457    0.0000 O   0  0  0  0  0  0  0  0  0  0  0  0
    1.4082    1.6832    0.0000 C   0  0  0  0  0  0  0  0  0  0  0  0
    1.4082    2.5082    0.0000 C   0  0  0  0  0  0  0  0  0  0  0  0
    2.1227    2.9207    0.0000 C   0  0  0  0  0  0  0  0  0  0  0  0
    2.8371    2.5082    0.0000 C   0  0  0  0  0  0  0  0  0  0  0  0
    2.8371    1.6832    0.0000 C   0  0  0  0  0  0  0  0  0  0  0  0
    2.1227    1.2707    0.0000 C   0  0  0  0  0  0  0  0  0  0  0  0
    2.1227    0.4457    0.0000 C   0  0  0  0  0  0  0  0  0  0  0  0
    1.4082    0.0332    0.0000 O   0  0  0  0  0  0  0  0  0  0  0  0
    2.8371    0.0332    0.0000 O   0  0  0  0  0  0  0  0  0  0  0  0
    3.5516    0.4457    0.0000 C   0  0  0  0  0  0  0  0  0  0  0  0
    4.2661    0.0332    0.0000 C   0  0  0  0  0  0  0  0  0  0  0  0
    4.9805    0.4457    0.0000 C   0  0  0  0  0  0  0  0  0  0  0  0
   -2.8786    1.6832    0.0000 H   0  0  0  0  0  0  0  0  0  0  0  0
   -2.1642    0.4457    0.0000 H   0  0  0  0  0  0  0  0  0  0  0  0
   -1.4497    2.5082    0.0000 H   0  0  0  0  0  0  0  0  0  0  0  0
   -1.1055    0.5334    0.0000 H   0  0  0  0  0  0  0  0  0  0  0  0
   -0.3650    0.5334    0.0000 H   0  0  0  0  0  0  0  0  0  0  0  0
    0.6937    2.9207    0.0000 H   0  0  0  0  0  0  0  0  0  0  0  0
    2.1227    3.7457    0.0000 H   0  0  0  0  0  0  0  0  0  0  0  0
    3.5516    2.9207    0.0000 H   0  0  0  0  0  0  0  0  0  0  0  0
    3.5516    1.2707    0.0000 H   0  0  0  0  0  0  0  0  0  0  0  0
    2.8371    0.8582    0.0000 H   0  0  0  0  0  0  0  0  0  0  0  0
    4.2661    0.8582    0.0000 H   0  0  0  0  0  0  0  0  0  0  0  0
    4.2661   -0.7918    0.0000 H   0  0  0  0  0  0  0  0  0  0  0  0
    5.6698   -0.0077    0.0000 H   0  0  0  0  0  0  0  0  0  0  0  0
    5.6698    0.8990    0.0000 H   0  0  0  0  0  0  0  0  0  0  0  0
  1  2  2  0  0  0  0
  2  3  1  0  0  0  0
  3  4  1  0  0  0  0
  4  5  1  0  0  0  0
  5  6  2  0  0  0  0
  5  7  1  0  0  0  0
  7  8  4  0  0  0  0
  8  9  4  0  0  0  0
  9 10  4  0  0  0  0
 10 11  4  0  0  0  0
 11 12  4  0  0  0  0
  7 12  4  0  0  0  0
 12 13  1  0  0  0  0
 13 14  2  0  0  0  0
 13 15  1  0  0  0  0
 15 16  1  0  0  0  0
 16 17  1  0  0  0  0
 17 18  2  0  0  0  0
  1 19  1  0  0  0  0
  1 20  1  0  0  0  0
  2 21  1  0  0  0  0
  3 22  1  0  0  0  0
  3 23  1  0  0  0  0
  8 24  1  0  0  0  0
  9 25  1  0  0  0  0
 10 26  1  0  0  0  0
 11 27  1  0  0  0  0
 16 28  1  0  0  0  0
 16 29  1  0  0  0  0
 17 30  1  0  0  0  0
 18 31  1  0  0  0  0
 18 32  1  0  0  0  0
M  END
>  <InChIKey>
QUDWYFHPNIMBFC-UHFFFAOYSA-N

>  <UN GHS>
2B

>  <CASRN>
131-17-9

> <Outcome>
1

>  <Index>
658

>  <StandardizerResult>
Dearomatize (ID: Dearomatize)
Clear Stereo (ID: ClearStereo)
Wedge Clean (ID: WedgeClean)
Mesomerize (ID: Mesomerize)
Tautomerize (ID: Tautomerize)
Aromatize (ID: Aromatize)
Add Explicit Hydrogens (ID: AddExplicitH)
Neutralize (ID: Neutralize)
Clean 2D (ID: Clean2D)

> <knn Distance>


> <CpId>
658

$$$$
661
  Mrv1532301301811342D          

 54 53  0  0  0  0            999 V2000
   -0.5771   -4.1186    0.0000 C   0  0  0  0  0  0  0  0  0  0  0  0
   -1.2916   -3.7061    0.0000 C   0  0  0  0  0  0  0  0  0  0  0  0
   -2.0060   -4.1186    0.0000 C   0  0  0  0  0  0  0  0  0  0  0  0
   -2.0060   -4.9436    0.0000 C   0  0  0  0  0  0  0  0  0  0  0  0
   -2.0060   -5.7686    0.0000 C   0  0  0  0  0  0  0  0  0  0  0  0
   -1.1810   -4.9436    0.0000 C   0  0  0  0  0  0  0  0  0  0  0  0
   -2.8310   -4.9436    0.0000 C   0  0  0  0  0  0  0  0  0  0  0  0
   -1.2916   -2.8811    0.0000 C   0  0  0  0  0  0  0  0  0  0  0  0
   -0.5771   -2.4686    0.0000 P   0  0  0  0  0  0  0  0  0  0  0  0
   -0.1646   -3.1830    0.0000 O   0  0  0  0  0  0  0  0  0  0  0  0
   -0.9896   -1.7541    0.0000 O   0  0  0  0  0  0  0  0  0  0  0  0
    0.1374   -2.0561    0.0000 C   0  0  0  0  0  0  0  0  0  0  0  0
    0.1374   -1.2311    0.0000 C   0  0  0  0  0  0  0  0  0  0  0  0
   -0.5771   -0.8186    0.0000 C   0  0  0  0  0  0  0  0  0  0  0  0
    0.8518   -0.8186    0.0000 C   0  0  0  0  0  0  0  0  0  0  0  0
    0.8518    0.0064    0.0000 C   0  0  0  0  0  0  0  0  0  0  0  0
    0.8518    0.8314    0.0000 C   0  0  0  0  0  0  0  0  0  0  0  0
    1.6768    0.0064    0.0000 C   0  0  0  0  0  0  0  0  0  0  0  0
    0.0268    0.0064    0.0000 C   0  0  0  0  0  0  0  0  0  0  0  0
   -0.9896   -4.8330    0.0000 H   0  0  0  0  0  0  0  0  0  0  0  0
    0.1374   -4.5311    0.0000 H   0  0  0  0  0  0  0  0  0  0  0  0
   -0.1646   -3.4041    0.0000 H   0  0  0  0  0  0  0  0  0  0  0  0
   -1.2916   -4.5311    0.0000 H   0  0  0  0  0  0  0  0  0  0  0  0
   -2.4594   -3.4293    0.0000 H   0  0  0  0  0  0  0  0  0  0  0  0
   -2.8296   -4.0706    0.0000 H   0  0  0  0  0  0  0  0  0  0  0  0
   -2.8310   -5.7686    0.0000 H   0  0  0  0  0  0  0  0  0  0  0  0
   -2.0060   -6.5936    0.0000 H   0  0  0  0  0  0  0  0  0  0  0  0
   -1.1810   -5.7686    0.0000 H   0  0  0  0  0  0  0  0  0  0  0  0
   -0.6507   -5.5756    0.0000 H   0  0  0  0  0  0  0  0  0  0  0  0
   -0.3686   -5.0868    0.0000 H   0  0  0  0  0  0  0  0  0  0  0  0
   -1.7644   -5.5269    0.0000 H   0  0  0  0  0  0  0  0  0  0  0  0
   -3.4137   -4.3595    0.0000 H   0  0  0  0  0  0  0  0  0  0  0  0
   -3.6560   -4.9429    0.0000 H   0  0  0  0  0  0  0  0  0  0  0  0
   -3.4146   -5.5267    0.0000 H   0  0  0  0  0  0  0  0  0  0  0  0
   -1.7449   -2.1918    0.0000 H   0  0  0  0  0  0  0  0  0  0  0  0
   -2.1152   -2.8331    0.0000 H   0  0  0  0  0  0  0  0  0  0  0  0
    0.6323   -2.9695    0.0000 H   0  0  0  0  0  0  0  0  0  0  0  0
    0.5907   -2.7453    0.0000 H   0  0  0  0  0  0  0  0  0  0  0  0
    0.9610   -2.1040    0.0000 H   0  0  0  0  0  0  0  0  0  0  0  0
   -0.5771   -1.6436    0.0000 H   0  0  0  0  0  0  0  0  0  0  0  0
    0.0063   -0.2352    0.0000 H   0  0  0  0  0  0  0  0  0  0  0  0
   -0.9896   -0.1041    0.0000 H   0  0  0  0  0  0  0  0  0  0  0  0
   -1.3740   -1.0321    0.0000 H   0  0  0  0  0  0  0  0  0  0  0  0
    1.3052   -1.5078    0.0000 H   0  0  0  0  0  0  0  0  0  0  0  0
    1.6755   -0.8665    0.0000 H   0  0  0  0  0  0  0  0  0  0  0  0
    1.6768    0.8314    0.0000 H   0  0  0  0  0  0  0  0  0  0  0  0
    0.8518    1.6564    0.0000 H   0  0  0  0  0  0  0  0  0  0  0  0
    0.0268    0.8314    0.0000 H   0  0  0  0  0  0  0  0  0  0  0  0
    2.2595   -0.5776    0.0000 H   0  0  0  0  0  0  0  0  0  0  0  0
    2.5018    0.0058    0.0000 H   0  0  0  0  0  0  0  0  0  0  0  0
    2.2604    0.5896    0.0000 H   0  0  0  0  0  0  0  0  0  0  0  0
   -0.5440    0.6021    0.0000 H   0  0  0  0  0  0  0  0  0  0  0  0
   -0.7974    0.0415    0.0000 H   0  0  0  0  0  0  0  0  0  0  0  0
   -0.5925   -0.5386    0.0000 H   0  0  0  0  0  0  0  0  0  0  0  0
  1  2  1  0  0  0  0
  2  3  1  0  0  0  0
  3  4  1  0  0  0  0
  4  5  1  0  0  0  0
  4  6  1  0  0  0  0
  4  7  1  0  0  0  0
  2  8  1  0  0  0  0
  8  9  1  0  0  0  0
  9 10  1  0  0  0  0
  9 11  2  0  0  0  0
  9 12  1  0  0  0  0
 12 13  1  0  0  0  0
 13 14  1  0  0  0  0
 13 15  1  0  0  0  0
 15 16  1  0  0  0  0
 16 17  1  0  0  0  0
 16 18  1  0  0  0  0
 16 19  1  0  0  0  0
  1 20  1  0  0  0  0
  1 21  1  0  0  0  0
  1 22  1  0  0  0  0
  2 23  1  0  0  0  0
  3 24  1  0  0  0  0
  3 25  1  0  0  0  0
  5 26  1  0  0  0  0
  5 27  1  0  0  0  0
  5 28  1  0  0  0  0
  6 29  1  0  0  0  0
  6 30  1  0  0  0  0
  6 31  1  0  0  0  0
  7 32  1  0  0  0  0
  7 33  1  0  0  0  0
  7 34  1  0  0  0  0
  8 35  1  0  0  0  0
  8 36  1  0  0  0  0
 10 37  1  0  0  0  0
 12 38  1  0  0  0  0
 12 39  1  0  0  0  0
 13 40  1  0  0  0  0
 14 41  1  0  0  0  0
 14 42  1  0  0  0  0
 14 43  1  0  0  0  0
 15 44  1  0  0  0  0
 15 45  1  0  0  0  0
 17 46  1  0  0  0  0
 17 47  1  0  0  0  0
 17 48  1  0  0  0  0
 18 49  1  0  0  0  0
 18 50  1  0  0  0  0
 18 51  1  0  0  0  0
 19 52  1  0  0  0  0
 19 53  1  0  0  0  0
 19 54  1  0  0  0  0
M  END
>  <InChIKey>
QUXFOKCUIZCKGS-UHFFFAOYSA-N

>  <UN GHS>
2A

>  <CASRN>
83411-71-6

> <Outcome>
1

>  <Index>
661

>  <StandardizerResult>
Clear Stereo (ID: ClearStereo)
Wedge Clean (ID: WedgeClean)
Mesomerize (ID: Mesomerize)
Tautomerize (ID: Tautomerize)
Add Explicit Hydrogens (ID: AddExplicitH)
Neutralize (ID: Neutralize)
Clean 2D (ID: Clean2D)

> <knn Distance>


> <CpId>
661

$$$$
663
  Mrv1532301301811342D          

 18 18  0  0  0  0            999 V2000
    0.0835    2.5286    0.0000 O   0  0  0  0  0  0  0  0  0  0  0  0
    0.7980    2.1161    0.0000 C   0  0  0  0  0  0  0  0  0  0  0  0
    0.7980    1.2911    0.0000 C   0  0  0  0  0  0  0  0  0  0  0  0
    1.5124    0.8786    0.0000 C   0  0  0  0  0  0  0  0  0  0  0  0
    1.5124    0.0536    0.0000 C   0  0  0  0  0  0  0  0  0  0  0  0
    0.7980   -0.3589    0.0000 C   0  0  0  0  0  0  0  0  0  0  0  0
    0.0835    0.0536    0.0000 S   0  0  0  0  0  0  0  0  0  0  0  0
    0.0835    0.8786    0.0000 C   0  0  0  0  0  0  0  0  0  0  0  0
    1.5124    2.5286    0.0000 H   0  0  0  0  0  0  0  0  0  0  0  0
    0.0835    1.7036    0.0000 H   0  0  0  0  0  0  0  0  0  0  0  0
    2.3361    0.9266    0.0000 H   0  0  0  0  0  0  0  0  0  0  0  0
    1.9658    1.5679    0.0000 H   0  0  0  0  0  0  0  0  0  0  0  0
    1.9658   -0.6356    0.0000 H   0  0  0  0  0  0  0  0  0  0  0  0
    2.3361    0.0057    0.0000 H   0  0  0  0  0  0  0  0  0  0  0  0
    0.4277   -1.0961    0.0000 H   0  0  0  0  0  0  0  0  0  0  0  0
    1.1682   -1.0961    0.0000 H   0  0  0  0  0  0  0  0  0  0  0  0
   -0.6917    1.1608    0.0000 H   0  0  0  0  0  0  0  0  0  0  0  0
   -0.6917    0.5965    0.0000 H   0  0  0  0  0  0  0  0  0  0  0  0
  1  2  2  0  0  0  0
  2  3  1  0  0  0  0
  3  4  1  0  0  0  0
  4  5  1  0  0  0  0
  5  6  1  0  0  0  0
  6  7  1  0  0  0  0
  7  8  1  0  0  0  0
  3  8  1  0  0  0  0
  2  9  1  0  0  0  0
  3 10  1  0  0  0  0
  4 11  1  0  0  0  0
  4 12  1  0  0  0  0
  5 13  1  0  0  0  0
  5 14  1  0  0  0  0
  6 15  1  0  0  0  0
  6 16  1  0  0  0  0
  8 17  1  0  0  0  0
  8 18  1  0  0  0  0
M  END
>  <InChIKey>
QWFSMJVKLCAOEB-UHFFFAOYSA-N

>  <UN GHS>
2A

>  <CASRN>
61571-06-0

> <Outcome>
1

>  <Index>
663

>  <StandardizerResult>
Clear Stereo (ID: ClearStereo)
Wedge Clean (ID: WedgeClean)
Mesomerize (ID: Mesomerize)
Tautomerize (ID: Tautomerize)
Add Explicit Hydrogens (ID: AddExplicitH)
Neutralize (ID: Neutralize)
Clean 2D (ID: Clean2D)

> <knn Distance>


> <CpId>
663

$$$$
664
  Mrv1532301301811342D          

 27 26  0  0  0  0            999 V2000
    4.2355    3.2711    0.0000 C   0  0  0  0  0  0  0  0  0  0  0  0
    4.9500    2.8586    0.0000 O   0  0  0  0  0  0  0  0  0  0  0  0
    5.6645    3.2711    0.0000 C   0  0  0  0  0  0  0  0  0  0  0  0
    6.3789    2.8586    0.0000 C   0  0  0  0  0  0  0  0  0  0  0  0
    7.0934    3.2711    0.0000 O   0  0  0  0  0  0  0  0  0  0  0  0
    7.8079    2.8586    0.0000 C   0  0  0  0  0  0  0  0  0  0  0  0
    8.5223    3.2711    0.0000 O   0  0  0  0  0  0  0  0  0  0  0  0
    9.2368    2.8586    0.0000 C   0  0  0  0  0  0  0  0  0  0  0  0
    9.9513    3.2711    0.0000 C   0  0  0  0  0  0  0  0  0  0  0  0
   10.6658    2.8586    0.0000 O   0  0  0  0  0  0  0  0  0  0  0  0
   11.3802    3.2711    0.0000 C   0  0  0  0  0  0  0  0  0  0  0  0
    4.6480    3.9855    0.0000 H   0  0  0  0  0  0  0  0  0  0  0  0
    3.5210    3.6836    0.0000 H   0  0  0  0  0  0  0  0  0  0  0  0
    3.8230    2.5566    0.0000 H   0  0  0  0  0  0  0  0  0  0  0  0
    6.0347    4.0083    0.0000 H   0  0  0  0  0  0  0  0  0  0  0  0
    5.2942    4.0083    0.0000 H   0  0  0  0  0  0  0  0  0  0  0  0
    6.0087    2.1213    0.0000 H   0  0  0  0  0  0  0  0  0  0  0  0
    6.7492    2.1213    0.0000 H   0  0  0  0  0  0  0  0  0  0  0  0
    7.4376    2.1213    0.0000 H   0  0  0  0  0  0  0  0  0  0  0  0
    8.1781    2.1213    0.0000 H   0  0  0  0  0  0  0  0  0  0  0  0
    8.8666    2.1213    0.0000 H   0  0  0  0  0  0  0  0  0  0  0  0
    9.6071    2.1213    0.0000 H   0  0  0  0  0  0  0  0  0  0  0  0
   10.3215    4.0083    0.0000 H   0  0  0  0  0  0  0  0  0  0  0  0
    9.5810    4.0083    0.0000 H   0  0  0  0  0  0  0  0  0  0  0  0
   11.7927    2.5566    0.0000 H   0  0  0  0  0  0  0  0  0  0  0  0
   12.0947    3.6836    0.0000 H   0  0  0  0  0  0  0  0  0  0  0  0
   10.9677    3.9855    0.0000 H   0  0  0  0  0  0  0  0  0  0  0  0
  1  2  1  0  0  0  0
  2  3  1  0  0  0  0
  3  4  1  0  0  0  0
  4  5  1  0  0  0  0
  5  6  1  0  0  0  0
  6  7  1  0  0  0  0
  7  8  1  0  0  0  0
  8  9  1  0  0  0  0
  9 10  1  0  0  0  0
 10 11  1  0  0  0  0
  1 12  1  0  0  0  0
  1 13  1  0  0  0  0
  1 14  1  0  0  0  0
  3 15  1  0  0  0  0
  3 16  1  0  0  0  0
  4 17  1  0  0  0  0
  4 18  1  0  0  0  0
  6 19  1  0  0  0  0
  6 20  1  0  0  0  0
  8 21  1  0  0  0  0
  8 22  1  0  0  0  0
  9 23  1  0  0  0  0
  9 24  1  0  0  0  0
 11 25  1  0  0  0  0
 11 26  1  0  0  0  0
 11 27  1  0  0  0  0
M  END
>  <InChIKey>
QWRBKBNCFWPVJX-UHFFFAOYSA-N

>  <UN GHS>
2B

>  <CASRN>
4431-83-8

> <Outcome>
1

>  <Index>
664

>  <StandardizerResult>
Clear Stereo (ID: ClearStereo)
Wedge Clean (ID: WedgeClean)
Mesomerize (ID: Mesomerize)
Tautomerize (ID: Tautomerize)
Add Explicit Hydrogens (ID: AddExplicitH)
Neutralize (ID: Neutralize)
Clean 2D (ID: Clean2D)

> <knn Distance>


> <CpId>
664

$$$$
665
  Mrv1532301301811342D          

 21 21  0  0  0  0            999 V2000
    0.1842    1.8703    0.0000 O   0  0  0  0  0  0  0  0  0  0  0  0
    0.7145    1.2383    0.0000 C   0  0  0  0  0  0  0  0  0  0  0  0
    1.4289    0.8258    0.0000 C   0  0  0  0  0  0  0  0  0  0  0  0
    1.4289    0.0008    0.0000 C   0  0  0  0  0  0  0  0  0  0  0  0
    0.7145   -0.4117    0.0000 C   0  0  0  0  0  0  0  0  0  0  0  0
    0.0000    0.0008    0.0000 C   0  0  0  0  0  0  0  0  0  0  0  0
    0.0000    0.8258    0.0000 C   0  0  0  0  0  0  0  0  0  0  0  0
    1.2448    1.8703    0.0000 C   0  0  0  0  0  0  0  0  0  0  0  0
    1.7751    2.5023    0.0000 C   0  0  0  0  0  0  0  0  0  0  0  0
    0.4663    2.6456    0.0000 H   0  0  0  0  0  0  0  0  0  0  0  0
    2.2526    0.8738    0.0000 H   0  0  0  0  0  0  0  0  0  0  0  0
    1.8823    1.5151    0.0000 H   0  0  0  0  0  0  0  0  0  0  0  0
    1.8823   -0.6884    0.0000 H   0  0  0  0  0  0  0  0  0  0  0  0
    2.2526   -0.0471    0.0000 H   0  0  0  0  0  0  0  0  0  0  0  0
    0.3442   -1.1489    0.0000 H   0  0  0  0  0  0  0  0  0  0  0  0
    1.0847   -1.1489    0.0000 H   0  0  0  0  0  0  0  0  0  0  0  0
   -0.8236   -0.0471    0.0000 H   0  0  0  0  0  0  0  0  0  0  0  0
   -0.4533   -0.6884    0.0000 H   0  0  0  0  0  0  0  0  0  0  0  0
   -0.4533    1.5151    0.0000 H   0  0  0  0  0  0  0  0  0  0  0  0
   -0.8236    0.8738    0.0000 H   0  0  0  0  0  0  0  0  0  0  0  0
    2.3054    3.1343    0.0000 H   0  0  0  0  0  0  0  0  0  0  0  0
  1  2  1  0  0  0  0
  2  3  1  0  0  0  0
  3  4  1  0  0  0  0
  4  5  1  0  0  0  0
  5  6  1  0  0  0  0
  6  7  1  0  0  0  0
  2  7  1  0  0  0  0
  2  8  1  0  0  0  0
  8  9  3  0  0  0  0
  1 10  1  0  0  0  0
  3 11  1  0  0  0  0
  3 12  1  0  0  0  0
  4 13  1  0  0  0  0
  4 14  1  0  0  0  0
  5 15  1  0  0  0  0
  5 16  1  0  0  0  0
  6 17  1  0  0  0  0
  6 18  1  0  0  0  0
  7 19  1  0  0  0  0
  7 20  1  0  0  0  0
  9 21  1  0  0  0  0
M  END
>  <InChIKey>
QYLFHLNFIHBCPR-UHFFFAOYSA-N

>  <UN GHS>
2A

>  <CASRN>
78-27-3

> <Outcome>
1

>  <Index>
665

>  <StandardizerResult>
Clear Stereo (ID: ClearStereo)
Wedge Clean (ID: WedgeClean)
Mesomerize (ID: Mesomerize)
Tautomerize (ID: Tautomerize)
Add Explicit Hydrogens (ID: AddExplicitH)
Neutralize (ID: Neutralize)
Clean 2D (ID: Clean2D)

> <knn Distance>


> <CpId>
665

$$$$
666
  Mrv1532301301811342D          

112112  0  0  0  0            999 V2000
   -2.5364  -10.8235    0.0000 C   0  0  0  0  0  0  0  0  0  0  0  0
   -1.8219  -10.4110    0.0000 C   0  0  0  0  0  0  0  0  0  0  0  0
   -1.1075  -10.8235    0.0000 C   0  0  0  0  0  0  0  0  0  0  0  0
   -0.3930  -10.4110    0.0000 C   0  0  0  0  0  0  0  0  0  0  0  0
    0.3215  -10.8235    0.0000 C   0  0  0  0  0  0  0  0  0  0  0  0
    1.0359  -10.4110    0.0000 C   0  0  0  0  0  0  0  0  0  0  0  0
    1.7504  -10.8235    0.0000 C   0  0  0  0  0  0  0  0  0  0  0  0
    2.4649  -10.4110    0.0000 C   0  0  0  0  0  0  0  0  0  0  0  0
    3.1794  -10.8235    0.0000 C   0  0  0  0  0  0  0  0  0  0  0  0
    3.8938  -10.4110    0.0000 C   0  0  0  0  0  0  0  0  0  0  0  0
    4.6083  -10.8235    0.0000 C   0  0  0  0  0  0  0  0  0  0  0  0
    5.3228  -10.4110    0.0000 C   0  0  0  0  0  0  0  0  0  0  0  0
    6.0372  -10.8235    0.0000 C   0  0  0  0  0  0  0  0  0  0  0  0
    6.7517  -10.4110    0.0000 C   0  0  0  0  0  0  0  0  0  0  0  0
    7.4662  -10.8235    0.0000 C   0  0  0  0  0  0  0  0  0  0  0  0
    8.1807  -10.4110    0.0000 C   0  0  0  0  0  0  0  0  0  0  0  0
    8.1807   -9.5860    0.0000 O   0  0  0  0  0  0  0  0  0  0  0  0
    8.8951  -10.8235    0.0000 O   0  0  0  0  0  0  0  0  0  0  0  0
    9.6096  -10.4110    0.0000 C   0  0  0  0  0  0  0  0  0  0  0  0
    9.6958   -9.5905    0.0000 C   0  0  0  0  0  0  0  0  0  0  0  0
   10.5028   -9.4190    0.0000 C   0  0  0  0  0  0  0  0  0  0  0  0
   10.9153  -10.1335    0.0000 N   0  0  0  0  0  0  0  0  0  0  0  0
   10.3633  -10.7466    0.0000 C   0  0  0  0  0  0  0  0  0  0  0  0
   11.7358  -10.2197    0.0000 C   0  0  0  0  0  0  0  0  0  0  0  0
   12.0713  -10.9734    0.0000 O   0  0  0  0  0  0  0  0  0  0  0  0
   12.2207   -9.5523    0.0000 C   0  0  0  0  0  0  0  0  0  0  0  0
   13.0412   -9.6385    0.0000 C   0  0  0  0  0  0  0  0  0  0  0  0
   13.5261   -8.9711    0.0000 C   0  0  0  0  0  0  0  0  0  0  0  0
   14.3466   -9.0573    0.0000 C   0  0  0  0  0  0  0  0  0  0  0  0
   14.8315   -8.3899    0.0000 C   0  0  0  0  0  0  0  0  0  0  0  0
   15.6520   -8.4761    0.0000 C   0  0  0  0  0  0  0  0  0  0  0  0
   16.1369   -7.8087    0.0000 C   0  0  0  0  0  0  0  0  0  0  0  0
   16.9574   -7.8949    0.0000 C   0  0  0  0  0  0  0  0  0  0  0  0
   17.4423   -7.2275    0.0000 C   0  0  0  0  0  0  0  0  0  0  0  0
   18.2628   -7.3137    0.0000 C   0  0  0  0  0  0  0  0  0  0  0  0
   18.7477   -6.6463    0.0000 C   0  0  0  0  0  0  0  0  0  0  0  0
   19.5682   -6.7325    0.0000 C   0  0  0  0  0  0  0  0  0  0  0  0
   20.0531   -6.0651    0.0000 C   0  0  0  0  0  0  0  0  0  0  0  0
   20.8736   -6.1513    0.0000 C   0  0  0  0  0  0  0  0  0  0  0  0
   21.3585   -5.4839    0.0000 C   0  0  0  0  0  0  0  0  0  0  0  0
   10.8384   -8.6653    0.0000 C   0  0  0  0  0  0  0  0  0  0  0  0
   11.6588   -8.5791    0.0000 O   0  0  0  0  0  0  0  0  0  0  0  0
   10.3534   -7.9979    0.0000 O   0  0  0  0  0  0  0  0  0  0  0  0
   -2.9489  -10.1091    0.0000 H   0  0  0  0  0  0  0  0  0  0  0  0
   -3.2509  -11.2360    0.0000 H   0  0  0  0  0  0  0  0  0  0  0  0
   -2.1239  -11.5380    0.0000 H   0  0  0  0  0  0  0  0  0  0  0  0
   -1.4517   -9.6738    0.0000 H   0  0  0  0  0  0  0  0  0  0  0  0
   -2.1922   -9.6738    0.0000 H   0  0  0  0  0  0  0  0  0  0  0  0
   -1.4777  -11.5608    0.0000 H   0  0  0  0  0  0  0  0  0  0  0  0
   -0.7372  -11.5608    0.0000 H   0  0  0  0  0  0  0  0  0  0  0  0
   -0.0227   -9.6738    0.0000 H   0  0  0  0  0  0  0  0  0  0  0  0
   -0.7633   -9.6738    0.0000 H   0  0  0  0  0  0  0  0  0  0  0  0
   -0.0488  -11.5608    0.0000 H   0  0  0  0  0  0  0  0  0  0  0  0
    0.6917  -11.5608    0.0000 H   0  0  0  0  0  0  0  0  0  0  0  0
    1.4062   -9.6738    0.0000 H   0  0  0  0  0  0  0  0  0  0  0  0
    0.6657   -9.6738    0.0000 H   0  0  0  0  0  0  0  0  0  0  0  0
    1.3802  -11.5608    0.0000 H   0  0  0  0  0  0  0  0  0  0  0  0
    2.1207  -11.5608    0.0000 H   0  0  0  0  0  0  0  0  0  0  0  0
    2.8351   -9.6738    0.0000 H   0  0  0  0  0  0  0  0  0  0  0  0
    2.0946   -9.6738    0.0000 H   0  0  0  0  0  0  0  0  0  0  0  0
    2.8091  -11.5608    0.0000 H   0  0  0  0  0  0  0  0  0  0  0  0
    3.5496  -11.5608    0.0000 H   0  0  0  0  0  0  0  0  0  0  0  0
    4.2641   -9.6738    0.0000 H   0  0  0  0  0  0  0  0  0  0  0  0
    3.5236   -9.6738    0.0000 H   0  0  0  0  0  0  0  0  0  0  0  0
    4.2380  -11.5608    0.0000 H   0  0  0  0  0  0  0  0  0  0  0  0
    4.9786  -11.5608    0.0000 H   0  0  0  0  0  0  0  0  0  0  0  0
    5.6930   -9.6738    0.0000 H   0  0  0  0  0  0  0  0  0  0  0  0
    4.9525   -9.6738    0.0000 H   0  0  0  0  0  0  0  0  0  0  0  0
    5.6670  -11.5608    0.0000 H   0  0  0  0  0  0  0  0  0  0  0  0
    6.4075  -11.5608    0.0000 H   0  0  0  0  0  0  0  0  0  0  0  0
    7.1220   -9.6738    0.0000 H   0  0  0  0  0  0  0  0  0  0  0  0
    6.3815   -9.6738    0.0000 H   0  0  0  0  0  0  0  0  0  0  0  0
    7.0959  -11.5608    0.0000 H   0  0  0  0  0  0  0  0  0  0  0  0
    7.8364  -11.5608    0.0000 H   0  0  0  0  0  0  0  0  0  0  0  0
    9.6528  -11.2349    0.0000 H   0  0  0  0  0  0  0  0  0  0  0  0
    9.4137   -8.8153    0.0000 H   0  0  0  0  0  0  0  0  0  0  0  0
    8.8953   -9.3910    0.0000 H   0  0  0  0  0  0  0  0  0  0  0  0
   11.3267   -9.3758    0.0000 H   0  0  0  0  0  0  0  0  0  0  0  0
   10.6421  -11.5231    0.0000 H   0  0  0  0  0  0  0  0  0  0  0  0
   11.0967  -11.1243    0.0000 H   0  0  0  0  0  0  0  0  0  0  0  0
   12.7255   -8.8997    0.0000 H   0  0  0  0  0  0  0  0  0  0  0  0
   11.9310   -8.7798    0.0000 H   0  0  0  0  0  0  0  0  0  0  0  0
   13.0028  -10.4626    0.0000 H   0  0  0  0  0  0  0  0  0  0  0  0
   13.6793  -10.1614    0.0000 H   0  0  0  0  0  0  0  0  0  0  0  0
   13.8832   -8.2274    0.0000 H   0  0  0  0  0  0  0  0  0  0  0  0
   13.3188   -8.1726    0.0000 H   0  0  0  0  0  0  0  0  0  0  0  0
   14.3082   -9.8814    0.0000 H   0  0  0  0  0  0  0  0  0  0  0  0
   14.9847   -9.5802    0.0000 H   0  0  0  0  0  0  0  0  0  0  0  0
   15.3308   -7.7331    0.0000 H   0  0  0  0  0  0  0  0  0  0  0  0
   14.5289   -7.6224    0.0000 H   0  0  0  0  0  0  0  0  0  0  0  0
   15.6136   -9.3002    0.0000 H   0  0  0  0  0  0  0  0  0  0  0  0
   16.2901   -8.9990    0.0000 H   0  0  0  0  0  0  0  0  0  0  0  0
   16.4953   -7.0656    0.0000 H   0  0  0  0  0  0  0  0  0  0  0  0
   15.9318   -7.0096    0.0000 H   0  0  0  0  0  0  0  0  0  0  0  0
   16.9190   -8.7190    0.0000 H   0  0  0  0  0  0  0  0  0  0  0  0
   17.5955   -8.4178    0.0000 H   0  0  0  0  0  0  0  0  0  0  0  0
   17.9415   -6.5706    0.0000 H   0  0  0  0  0  0  0  0  0  0  0  0
   17.1395   -6.4601    0.0000 H   0  0  0  0  0  0  0  0  0  0  0  0
   18.2244   -8.1378    0.0000 H   0  0  0  0  0  0  0  0  0  0  0  0
   18.9009   -7.8366    0.0000 H   0  0  0  0  0  0  0  0  0  0  0  0
   19.1062   -5.9032    0.0000 H   0  0  0  0  0  0  0  0  0  0  0  0
   18.5427   -5.8472    0.0000 H   0  0  0  0  0  0  0  0  0  0  0  0
   19.5298   -7.5566    0.0000 H   0  0  0  0  0  0  0  0  0  0  0  0
   20.2063   -7.2554    0.0000 H   0  0  0  0  0  0  0  0  0  0  0  0
   20.5523   -5.4082    0.0000 H   0  0  0  0  0  0  0  0  0  0  0  0
   19.7503   -5.2977    0.0000 H   0  0  0  0  0  0  0  0  0  0  0  0
   20.8352   -6.9754    0.0000 H   0  0  0  0  0  0  0  0  0  0  0  0
   21.5117   -6.6742    0.0000 H   0  0  0  0  0  0  0  0  0  0  0  0
   21.8795   -6.1236    0.0000 H   0  0  0  0  0  0  0  0  0  0  0  0
   22.1103   -5.1441    0.0000 H   0  0  0  0  0  0  0  0  0  0  0  0
   21.2227   -4.6701    0.0000 H   0  0  0  0  0  0  0  0  0  0  0  0
   11.8752   -7.7830    0.0000 H   0  0  0  0  0  0  0  0  0  0  0  0
  1  2  1  0  0  0  0
  2  3  1  0  0  0  0
  3  4  1  0  0  0  0
  4  5  1  0  0  0  0
  5  6  1  0  0  0  0
  6  7  1  0  0  0  0
  7  8  1  0  0  0  0
  8  9  1  0  0  0  0
  9 10  1  0  0  0  0
 10 11  1  0  0  0  0
 11 12  1  0  0  0  0
 12 13  1  0  0  0  0
 13 14  1  0  0  0  0
 14 15  1  0  0  0  0
 15 16  1  0  0  0  0
 16 17  2  0  0  0  0
 16 18  1  0  0  0  0
 18 19  1  0  0  0  0
 19 20  1  0  0  0  0
 20 21  1  0  0  0  0
 21 22  1  0  0  0  0
 22 23  1  0  0  0  0
 19 23  1  0  0  0  0
 22 24  1  0  0  0  0
 24 25  2  0  0  0  0
 24 26  1  0  0  0  0
 26 27  1  0  0  0  0
 27 28  1  0  0  0  0
 28 29  1  0  0  0  0
 29 30  1  0  0  0  0
 30 31  1  0  0  0  0
 31 32  1  0  0  0  0
 32 33  1  0  0  0  0
 33 34  1  0  0  0  0
 34 35  1  0  0  0  0
 35 36  1  0  0  0  0
 36 37  1  0  0  0  0
 37 38  1  0  0  0  0
 38 39  1  0  0  0  0
 39 40  1  0  0  0  0
 21 41  1  0  0  0  0
 41 42  1  0  0  0  0
 41 43  2  0  0  0  0
  1 44  1  0  0  0  0
  1 45  1  0  0  0  0
  1 46  1  0  0  0  0
  2 47  1  0  0  0  0
  2 48  1  0  0  0  0
  3 49  1  0  0  0  0
  3 50  1  0  0  0  0
  4 51  1  0  0  0  0
  4 52  1  0  0  0  0
  5 53  1  0  0  0  0
  5 54  1  0  0  0  0
  6 55  1  0  0  0  0
  6 56  1  0  0  0  0
  7 57  1  0  0  0  0
  7 58  1  0  0  0  0
  8 59  1  0  0  0  0
  8 60  1  0  0  0  0
  9 61  1  0  0  0  0
  9 62  1  0  0  0  0
 10 63  1  0  0  0  0
 10 64  1  0  0  0  0
 11 65  1  0  0  0  0
 11 66  1  0  0  0  0
 12 67  1  0  0  0  0
 12 68  1  0  0  0  0
 13 69  1  0  0  0  0
 13 70  1  0  0  0  0
 14 71  1  0  0  0  0
 14 72  1  0  0  0  0
 15 73  1  0  0  0  0
 15 74  1  0  0  0  0
 19 75  1  0  0  0  0
 20 76  1  0  0  0  0
 20 77  1  0  0  0  0
 21 78  1  0  0  0  0
 23 79  1  0  0  0  0
 23 80  1  0  0  0  0
 26 81  1  0  0  0  0
 26 82  1  0  0  0  0
 27 83  1  0  0  0  0
 27 84  1  0  0  0  0
 28 85  1  0  0  0  0
 28 86  1  0  0  0  0
 29 87  1  0  0  0  0
 29 88  1  0  0  0  0
 30 89  1  0  0  0  0
 30 90  1  0  0  0  0
 31 91  1  0  0  0  0
 31 92  1  0  0  0  0
 32 93  1  0  0  0  0
 32 94  1  0  0  0  0
 33 95  1  0  0  0  0
 33 96  1  0  0  0  0
 34 97  1  0  0  0  0
 34 98  1  0  0  0  0
 35 99  1  0  0  0  0
 35100  1  0  0  0  0
 36101  1  0  0  0  0
 36102  1  0  0  0  0
 37103  1  0  0  0  0
 37104  1  0  0  0  0
 38105  1  0  0  0  0
 38106  1  0  0  0  0
 39107  1  0  0  0  0
 39108  1  0  0  0  0
 40109  1  0  0  0  0
 40110  1  0  0  0  0
 40111  1  0  0  0  0
 42112  1  0  0  0  0
M  END
>  <InChIKey>
QZLXCFQVOCEKSX-NOCHOARKSA-N

>  <UN GHS>
2A

>  <CASRN>
41672-81-5

> <Outcome>
1

>  <Index>
666

>  <StandardizerResult>
Clear Stereo (ID: ClearStereo)
Wedge Clean (ID: WedgeClean)
Mesomerize (ID: Mesomerize)
Tautomerize (ID: Tautomerize)
Add Explicit Hydrogens (ID: AddExplicitH)
Neutralize (ID: Neutralize)
Clean 2D (ID: Clean2D)

> <knn Distance>


> <CpId>
666

$$$$
667
  Mrv1532301301811342D          

 42 41  0  0  0  0            999 V2000
    3.5961    1.1248    0.0000 C   0  0  0  0  0  0  0  0  0  0  0  0
    4.1906    1.6968    0.0000 C   0  0  0  0  0  0  0  0  0  0  0  0
    4.9833    1.4680    0.0000 C   0  0  0  0  0  0  0  0  0  0  0  0
    5.5777    2.0400    0.0000 C   0  0  0  0  0  0  0  0  0  0  0  0
    6.3704    1.8112    0.0000 C   0  0  0  0  0  0  0  0  0  0  0  0
    6.9648    2.3832    0.0000 C   0  0  0  0  0  0  0  0  0  0  0  0
    7.7575    2.1544    0.0000 C   0  0  0  0  0  0  0  0  0  0  0  0
    8.3520    2.7265    0.0000 C   0  0  0  0  0  0  0  0  0  0  0  0
    9.1446    2.4976    0.0000 N   0  0  0  0  0  0  0  0  0  0  0  0
    9.7391    3.0697    0.0000 C   0  0  0  0  0  0  0  0  0  0  0  0
   10.5317    2.8409    0.0000 C   0  0  0  0  0  0  0  0  0  0  0  0
   11.1262    3.4129    0.0000 O   0  0  0  0  0  0  0  0  0  0  0  0
    9.3427    1.6968    0.0000 C   0  0  0  0  0  0  0  0  0  0  0  0
   10.1354    1.4680    0.0000 C   0  0  0  0  0  0  0  0  0  0  0  0
   10.3335    0.6671    0.0000 O   0  0  0  0  0  0  0  0  0  0  0  0
    3.0241    1.7192    0.0000 H   0  0  0  0  0  0  0  0  0  0  0  0
    3.0017    0.5527    0.0000 H   0  0  0  0  0  0  0  0  0  0  0  0
    4.1682    0.5303    0.0000 H   0  0  0  0  0  0  0  0  0  0  0  0
    4.3730    2.5014    0.0000 H   0  0  0  0  0  0  0  0  0  0  0  0
    3.6541    2.3235    0.0000 H   0  0  0  0  0  0  0  0  0  0  0  0
    4.8009    0.6634    0.0000 H   0  0  0  0  0  0  0  0  0  0  0  0
    5.5198    0.8413    0.0000 H   0  0  0  0  0  0  0  0  0  0  0  0
    5.7601    2.8446    0.0000 H   0  0  0  0  0  0  0  0  0  0  0  0
    5.0412    2.6667    0.0000 H   0  0  0  0  0  0  0  0  0  0  0  0
    6.1880    1.0066    0.0000 H   0  0  0  0  0  0  0  0  0  0  0  0
    6.9069    1.1845    0.0000 H   0  0  0  0  0  0  0  0  0  0  0  0
    7.1472    3.1878    0.0000 H   0  0  0  0  0  0  0  0  0  0  0  0
    6.4283    3.0100    0.0000 H   0  0  0  0  0  0  0  0  0  0  0  0
    7.5751    1.3498    0.0000 H   0  0  0  0  0  0  0  0  0  0  0  0
    8.2940    1.5277    0.0000 H   0  0  0  0  0  0  0  0  0  0  0  0
    8.5343    3.5311    0.0000 H   0  0  0  0  0  0  0  0  0  0  0  0
    7.8154    3.3532    0.0000 H   0  0  0  0  0  0  0  0  0  0  0  0
    9.9214    3.8743    0.0000 H   0  0  0  0  0  0  0  0  0  0  0  0
    9.2026    3.6964    0.0000 H   0  0  0  0  0  0  0  0  0  0  0  0
   10.3494    2.0363    0.0000 H   0  0  0  0  0  0  0  0  0  0  0  0
   11.0682    2.2141    0.0000 H   0  0  0  0  0  0  0  0  0  0  0  0
   11.9188    3.1841    0.0000 H   0  0  0  0  0  0  0  0  0  0  0  0
    8.5548    1.4524    0.0000 H   0  0  0  0  0  0  0  0  0  0  0  0
    9.0682    0.9188    0.0000 H   0  0  0  0  0  0  0  0  0  0  0  0
   10.9590    1.4195    0.0000 H   0  0  0  0  0  0  0  0  0  0  0  0
    9.5409    0.8959    0.0000 H   0  0  0  0  0  0  0  0  0  0  0  0
   10.9056    0.0727    0.0000 H   0  0  0  0  0  0  0  0  0  0  0  0
  1  2  1  0  0  0  0
  2  3  1  0  0  0  0
  3  4  1  0  0  0  0
  4  5  1  0  0  0  0
  5  6  1  0  0  0  0
  6  7  1  0  0  0  0
  7  8  1  0  0  0  0
  8  9  1  0  0  0  0
  9 10  1  0  0  0  0
 10 11  1  0  0  0  0
 11 12  1  0  0  0  0
  9 13  1  0  0  0  0
 13 14  1  0  0  0  0
 14 15  1  0  0  0  0
  1 16  1  0  0  0  0
  1 17  1  0  0  0  0
  1 18  1  0  0  0  0
  2 19  1  0  0  0  0
  2 20  1  0  0  0  0
  3 21  1  0  0  0  0
  3 22  1  0  0  0  0
  4 23  1  0  0  0  0
  4 24  1  0  0  0  0
  5 25  1  0  0  0  0
  5 26  1  0  0  0  0
  6 27  1  0  0  0  0
  6 28  1  0  0  0  0
  7 29  1  0  0  0  0
  7 30  1  0  0  0  0
  8 31  1  0  0  0  0
  8 32  1  0  0  0  0
 10 33  1  0  0  0  0
 10 34  1  0  0  0  0
 11 35  1  0  0  0  0
 11 36  1  0  0  0  0
 12 37  1  0  0  0  0
 13 38  1  0  0  0  0
 13 39  1  0  0  0  0
 14 40  1  0  0  0  0
 14 41  1  0  0  0  0
 15 42  1  0  0  0  0
M  END
>  <InChIKey>
QZQNMMLYACBCMJ-UHFFFAOYSA-N

>  <UN GHS>
1

>  <CASRN>
71786-60-2

> <Outcome>
1

>  <Index>
667

>  <StandardizerResult>
Clear Stereo (ID: ClearStereo)
Wedge Clean (ID: WedgeClean)
Mesomerize (ID: Mesomerize)
Tautomerize (ID: Tautomerize)
Add Explicit Hydrogens (ID: AddExplicitH)
Neutralize (ID: Neutralize)
Clean 2D (ID: Clean2D)

> <knn Distance>


> <CpId>
667

$$$$
668
  Mrv1532301301811342D          

  9  9  0  0  0  0            999 V2000
    0.5678    1.1143    0.0000 C   0  0  0  0  0  0  0  0  0  0  0  0
    1.2352    0.6294    0.0000 C   0  0  0  0  0  0  0  0  0  0  0  0
    0.9803   -0.1553    0.0000 N   0  0  0  0  0  0  0  0  0  0  0  0
    0.1553   -0.1553    0.0000 C   0  0  0  0  0  0  0  0  0  0  0  0
   -0.0996    0.6294    0.0000 N   0  0  0  0  0  0  0  0  0  0  0  0
    0.5678    1.9393    0.0000 H   0  0  0  0  0  0  0  0  0  0  0  0
    2.0199    0.8843    0.0000 H   0  0  0  0  0  0  0  0  0  0  0  0
    1.4652   -0.8227    0.0000 H   0  0  0  0  0  0  0  0  0  0  0  0
   -0.3296   -0.8227    0.0000 H   0  0  0  0  0  0  0  0  0  0  0  0
  1  2  4  0  0  0  0
  2  3  4  0  0  0  0
  3  4  4  0  0  0  0
  4  5  4  0  0  0  0
  1  5  4  0  0  0  0
  1  6  1  0  0  0  0
  2  7  1  0  0  0  0
  3  8  1  0  0  0  0
  4  9  1  0  0  0  0
M  END
>  <InChIKey>
RAXXELZNTBOGNW-UHFFFAOYSA-N

>  <UN GHS>
1

>  <CASRN>
288-32-4

> <Outcome>
1

>  <Index>
668

>  <StandardizerResult>
Dearomatize (ID: Dearomatize)
Clear Stereo (ID: ClearStereo)
Wedge Clean (ID: WedgeClean)
Mesomerize (ID: Mesomerize)
Tautomerize (ID: Tautomerize)
Aromatize (ID: Aromatize)
Add Explicit Hydrogens (ID: AddExplicitH)
Neutralize (ID: Neutralize)
Clean 2D (ID: Clean2D)

> <knn Distance>


> <CpId>
668

$$$$
672
  Mrv1532301301811342D          

 23 22  0  0  0  0            999 V2000
    1.7605    1.8414    0.0000 C   0  0  0  0  0  0  0  0  0  0  0  0
    2.4750    1.4289    0.0000 N   0  0  0  0  0  0  0  0  0  0  0  0
    2.4750    0.6039    0.0000 C   0  0  0  0  0  0  0  0  0  0  0  0
    3.1895    1.8414    0.0000 C   0  0  0  0  0  0  0  0  0  0  0  0
    3.1895    2.6664    0.0000 S   0  0  0  0  0  0  0  0  0  0  0  0
    3.9039    1.4289    0.0000 S   0  0  0  0  0  0  0  0  0  0  0  0
    4.6184    1.8414    0.0000 C   0  0  0  0  0  0  0  0  0  0  0  0
    4.6184    2.6664    0.0000 S   0  0  0  0  0  0  0  0  0  0  0  0
    5.3329    1.4289    0.0000 N   0  0  0  0  0  0  0  0  0  0  0  0
    6.0474    1.8414    0.0000 C   0  0  0  0  0  0  0  0  0  0  0  0
    5.3329    0.6039    0.0000 C   0  0  0  0  0  0  0  0  0  0  0  0
    2.1730    2.5559    0.0000 H   0  0  0  0  0  0  0  0  0  0  0  0
    1.0461    2.2539    0.0000 H   0  0  0  0  0  0  0  0  0  0  0  0
    1.3480    1.1269    0.0000 H   0  0  0  0  0  0  0  0  0  0  0  0
    1.6500    0.6039    0.0000 H   0  0  0  0  0  0  0  0  0  0  0  0
    2.4750   -0.2211    0.0000 H   0  0  0  0  0  0  0  0  0  0  0  0
    3.3000    0.6039    0.0000 H   0  0  0  0  0  0  0  0  0  0  0  0
    6.4599    1.1269    0.0000 H   0  0  0  0  0  0  0  0  0  0  0  0
    6.7618    2.2539    0.0000 H   0  0  0  0  0  0  0  0  0  0  0  0
    5.6349    2.5559    0.0000 H   0  0  0  0  0  0  0  0  0  0  0  0
    4.5079    0.6039    0.0000 H   0  0  0  0  0  0  0  0  0  0  0  0
    5.3329   -0.2211    0.0000 H   0  0  0  0  0  0  0  0  0  0  0  0
    6.1579    0.6039    0.0000 H   0  0  0  0  0  0  0  0  0  0  0  0
  1  2  1  0  0  0  0
  2  3  1  0  0  0  0
  2  4  1  0  0  0  0
  4  5  2  0  0  0  0
  4  6  1  0  0  0  0
  6  7  1  0  0  0  0
  7  8  2  0  0  0  0
  7  9  1  0  0  0  0
  9 10  1  0  0  0  0
  9 11  1  0  0  0  0
  1 12  1  0  0  0  0
  1 13  1  0  0  0  0
  1 14  1  0  0  0  0
  3 15  1  0  0  0  0
  3 16  1  0  0  0  0
  3 17  1  0  0  0  0
 10 18  1  0  0  0  0
 10 19  1  0  0  0  0
 10 20  1  0  0  0  0
 11 21  1  0  0  0  0
 11 22  1  0  0  0  0
 11 23  1  0  0  0  0
M  END
>  <InChIKey>
REQPQFUJGGOFQL-UHFFFAOYSA-N

>  <UN GHS>
2B

>  <CASRN>
97-74-5

> <Outcome>
1

>  <Index>
672

>  <StandardizerResult>
Clear Stereo (ID: ClearStereo)
Wedge Clean (ID: WedgeClean)
Mesomerize (ID: Mesomerize)
Tautomerize (ID: Tautomerize)
Add Explicit Hydrogens (ID: AddExplicitH)
Neutralize (ID: Neutralize)
Clean 2D (ID: Clean2D)

> <knn Distance>


> <CpId>
672

$$$$
673
  Mrv1532301301811342D          

 58 57  0  0  0  0            999 V2000
    9.1855    6.1286    0.0000 C   0  0  0  0  0  0  0  0  0  0  0  0
    9.9000    5.7161    0.0000 C   0  0  0  0  0  0  0  0  0  0  0  0
   10.6145    6.1286    0.0000 C   0  0  0  0  0  0  0  0  0  0  0  0
   11.3289    5.7161    0.0000 C   0  0  0  0  0  0  0  0  0  0  0  0
   12.0434    6.1286    0.0000 C   0  0  0  0  0  0  0  0  0  0  0  0
   12.7579    5.7161    0.0000 C   0  0  0  0  0  0  0  0  0  0  0  0
   13.4724    6.1286    0.0000 C   0  0  0  0  0  0  0  0  0  0  0  0
   14.1868    5.7161    0.0000 C   0  0  0  0  0  0  0  0  0  0  0  0
   14.9013    6.1286    0.0000 C   0  0  0  0  0  0  0  0  0  0  0  0
   15.6158    5.7161    0.0000 C   0  0  0  0  0  0  0  0  0  0  0  0
   16.3302    6.1286    0.0000 C   0  0  0  0  0  0  0  0  0  0  0  0
   17.0447    5.7161    0.0000 C   0  0  0  0  0  0  0  0  0  0  0  0
   17.7592    6.1286    0.0000 C   0  0  0  0  0  0  0  0  0  0  0  0
   18.4737    5.7161    0.0000 C   0  0  0  0  0  0  0  0  0  0  0  0
   19.1881    6.1286    0.0000 C   0  0  0  0  0  0  0  0  0  0  0  0
   19.9026    5.7161    0.0000 C   0  0  0  0  0  0  0  0  0  0  0  0
   20.6171    6.1286    0.0000 C   0  0  0  0  0  0  0  0  0  0  0  0
   21.3315    5.7161    0.0000 C   0  0  0  0  0  0  0  0  0  0  0  0
   22.0460    6.1286    0.0000 N   0  0  0  0  0  0  0  0  0  0  0  0
    9.5980    6.8431    0.0000 H   0  0  0  0  0  0  0  0  0  0  0  0
    8.4711    6.5411    0.0000 H   0  0  0  0  0  0  0  0  0  0  0  0
    8.7730    5.4141    0.0000 H   0  0  0  0  0  0  0  0  0  0  0  0
    9.5297    4.9789    0.0000 H   0  0  0  0  0  0  0  0  0  0  0  0
   10.2703    4.9789    0.0000 H   0  0  0  0  0  0  0  0  0  0  0  0
   10.9847    6.8659    0.0000 H   0  0  0  0  0  0  0  0  0  0  0  0
   10.2442    6.8659    0.0000 H   0  0  0  0  0  0  0  0  0  0  0  0
   10.9587    4.9789    0.0000 H   0  0  0  0  0  0  0  0  0  0  0  0
   11.6992    4.9789    0.0000 H   0  0  0  0  0  0  0  0  0  0  0  0
   12.4137    6.8659    0.0000 H   0  0  0  0  0  0  0  0  0  0  0  0
   11.6732    6.8659    0.0000 H   0  0  0  0  0  0  0  0  0  0  0  0
   12.3876    4.9789    0.0000 H   0  0  0  0  0  0  0  0  0  0  0  0
   13.1281    4.9789    0.0000 H   0  0  0  0  0  0  0  0  0  0  0  0
   13.8426    6.8659    0.0000 H   0  0  0  0  0  0  0  0  0  0  0  0
   13.1021    6.8659    0.0000 H   0  0  0  0  0  0  0  0  0  0  0  0
   13.8166    4.9789    0.0000 H   0  0  0  0  0  0  0  0  0  0  0  0
   14.5571    4.9789    0.0000 H   0  0  0  0  0  0  0  0  0  0  0  0
   15.2716    6.8659    0.0000 H   0  0  0  0  0  0  0  0  0  0  0  0
   14.5310    6.8659    0.0000 H   0  0  0  0  0  0  0  0  0  0  0  0
   15.2455    4.9789    0.0000 H   0  0  0  0  0  0  0  0  0  0  0  0
   15.9860    4.9789    0.0000 H   0  0  0  0  0  0  0  0  0  0  0  0
   16.7005    6.8659    0.0000 H   0  0  0  0  0  0  0  0  0  0  0  0
   15.9600    6.8659    0.0000 H   0  0  0  0  0  0  0  0  0  0  0  0
   16.6745    4.9789    0.0000 H   0  0  0  0  0  0  0  0  0  0  0  0
   17.4150    4.9789    0.0000 H   0  0  0  0  0  0  0  0  0  0  0  0
   18.1294    6.8659    0.0000 H   0  0  0  0  0  0  0  0  0  0  0  0
   17.3889    6.8659    0.0000 H   0  0  0  0  0  0  0  0  0  0  0  0
   18.1034    4.9789    0.0000 H   0  0  0  0  0  0  0  0  0  0  0  0
   18.8439    4.9789    0.0000 H   0  0  0  0  0  0  0  0  0  0  0  0
   19.5584    6.8659    0.0000 H   0  0  0  0  0  0  0  0  0  0  0  0
   18.8179    6.8659    0.0000 H   0  0  0  0  0  0  0  0  0  0  0  0
   19.5323    4.9789    0.0000 H   0  0  0  0  0  0  0  0  0  0  0  0
   20.2729    4.9789    0.0000 H   0  0  0  0  0  0  0  0  0  0  0  0
   20.9873    6.8659    0.0000 H   0  0  0  0  0  0  0  0  0  0  0  0
   20.2468    6.8659    0.0000 H   0  0  0  0  0  0  0  0  0  0  0  0
   20.9613    4.9789    0.0000 H   0  0  0  0  0  0  0  0  0  0  0  0
   21.7018    4.9789    0.0000 H   0  0  0  0  0  0  0  0  0  0  0  0
   22.7605    5.7161    0.0000 H   0  0  0  0  0  0  0  0  0  0  0  0
   22.0460    6.9536    0.0000 H   0  0  0  0  0  0  0  0  0  0  0  0
  1  2  1  0  0  0  0
  2  3  1  0  0  0  0
  3  4  1  0  0  0  0
  4  5  1  0  0  0  0
  5  6  1  0  0  0  0
  6  7  1  0  0  0  0
  7  8  1  0  0  0  0
  8  9  1  0  0  0  0
  9 10  1  0  0  0  0
 10 11  1  0  0  0  0
 11 12  1  0  0  0  0
 12 13  1  0  0  0  0
 13 14  1  0  0  0  0
 14 15  1  0  0  0  0
 15 16  1  0  0  0  0
 16 17  1  0  0  0  0
 17 18  1  0  0  0  0
 18 19  1  0  0  0  0
  1 20  1  0  0  0  0
  1 21  1  0  0  0  0
  1 22  1  0  0  0  0
  2 23  1  0  0  0  0
  2 24  1  0  0  0  0
  3 25  1  0  0  0  0
  3 26  1  0  0  0  0
  4 27  1  0  0  0  0
  4 28  1  0  0  0  0
  5 29  1  0  0  0  0
  5 30  1  0  0  0  0
  6 31  1  0  0  0  0
  6 32  1  0  0  0  0
  7 33  1  0  0  0  0
  7 34  1  0  0  0  0
  8 35  1  0  0  0  0
  8 36  1  0  0  0  0
  9 37  1  0  0  0  0
  9 38  1  0  0  0  0
 10 39  1  0  0  0  0
 10 40  1  0  0  0  0
 11 41  1  0  0  0  0
 11 42  1  0  0  0  0
 12 43  1  0  0  0  0
 12 44  1  0  0  0  0
 13 45  1  0  0  0  0
 13 46  1  0  0  0  0
 14 47  1  0  0  0  0
 14 48  1  0  0  0  0
 15 49  1  0  0  0  0
 15 50  1  0  0  0  0
 16 51  1  0  0  0  0
 16 52  1  0  0  0  0
 17 53  1  0  0  0  0
 17 54  1  0  0  0  0
 18 55  1  0  0  0  0
 18 56  1  0  0  0  0
 19 57  1  0  0  0  0
 19 58  1  0  0  0  0
M  END
>  <InChIKey>
REYJJPSVUYRZGE-UHFFFAOYSA-N

>  <UN GHS>
1

>  <CASRN>
124-30-1

> <Outcome>
1

>  <Index>
673

>  <StandardizerResult>
Clear Stereo (ID: ClearStereo)
Wedge Clean (ID: WedgeClean)
Mesomerize (ID: Mesomerize)
Tautomerize (ID: Tautomerize)
Add Explicit Hydrogens (ID: AddExplicitH)
Neutralize (ID: Neutralize)
Clean 2D (ID: Clean2D)

> <knn Distance>


> <CpId>
673

$$$$
674
  Mrv1532301301811342D          

  9  8  0  0  0  0            999 V2000
    0.1088   -1.2365    0.0000 O   0  0  0  0  0  0  0  0  0  0  0  0
    0.8233   -0.8240    0.0000 C   0  0  0  0  0  0  0  0  0  0  0  0
    0.8233    0.0010    0.0000 C   0  0  0  0  0  0  0  0  0  0  0  0
    0.8233    0.8260    0.0000 F   0  0  0  0  0  0  0  0  0  0  0  0
    1.6483    0.0010    0.0000 F   0  0  0  0  0  0  0  0  0  0  0  0
   -0.0017    0.0010    0.0000 F   0  0  0  0  0  0  0  0  0  0  0  0
   -0.6056   -0.8240    0.0000 H   0  0  0  0  0  0  0  0  0  0  0  0
    1.2766   -1.5133    0.0000 H   0  0  0  0  0  0  0  0  0  0  0  0
    1.6469   -0.8720    0.0000 H   0  0  0  0  0  0  0  0  0  0  0  0
  1  2  1  0  0  0  0
  2  3  1  0  0  0  0
  3  4  1  0  0  0  0
  3  5  1  0  0  0  0
  3  6  1  0  0  0  0
  1  7  1  0  0  0  0
  2  8  1  0  0  0  0
  2  9  1  0  0  0  0
M  END
>  <InChIKey>
RHQDFWAXVIIEBN-UHFFFAOYSA-N

>  <UN GHS>
1

>  <CASRN>
75-89-8

> <Outcome>
1

>  <Index>
674

>  <StandardizerResult>
Clear Stereo (ID: ClearStereo)
Wedge Clean (ID: WedgeClean)
Mesomerize (ID: Mesomerize)
Tautomerize (ID: Tautomerize)
Add Explicit Hydrogens (ID: AddExplicitH)
Neutralize (ID: Neutralize)
Clean 2D (ID: Clean2D)

> <knn Distance>


> <CpId>
674

$$$$
675
  Mrv1532301301811342D          

 47 49  0  0  0  0            999 V2000
   -5.5592   -2.8587    0.0000 C   0  0  0  0  0  0  0  0  0  0  0  0
   -5.1467   -2.1442    0.0000 O   0  0  0  0  0  0  0  0  0  0  0  0
   -4.3217   -2.1442    0.0000 C   0  0  0  0  0  0  0  0  0  0  0  0
   -3.9092   -1.4298    0.0000 C   0  0  0  0  0  0  0  0  0  0  0  0
   -3.0842   -1.4298    0.0000 C   0  0  0  0  0  0  0  0  0  0  0  0
   -2.6717   -2.1442    0.0000 C   0  0  0  0  0  0  0  0  0  0  0  0
   -1.8467   -2.1442    0.0000 C   0  0  0  0  0  0  0  0  0  0  0  0
   -1.4342   -1.4298    0.0000 N   0  0  0  0  0  0  0  0  0  0  0  0
   -0.6092   -1.4298    0.0000 N   0  0  0  0  0  0  0  0  0  0  0  0
   -0.1967   -0.7153    0.0000 C   0  0  0  0  0  0  0  0  0  0  0  0
    0.6283   -0.7153    0.0000 C   0  0  0  0  0  0  0  0  0  0  0  0
    1.1132   -0.0478    0.0000 N   0  0  0  0  0  0  0  0  0  0  0  0
    0.8582    0.7368    0.0000 C   0  0  0  0  0  0  0  0  0  0  0  0
    1.8978   -0.3028    0.0000 C   0  0  0  0  0  0  0  0  0  0  0  0
    2.6123    0.1097    0.0000 C   0  0  0  0  0  0  0  0  0  0  0  0
    3.3267   -0.3028    0.0000 C   0  0  0  0  0  0  0  0  0  0  0  0
    3.3267   -1.1278    0.0000 C   0  0  0  0  0  0  0  0  0  0  0  0
    2.6123   -1.5403    0.0000 C   0  0  0  0  0  0  0  0  0  0  0  0
    1.8978   -1.1278    0.0000 C   0  0  0  0  0  0  0  0  0  0  0  0
    1.1132   -1.3827    0.0000 C   0  0  0  0  0  0  0  0  0  0  0  0
    1.2762   -2.1914    0.0000 C   0  0  0  0  0  0  0  0  0  0  0  0
    0.5059   -1.9411    0.0000 C   0  0  0  0  0  0  0  0  0  0  0  0
   -3.0842   -2.8587    0.0000 C   0  0  0  0  0  0  0  0  0  0  0  0
   -3.9092   -2.8587    0.0000 C   0  0  0  0  0  0  0  0  0  0  0  0
   -6.2737   -2.4462    0.0000 H   0  0  0  0  0  0  0  0  0  0  0  0
   -5.9717   -3.5732    0.0000 H   0  0  0  0  0  0  0  0  0  0  0  0
   -4.8448   -3.2712    0.0000 H   0  0  0  0  0  0  0  0  0  0  0  0
   -4.3217   -0.7153    0.0000 H   0  0  0  0  0  0  0  0  0  0  0  0
   -2.6717   -0.7153    0.0000 H   0  0  0  0  0  0  0  0  0  0  0  0
   -1.7988   -2.9678    0.0000 H   0  0  0  0  0  0  0  0  0  0  0  0
   -1.1575   -2.5976    0.0000 H   0  0  0  0  0  0  0  0  0  0  0  0
   -0.6092   -0.0008    0.0000 H   0  0  0  0  0  0  0  0  0  0  0  0
    1.6429    0.9917    0.0000 H   0  0  0  0  0  0  0  0  0  0  0  0
    0.6033    1.5214    0.0000 H   0  0  0  0  0  0  0  0  0  0  0  0
    0.0736    0.4818    0.0000 H   0  0  0  0  0  0  0  0  0  0  0  0
    2.6123    0.9347    0.0000 H   0  0  0  0  0  0  0  0  0  0  0  0
    4.0412    0.1097    0.0000 H   0  0  0  0  0  0  0  0  0  0  0  0
    4.0412   -1.5403    0.0000 H   0  0  0  0  0  0  0  0  0  0  0  0
    2.6123   -2.3653    0.0000 H   0  0  0  0  0  0  0  0  0  0  0  0
    0.8251   -2.8822    0.0000 H   0  0  0  0  0  0  0  0  0  0  0  0
    1.8251   -2.8074    0.0000 H   0  0  0  0  0  0  0  0  0  0  0  0
    2.0142   -1.8227    0.0000 H   0  0  0  0  0  0  0  0  0  0  0  0
    0.1256   -1.2090    0.0000 H   0  0  0  0  0  0  0  0  0  0  0  0
   -0.3002   -2.1169    0.0000 H   0  0  0  0  0  0  0  0  0  0  0  0
    0.4649   -2.7651    0.0000 H   0  0  0  0  0  0  0  0  0  0  0  0
   -2.6717   -3.5732    0.0000 H   0  0  0  0  0  0  0  0  0  0  0  0
   -4.3217   -3.5732    0.0000 H   0  0  0  0  0  0  0  0  0  0  0  0
  1  2  1  0  0  0  0
  2  3  1  0  0  0  0
  3  4  4  0  0  0  0
  4  5  4  0  0  0  0
  5  6  4  0  0  0  0
  6  7  1  0  0  0  0
  8  7  1  4  0  0  0
  8  9  2  0  0  0  0
 10  9  1  4  0  0  0
 10 11  2  0  0  0  0
 11 12  1  0  0  0  0
 12 13  1  0  0  0  0
 12 14  1  0  0  0  0
 14 15  4  0  0  0  0
 15 16  4  0  0  0  0
 16 17  4  0  0  0  0
 17 18  4  0  0  0  0
 18 19  4  0  0  0  0
 14 19  4  0  0  0  0
 19 20  1  0  0  0  0
 11 20  1  0  0  0  0
 20 21  1  0  0  0  0
 20 22  1  0  0  0  0
  6 23  4  0  0  0  0
 23 24  4  0  0  0  0
  3 24  4  0  0  0  0
  1 25  1  0  0  0  0
  1 26  1  0  0  0  0
  1 27  1  0  0  0  0
  4 28  1  0  0  0  0
  5 29  1  0  0  0  0
  7 30  1  0  0  0  0
  7 31  1  0  0  0  0
 10 32  1  0  0  0  0
 13 33  1  0  0  0  0
 13 34  1  0  0  0  0
 13 35  1  0  0  0  0
 15 36  1  0  0  0  0
 16 37  1  0  0  0  0
 17 38  1  0  0  0  0
 18 39  1  0  0  0  0
 21 40  1  0  0  0  0
 21 41  1  0  0  0  0
 21 42  1  0  0  0  0
 22 43  1  0  0  0  0
 22 44  1  0  0  0  0
 22 45  1  0  0  0  0
 23 46  1  0  0  0  0
 24 47  1  0  0  0  0
M  END
>  <InChIKey>
RHSRDJUNWGTRNQ-UHFFFAOYSA-O

>  <UN GHS>
1

>  <CASRN>
58798-47-3

> <Outcome>
1

>  <Index>
675

>  <StandardizerResult>
Dearomatize (ID: Dearomatize)
Clear Stereo (ID: ClearStereo)
Wedge Clean (ID: WedgeClean)
Mesomerize (ID: Mesomerize)
Tautomerize (ID: Tautomerize)
Aromatize (ID: Aromatize)
Add Explicit Hydrogens (ID: AddExplicitH)
Neutralize (ID: Neutralize)
Clean 2D (ID: Clean2D)

> <knn Distance>


> <CpId>
675

$$$$
678
  Mrv1532301301811342D          

 35 34  0  0  0  0            999 V2000
   11.2067    4.8035    0.0000 C   0  0  0  0  0  0  0  0  0  0  0  0
   11.2067    3.9785    0.0000 C   0  0  0  0  0  0  0  0  0  0  0  0
   10.4922    3.5660    0.0000 C   0  0  0  0  0  0  0  0  0  0  0  0
    9.7777    3.9785    0.0000 O   0  0  0  0  0  0  0  0  0  0  0  0
    9.0633    3.5660    0.0000 C   0  0  0  0  0  0  0  0  0  0  0  0
    8.3488    3.9785    0.0000 C   0  0  0  0  0  0  0  0  0  0  0  0
    8.3488    4.8035    0.0000 C   0  0  0  0  0  0  0  0  0  0  0  0
    7.6343    3.5660    0.0000 O   0  0  0  0  0  0  0  0  0  0  0  0
    6.9199    3.9785    0.0000 C   0  0  0  0  0  0  0  0  0  0  0  0
    6.9199    4.8035    0.0000 O   0  0  0  0  0  0  0  0  0  0  0  0
    6.2054    3.5660    0.0000 C   0  0  0  0  0  0  0  0  0  0  0  0
    5.4909    3.9785    0.0000 C   0  0  0  0  0  0  0  0  0  0  0  0
   11.9211    3.5660    0.0000 O   0  0  0  0  0  0  0  0  0  0  0  0
   12.6356    3.9785    0.0000 C   0  0  0  0  0  0  0  0  0  0  0  0
   12.6356    4.8035    0.0000 O   0  0  0  0  0  0  0  0  0  0  0  0
   13.3501    3.5660    0.0000 C   0  0  0  0  0  0  0  0  0  0  0  0
   14.0646    3.9785    0.0000 C   0  0  0  0  0  0  0  0  0  0  0  0
   12.0317    4.8035    0.0000 H   0  0  0  0  0  0  0  0  0  0  0  0
   11.2067    5.6285    0.0000 H   0  0  0  0  0  0  0  0  0  0  0  0
   10.3817    4.8035    0.0000 H   0  0  0  0  0  0  0  0  0  0  0  0
   10.4922    4.3910    0.0000 H   0  0  0  0  0  0  0  0  0  0  0  0
   10.1219    2.8288    0.0000 H   0  0  0  0  0  0  0  0  0  0  0  0
   10.8625    2.8288    0.0000 H   0  0  0  0  0  0  0  0  0  0  0  0
    8.6930    2.8288    0.0000 H   0  0  0  0  0  0  0  0  0  0  0  0
    9.4335    2.8288    0.0000 H   0  0  0  0  0  0  0  0  0  0  0  0
    9.0633    4.3910    0.0000 H   0  0  0  0  0  0  0  0  0  0  0  0
    8.9322    5.3869    0.0000 H   0  0  0  0  0  0  0  0  0  0  0  0
    7.9363    5.5180    0.0000 H   0  0  0  0  0  0  0  0  0  0  0  0
    7.5519    4.5900    0.0000 H   0  0  0  0  0  0  0  0  0  0  0  0
    6.2054    2.7410    0.0000 H   0  0  0  0  0  0  0  0  0  0  0  0
    5.4909    4.8035    0.0000 H   0  0  0  0  0  0  0  0  0  0  0  0
    4.7764    3.5660    0.0000 H   0  0  0  0  0  0  0  0  0  0  0  0
   13.3501    2.7410    0.0000 H   0  0  0  0  0  0  0  0  0  0  0  0
   14.7790    3.5660    0.0000 H   0  0  0  0  0  0  0  0  0  0  0  0
   14.0646    4.8035    0.0000 H   0  0  0  0  0  0  0  0  0  0  0  0
  1  2  1  0  0  0  0
  2  3  1  0  0  0  0
  3  4  1  0  0  0  0
  4  5  1  0  0  0  0
  5  6  1  0  0  0  0
  6  7  1  0  0  0  0
  6  8  1  0  0  0  0
  8  9  1  0  0  0  0
  9 10  2  0  0  0  0
  9 11  1  0  0  0  0
 11 12  2  0  0  0  0
  2 13  1  0  0  0  0
 13 14  1  0  0  0  0
 14 15  2  0  0  0  0
 14 16  1  0  0  0  0
 16 17  2  0  0  0  0
  1 18  1  0  0  0  0
  1 19  1  0  0  0  0
  1 20  1  0  0  0  0
  2 21  1  0  0  0  0
  3 22  1  0  0  0  0
  3 23  1  0  0  0  0
  5 24  1  0  0  0  0
  5 25  1  0  0  0  0
  6 26  1  0  0  0  0
  7 27  1  0  0  0  0
  7 28  1  0  0  0  0
  7 29  1  0  0  0  0
 11 30  1  0  0  0  0
 12 31  1  0  0  0  0
 12 32  1  0  0  0  0
 16 33  1  0  0  0  0
 17 34  1  0  0  0  0
 17 35  1  0  0  0  0
M  END
>  <InChIKey>
RNJVAUBBYGWVBF-UHFFFAOYSA-N

>  <UN GHS>
1

>  <CASRN>
57472-68-1

> <Outcome>
1

>  <Index>
678

>  <StandardizerResult>
Clear Stereo (ID: ClearStereo)
Wedge Clean (ID: WedgeClean)
Mesomerize (ID: Mesomerize)
Tautomerize (ID: Tautomerize)
Add Explicit Hydrogens (ID: AddExplicitH)
Neutralize (ID: Neutralize)
Clean 2D (ID: Clean2D)

> <knn Distance>


> <CpId>
678

$$$$
679
  Mrv1532301301811342D          

 17 17  0  0  0  0            999 V2000
    0.7145    2.0625    0.0000 C   0  0  0  0  0  0  0  0  0  0  0  0
    0.7145    1.2375    0.0000 C   0  0  0  0  0  0  0  0  0  0  0  0
    1.4289    0.8250    0.0000 C   0  0  0  0  0  0  0  0  0  0  0  0
    1.4289   -0.0000    0.0000 C   0  0  0  0  0  0  0  0  0  0  0  0
    0.7145   -0.4125    0.0000 C   0  0  0  0  0  0  0  0  0  0  0  0
   -0.0000   -0.0000    0.0000 C   0  0  0  0  0  0  0  0  0  0  0  0
   -0.0000    0.8250    0.0000 C   0  0  0  0  0  0  0  0  0  0  0  0
   -0.7145    1.2375    0.0000 N   0  0  0  0  0  0  0  0  0  0  0  0
    1.5395    2.0625    0.0000 H   0  0  0  0  0  0  0  0  0  0  0  0
    0.7145    2.8875    0.0000 H   0  0  0  0  0  0  0  0  0  0  0  0
   -0.1105    2.0625    0.0000 H   0  0  0  0  0  0  0  0  0  0  0  0
    2.1434    1.2375    0.0000 H   0  0  0  0  0  0  0  0  0  0  0  0
    2.1434   -0.4125    0.0000 H   0  0  0  0  0  0  0  0  0  0  0  0
    0.7145   -1.2375    0.0000 H   0  0  0  0  0  0  0  0  0  0  0  0
   -0.7145   -0.4125    0.0000 H   0  0  0  0  0  0  0  0  0  0  0  0
   -0.7145    2.0625    0.0000 H   0  0  0  0  0  0  0  0  0  0  0  0
   -1.4289    0.8250    0.0000 H   0  0  0  0  0  0  0  0  0  0  0  0
  1  2  1  0  0  0  0
  2  3  4  0  0  0  0
  3  4  4  0  0  0  0
  4  5  4  0  0  0  0
  5  6  4  0  0  0  0
  6  7  4  0  0  0  0
  2  7  4  0  0  0  0
  7  8  1  0  0  0  0
  1  9  1  0  0  0  0
  1 10  1  0  0  0  0
  1 11  1  0  0  0  0
  3 12  1  0  0  0  0
  4 13  1  0  0  0  0
  5 14  1  0  0  0  0
  6 15  1  0  0  0  0
  8 16  1  0  0  0  0
  8 17  1  0  0  0  0
M  END
>  <InChIKey>
RNVCVTLRINQCPJ-UHFFFAOYSA-N

>  <UN GHS>
1

>  <CASRN>
95-53-4

> <Outcome>
1

>  <Index>
679

>  <StandardizerResult>
Dearomatize (ID: Dearomatize)
Clear Stereo (ID: ClearStereo)
Wedge Clean (ID: WedgeClean)
Mesomerize (ID: Mesomerize)
Tautomerize (ID: Tautomerize)
Aromatize (ID: Aromatize)
Add Explicit Hydrogens (ID: AddExplicitH)
Neutralize (ID: Neutralize)
Clean 2D (ID: Clean2D)

> <knn Distance>


> <CpId>
679

$$$$
683
  Mrv1532301301811342D          

 26 25  0  0  0  0            999 V2000
    1.0013    1.4348    0.0000 C   0  0  0  0  0  0  0  0  0  0  0  0
    1.7158    1.8473    0.0000 C   0  0  0  0  0  0  0  0  0  0  0  0
    1.7158    2.6723    0.0000 C   0  0  0  0  0  0  0  0  0  0  0  0
    2.4303    1.4348    0.0000 C   0  0  0  0  0  0  0  0  0  0  0  0
    2.4303    0.6098    0.0000 O   0  0  0  0  0  0  0  0  0  0  0  0
    3.1447    1.8473    0.0000 O   0  0  0  0  0  0  0  0  0  0  0  0
    3.8592    1.4348    0.0000 O   0  0  0  0  0  0  0  0  0  0  0  0
    4.5737    1.8473    0.0000 C   0  0  0  0  0  0  0  0  0  0  0  0
    4.5737    2.6723    0.0000 O   0  0  0  0  0  0  0  0  0  0  0  0
    5.2881    1.4348    0.0000 C   0  0  0  0  0  0  0  0  0  0  0  0
    6.0026    1.8473    0.0000 C   0  0  0  0  0  0  0  0  0  0  0  0
    5.2881    0.6098    0.0000 C   0  0  0  0  0  0  0  0  0  0  0  0
    0.5888    2.1493    0.0000 H   0  0  0  0  0  0  0  0  0  0  0  0
    0.2868    1.0223    0.0000 H   0  0  0  0  0  0  0  0  0  0  0  0
    1.4138    0.7203    0.0000 H   0  0  0  0  0  0  0  0  0  0  0  0
    1.0013    2.2598    0.0000 H   0  0  0  0  0  0  0  0  0  0  0  0
    2.5127    2.4588    0.0000 H   0  0  0  0  0  0  0  0  0  0  0  0
    2.1283    3.3868    0.0000 H   0  0  0  0  0  0  0  0  0  0  0  0
    1.1324    3.2557    0.0000 H   0  0  0  0  0  0  0  0  0  0  0  0
    5.2881    2.2598    0.0000 H   0  0  0  0  0  0  0  0  0  0  0  0
    6.2161    1.0504    0.0000 H   0  0  0  0  0  0  0  0  0  0  0  0
    6.8276    1.8473    0.0000 H   0  0  0  0  0  0  0  0  0  0  0  0
    6.2161    2.6442    0.0000 H   0  0  0  0  0  0  0  0  0  0  0  0
    4.4631    0.6098    0.0000 H   0  0  0  0  0  0  0  0  0  0  0  0
    5.2881   -0.2152    0.0000 H   0  0  0  0  0  0  0  0  0  0  0  0
    6.1131    0.6098    0.0000 H   0  0  0  0  0  0  0  0  0  0  0  0
  1  2  1  0  0  0  0
  2  3  1  0  0  0  0
  2  4  1  0  0  0  0
  4  5  2  0  0  0  0
  4  6  1  0  0  0  0
  6  7  1  0  0  0  0
  7  8  1  0  0  0  0
  8  9  2  0  0  0  0
  8 10  1  0  0  0  0
 10 11  1  0  0  0  0
 10 12  1  0  0  0  0
  1 13  1  0  0  0  0
  1 14  1  0  0  0  0
  1 15  1  0  0  0  0
  2 16  1  0  0  0  0
  3 17  1  0  0  0  0
  3 18  1  0  0  0  0
  3 19  1  0  0  0  0
 10 20  1  0  0  0  0
 11 21  1  0  0  0  0
 11 22  1  0  0  0  0
 11 23  1  0  0  0  0
 12 24  1  0  0  0  0
 12 25  1  0  0  0  0
 12 26  1  0  0  0  0
M  END
>  <InChIKey>
RPBWMJBZQXCSFW-UHFFFAOYSA-N

>  <UN GHS>
2A

>  <CASRN>
3437-84-1

> <Outcome>
1

>  <Index>
683

>  <StandardizerResult>
Clear Stereo (ID: ClearStereo)
Wedge Clean (ID: WedgeClean)
Mesomerize (ID: Mesomerize)
Tautomerize (ID: Tautomerize)
Add Explicit Hydrogens (ID: AddExplicitH)
Neutralize (ID: Neutralize)
Clean 2D (ID: Clean2D)

> <knn Distance>


> <CpId>
683

$$$$
690
  Mrv1532301301811342D          

 22 22  0  0  0  0            999 V2000
    2.8586    1.6504    0.0000 O   0  0  0  0  0  0  0  0  0  0  0  0
    2.1441    2.0629    0.0000 C   0  0  0  0  0  0  0  0  0  0  0  0
    1.4296    2.4754    0.0000 N   0  0  0  0  0  0  0  0  0  0  0  0
    0.7152    2.0629    0.0000 C   0  0  0  0  0  0  0  0  0  0  0  0
    0.7152    1.2379    0.0000 C   0  0  0  0  0  0  0  0  0  0  0  0
    1.4296    0.8254    0.0000 C   0  0  0  0  0  0  0  0  0  0  0  0
    1.4296    0.0004    0.0000 C   0  0  0  0  0  0  0  0  0  0  0  0
    0.7152   -0.4121    0.0000 C   0  0  0  0  0  0  0  0  0  0  0  0
    0.0007    0.0004    0.0000 C   0  0  0  0  0  0  0  0  0  0  0  0
   -0.7138   -0.4121    0.0000 C   0  0  0  0  0  0  0  0  0  0  0  0
   -1.4283    0.0004    0.0000 N   0  0  0  0  0  0  0  0  0  0  0  0
   -2.1427   -0.4121    0.0000 C   0  0  0  0  0  0  0  0  0  0  0  0
   -2.8572   -0.8246    0.0000 O   0  0  0  0  0  0  0  0  0  0  0  0
    0.0007    0.8254    0.0000 C   0  0  0  0  0  0  0  0  0  0  0  0
    0.2618    2.7522    0.0000 H   0  0  0  0  0  0  0  0  0  0  0  0
   -0.1084    2.1109    0.0000 H   0  0  0  0  0  0  0  0  0  0  0  0
    2.1441    1.2379    0.0000 H   0  0  0  0  0  0  0  0  0  0  0  0
    2.1441   -0.4121    0.0000 H   0  0  0  0  0  0  0  0  0  0  0  0
    0.7152   -1.2371    0.0000 H   0  0  0  0  0  0  0  0  0  0  0  0
   -1.0840   -1.1493    0.0000 H   0  0  0  0  0  0  0  0  0  0  0  0
   -0.3435   -1.1493    0.0000 H   0  0  0  0  0  0  0  0  0  0  0  0
   -0.7138    1.2379    0.0000 H   0  0  0  0  0  0  0  0  0  0  0  0
  1  2  2  0  0  0  0
  2  3  2  0  0  0  0
  3  4  1  0  0  0  0
  4  5  1  0  0  0  0
  5  6  4  0  0  0  0
  6  7  4  0  0  0  0
  7  8  4  0  0  0  0
  8  9  4  0  0  0  0
  9 10  1  0  0  0  0
 10 11  1  0  0  0  0
 11 12  2  0  0  0  0
 12 13  2  0  0  0  0
  9 14  4  0  0  0  0
  5 14  4  0  0  0  0
  4 15  1  0  0  0  0
  4 16  1  0  0  0  0
  6 17  1  0  0  0  0
  7 18  1  0  0  0  0
  8 19  1  0  0  0  0
 10 20  1  0  0  0  0
 10 21  1  0  0  0  0
 14 22  1  0  0  0  0
M  END
>  <InChIKey>
RTTZISZSHSCFRH-UHFFFAOYSA-N

>  <UN GHS>
1

>  <CASRN>
3634-83-1

> <Outcome>
1

>  <Index>
690

>  <StandardizerResult>
Dearomatize (ID: Dearomatize)
Clear Stereo (ID: ClearStereo)
Wedge Clean (ID: WedgeClean)
Mesomerize (ID: Mesomerize)
Tautomerize (ID: Tautomerize)
Aromatize (ID: Aromatize)
Add Explicit Hydrogens (ID: AddExplicitH)
Neutralize (ID: Neutralize)
Clean 2D (ID: Clean2D)

> <knn Distance>


> <CpId>
690

$$$$
691
  Mrv1532301301811342D          

 36 35  0  0  0  0            999 V2000
    3.4898    2.8658    0.0000 C   0  0  0  0  0  0  0  0  0  0  0  0
    4.2042    3.2783    0.0000 C   0  0  0  0  0  0  0  0  0  0  0  0
    4.9187    2.8658    0.0000 C   0  0  0  0  0  0  0  0  0  0  0  0
    5.6332    3.2783    0.0000 C   0  0  0  0  0  0  0  0  0  0  0  0
    6.3476    2.8658    0.0000 C   0  0  0  0  0  0  0  0  0  0  0  0
    7.0621    3.2783    0.0000 C   0  0  0  0  0  0  0  0  0  0  0  0
    7.7766    2.8658    0.0000 C   0  0  0  0  0  0  0  0  0  0  0  0
    7.7766    2.0408    0.0000 O   0  0  0  0  0  0  0  0  0  0  0  0
    8.4911    3.2783    0.0000 C   0  0  0  0  0  0  0  0  0  0  0  0
    9.2055    2.8658    0.0000 C   0  0  0  0  0  0  0  0  0  0  0  0
    9.9200    3.2783    0.0000 O   0  0  0  0  0  0  0  0  0  0  0  0
   10.6345    2.8658    0.0000 C   0  0  0  0  0  0  0  0  0  0  0  0
   11.3489    3.2783    0.0000 C   0  0  0  0  0  0  0  0  0  0  0  0
   10.6345    2.0408    0.0000 O   0  0  0  0  0  0  0  0  0  0  0  0
    3.0773    3.5803    0.0000 H   0  0  0  0  0  0  0  0  0  0  0  0
    2.7753    2.4533    0.0000 H   0  0  0  0  0  0  0  0  0  0  0  0
    3.9023    2.1513    0.0000 H   0  0  0  0  0  0  0  0  0  0  0  0
    4.5745    4.0155    0.0000 H   0  0  0  0  0  0  0  0  0  0  0  0
    3.8340    4.0155    0.0000 H   0  0  0  0  0  0  0  0  0  0  0  0
    4.5484    2.1286    0.0000 H   0  0  0  0  0  0  0  0  0  0  0  0
    5.2890    2.1286    0.0000 H   0  0  0  0  0  0  0  0  0  0  0  0
    6.0034    4.0155    0.0000 H   0  0  0  0  0  0  0  0  0  0  0  0
    5.2629    4.0155    0.0000 H   0  0  0  0  0  0  0  0  0  0  0  0
    5.9774    2.1286    0.0000 H   0  0  0  0  0  0  0  0  0  0  0  0
    6.7179    2.1286    0.0000 H   0  0  0  0  0  0  0  0  0  0  0  0
    7.4324    4.0155    0.0000 H   0  0  0  0  0  0  0  0  0  0  0  0
    6.6918    4.0155    0.0000 H   0  0  0  0  0  0  0  0  0  0  0  0
    7.0621    2.4533    0.0000 H   0  0  0  0  0  0  0  0  0  0  0  0
    8.1891    1.3263    0.0000 H   0  0  0  0  0  0  0  0  0  0  0  0
    8.8613    4.0155    0.0000 H   0  0  0  0  0  0  0  0  0  0  0  0
    8.1208    4.0155    0.0000 H   0  0  0  0  0  0  0  0  0  0  0  0
    8.8353    2.1286    0.0000 H   0  0  0  0  0  0  0  0  0  0  0  0
    9.5758    2.1286    0.0000 H   0  0  0  0  0  0  0  0  0  0  0  0
   11.7614    2.5638    0.0000 H   0  0  0  0  0  0  0  0  0  0  0  0
   12.0634    3.6908    0.0000 H   0  0  0  0  0  0  0  0  0  0  0  0
   10.9364    3.9928    0.0000 H   0  0  0  0  0  0  0  0  0  0  0  0
  1  2  1  0  0  0  0
  2  3  1  0  0  0  0
  3  4  1  0  0  0  0
  4  5  1  0  0  0  0
  5  6  1  0  0  0  0
  6  7  1  0  0  0  0
  7  8  1  0  0  0  0
  7  9  1  0  0  0  0
  9 10  1  0  0  0  0
 10 11  1  0  0  0  0
 11 12  1  0  0  0  0
 12 13  1  0  0  0  0
 12 14  2  0  0  0  0
  1 15  1  0  0  0  0
  1 16  1  0  0  0  0
  1 17  1  0  0  0  0
  2 18  1  0  0  0  0
  2 19  1  0  0  0  0
  3 20  1  0  0  0  0
  3 21  1  0  0  0  0
  4 22  1  0  0  0  0
  4 23  1  0  0  0  0
  5 24  1  0  0  0  0
  5 25  1  0  0  0  0
  6 26  1  0  0  0  0
  6 27  1  0  0  0  0
  7 28  1  0  0  0  0
  8 29  1  0  0  0  0
  9 30  1  0  0  0  0
  9 31  1  0  0  0  0
 10 32  1  0  0  0  0
 10 33  1  0  0  0  0
 13 34  1  0  0  0  0
 13 35  1  0  0  0  0
 13 36  1  0  0  0  0
M  END
>  <InChIKey>
RTYFAKSWXDNPPU-UHFFFAOYSA-N

>  <UN GHS>
2B

>  <CASRN>
85114-00-7

> <Outcome>
1

>  <Index>
691

>  <StandardizerResult>
Clear Stereo (ID: ClearStereo)
Wedge Clean (ID: WedgeClean)
Mesomerize (ID: Mesomerize)
Tautomerize (ID: Tautomerize)
Add Explicit Hydrogens (ID: AddExplicitH)
Neutralize (ID: Neutralize)
Clean 2D (ID: Clean2D)

> <knn Distance>


> <CpId>
691

$$$$
692
  Mrv1532301301811342D          

 41 43  0  0  0  0            999 V2000
   -3.0691   -2.8405    0.0000 C   0  0  0  0  0  0  0  0  0  0  0  0
   -2.6566   -2.1260    0.0000 C   0  0  0  0  0  0  0  0  0  0  0  0
   -1.8316   -2.1260    0.0000 C   0  0  0  0  0  0  0  0  0  0  0  0
   -1.4191   -2.8405    0.0000 C   0  0  0  0  0  0  0  0  0  0  0  0
   -1.4191   -1.4115    0.0000 C   0  0  0  0  0  0  0  0  0  0  0  0
   -1.8316   -0.6971    0.0000 C   0  0  0  0  0  0  0  0  0  0  0  0
   -1.4191    0.0174    0.0000 C   0  0  0  0  0  0  0  0  0  0  0  0
   -0.5941    0.0174    0.0000 C   0  0  0  0  0  0  0  0  0  0  0  0
   -0.1816   -0.6971    0.0000 C   0  0  0  0  0  0  0  0  0  0  0  0
   -0.5941   -1.4115    0.0000 C   0  0  0  0  0  0  0  0  0  0  0  0
   -0.1816   -2.1260    0.0000 O   0  0  0  0  0  0  0  0  0  0  0  0
    0.6434   -0.6971    0.0000 N   0  0  0  0  0  0  0  0  0  0  0  0
    1.1283   -0.0296    0.0000 N   0  0  0  0  0  0  0  0  0  0  0  0
    1.9129   -0.2846    0.0000 C   0  0  0  0  0  0  0  0  0  0  0  0
    2.6274    0.1279    0.0000 C   0  0  0  0  0  0  0  0  0  0  0  0
    3.3419   -0.2846    0.0000 C   0  0  0  0  0  0  0  0  0  0  0  0
    3.3419   -1.1096    0.0000 C   0  0  0  0  0  0  0  0  0  0  0  0
    2.6274   -1.5221    0.0000 C   0  0  0  0  0  0  0  0  0  0  0  0
    1.9129   -1.1096    0.0000 C   0  0  0  0  0  0  0  0  0  0  0  0
    1.1283   -1.3645    0.0000 N   0  0  0  0  0  0  0  0  0  0  0  0
   -1.8316    0.7319    0.0000 S   0  0  0  0  0  0  0  0  0  0  0  0
   -2.2441    1.4463    0.0000 O   0  0  0  0  0  0  0  0  0  0  0  0
   -1.1172    1.1444    0.0000 O   0  0  0  0  0  0  0  0  0  0  0  0
   -2.5461    0.3194    0.0000 O   0  0  0  0  0  0  0  0  0  0  0  0
   -3.7836   -2.4280    0.0000 H   0  0  0  0  0  0  0  0  0  0  0  0
   -3.4816   -3.5550    0.0000 H   0  0  0  0  0  0  0  0  0  0  0  0
   -2.3547   -3.2530    0.0000 H   0  0  0  0  0  0  0  0  0  0  0  0
   -2.7046   -1.3024    0.0000 H   0  0  0  0  0  0  0  0  0  0  0  0
   -3.3459   -1.6727    0.0000 H   0  0  0  0  0  0  0  0  0  0  0  0
   -2.2441   -2.8405    0.0000 H   0  0  0  0  0  0  0  0  0  0  0  0
   -1.6327   -3.6374    0.0000 H   0  0  0  0  0  0  0  0  0  0  0  0
   -0.7047   -3.2530    0.0000 H   0  0  0  0  0  0  0  0  0  0  0  0
   -0.8358   -2.2571    0.0000 H   0  0  0  0  0  0  0  0  0  0  0  0
   -2.6566   -0.6971    0.0000 H   0  0  0  0  0  0  0  0  0  0  0  0
   -0.1816    0.7319    0.0000 H   0  0  0  0  0  0  0  0  0  0  0  0
    0.5701   -2.4659    0.0000 H   0  0  0  0  0  0  0  0  0  0  0  0
    2.6274    0.9529    0.0000 H   0  0  0  0  0  0  0  0  0  0  0  0
    4.0563    0.1279    0.0000 H   0  0  0  0  0  0  0  0  0  0  0  0
    4.0563   -1.5221    0.0000 H   0  0  0  0  0  0  0  0  0  0  0  0
    2.6274   -2.3471    0.0000 H   0  0  0  0  0  0  0  0  0  0  0  0
   -1.8316    2.1608    0.0000 H   0  0  0  0  0  0  0  0  0  0  0  0
  1  2  1  0  0  0  0
  2  3  1  0  0  0  0
  3  4  1  0  0  0  0
  3  5  1  0  0  0  0
  5  6  4  0  0  0  0
  6  7  4  0  0  0  0
  7  8  4  0  0  0  0
  8  9  4  0  0  0  0
  9 10  4  0  0  0  0
  5 10  4  0  0  0  0
 10 11  1  0  0  0  0
  9 12  1  0  0  0  0
 12 13  4  0  0  0  0
 13 14  4  0  0  0  0
 14 15  4  0  0  0  0
 15 16  4  0  0  0  0
 16 17  4  0  0  0  0
 17 18  4  0  0  0  0
 18 19  4  0  0  0  0
 14 19  4  0  0  0  0
 19 20  4  0  0  0  0
 12 20  4  0  0  0  0
  7 21  1  0  0  0  0
 21 22  1  0  0  0  0
 21 23  2  0  0  0  0
 21 24  2  0  0  0  0
  1 25  1  0  0  0  0
  1 26  1  0  0  0  0
  1 27  1  0  0  0  0
  2 28  1  0  0  0  0
  2 29  1  0  0  0  0
  3 30  1  0  0  0  0
  4 31  1  0  0  0  0
  4 32  1  0  0  0  0
  4 33  1  0  0  0  0
  6 34  1  0  0  0  0
  8 35  1  0  0  0  0
 11 36  1  0  0  0  0
 15 37  1  0  0  0  0
 16 38  1  0  0  0  0
 17 39  1  0  0  0  0
 18 40  1  0  0  0  0
 22 41  1  0  0  0  0
M  END
>  <InChIKey>
RUFMFWSJTRYOPL-UHFFFAOYSA-M

>  <UN GHS>
1

> <Outcome>
1

>  <Index>
692

>  <StandardizerResult>
Dearomatize (ID: Dearomatize)
Clear Stereo (ID: ClearStereo)
Wedge Clean (ID: WedgeClean)
Mesomerize (ID: Mesomerize)
Tautomerize (ID: Tautomerize)
Aromatize (ID: Aromatize)
Add Explicit Hydrogens (ID: AddExplicitH)
Neutralize (ID: Neutralize)
Clean 2D (ID: Clean2D)

> <knn Distance>


> <CpId>
692

$$$$
697
  Mrv1532301301811342D          

 86 87  0  0  0  0            999 V2000
    1.5973   -8.4710    0.0000 C   0  0  0  0  0  0  0  0  0  0  0  0
    2.1276   -7.8390    0.0000 C   0  0  0  0  0  0  0  0  0  0  0  0
    2.6579   -8.4710    0.0000 C   0  0  0  0  0  0  0  0  0  0  0  0
    1.4131   -7.4265    0.0000 C   0  0  0  0  0  0  0  0  0  0  0  0
    1.4131   -6.6015    0.0000 N   0  0  0  0  0  0  0  0  0  0  0  0
    2.1276   -6.1890    0.0000 C   0  0  0  0  0  0  0  0  0  0  0  0
    2.8420   -6.6015    0.0000 C   0  0  0  0  0  0  0  0  0  0  0  0
    3.1242   -5.8263    0.0000 C   0  0  0  0  0  0  0  0  0  0  0  0
    3.6545   -6.7448    0.0000 C   0  0  0  0  0  0  0  0  0  0  0  0
    2.8420   -7.4265    0.0000 C   0  0  0  0  0  0  0  0  0  0  0  0
    3.5565   -7.8390    0.0000 O   0  0  0  0  0  0  0  0  0  0  0  0
    4.2710   -7.4265    0.0000 C   0  0  0  0  0  0  0  0  0  0  0  0
    4.2710   -6.6015    0.0000 O   0  0  0  0  0  0  0  0  0  0  0  0
    4.9855   -7.8390    0.0000 C   0  0  0  0  0  0  0  0  0  0  0  0
    5.6999   -7.4265    0.0000 C   0  0  0  0  0  0  0  0  0  0  0  0
    6.4144   -7.8390    0.0000 C   0  0  0  0  0  0  0  0  0  0  0  0
    7.1289   -7.4265    0.0000 C   0  0  0  0  0  0  0  0  0  0  0  0
    7.8433   -7.8390    0.0000 C   0  0  0  0  0  0  0  0  0  0  0  0
    8.5578   -7.4265    0.0000 C   0  0  0  0  0  0  0  0  0  0  0  0
    9.2723   -7.8390    0.0000 C   0  0  0  0  0  0  0  0  0  0  0  0
    9.9868   -7.4265    0.0000 C   0  0  0  0  0  0  0  0  0  0  0  0
   10.7012   -7.8390    0.0000 C   0  0  0  0  0  0  0  0  0  0  0  0
   10.7012   -8.6640    0.0000 O   0  0  0  0  0  0  0  0  0  0  0  0
   11.4157   -7.4265    0.0000 O   0  0  0  0  0  0  0  0  0  0  0  0
   12.1302   -7.8390    0.0000 C   0  0  0  0  0  0  0  0  0  0  0  0
   12.8446   -7.4265    0.0000 C   0  0  0  0  0  0  0  0  0  0  0  0
   12.3143   -6.7945    0.0000 C   0  0  0  0  0  0  0  0  0  0  0  0
   13.3749   -6.7945    0.0000 C   0  0  0  0  0  0  0  0  0  0  0  0
   13.5591   -7.8390    0.0000 C   0  0  0  0  0  0  0  0  0  0  0  0
   13.5591   -8.6640    0.0000 N   0  0  0  0  0  0  0  0  0  0  0  0
   12.8446   -9.0765    0.0000 C   0  0  0  0  0  0  0  0  0  0  0  0
   12.1302   -8.6640    0.0000 C   0  0  0  0  0  0  0  0  0  0  0  0
   11.6930   -9.3637    0.0000 C   0  0  0  0  0  0  0  0  0  0  0  0
   11.3057   -8.6928    0.0000 C   0  0  0  0  0  0  0  0  0  0  0  0
    0.9653   -7.9407    0.0000 H   0  0  0  0  0  0  0  0  0  0  0  0
    1.0670   -9.1030    0.0000 H   0  0  0  0  0  0  0  0  0  0  0  0
    2.2293   -9.0013    0.0000 H   0  0  0  0  0  0  0  0  0  0  0  0
    3.0168   -9.2138    0.0000 H   0  0  0  0  0  0  0  0  0  0  0  0
    3.4828   -8.4634    0.0000 H   0  0  0  0  0  0  0  0  0  0  0  0
    3.0031   -7.7217    0.0000 H   0  0  0  0  0  0  0  0  0  0  0  0
    0.6405   -7.1373    0.0000 H   0  0  0  0  0  0  0  0  0  0  0  0
    2.1276   -7.0140    0.0000 H   0  0  0  0  0  0  0  0  0  0  0  0
    0.9714   -5.9047    0.0000 H   0  0  0  0  0  0  0  0  0  0  0  0
    2.4978   -5.4518    0.0000 H   0  0  0  0  0  0  0  0  0  0  0  0
    1.7573   -5.4518    0.0000 H   0  0  0  0  0  0  0  0  0  0  0  0
    3.7053   -6.4119    0.0000 H   0  0  0  0  0  0  0  0  0  0  0  0
    3.9016   -5.5500    0.0000 H   0  0  0  0  0  0  0  0  0  0  0  0
    3.2055   -5.0053    0.0000 H   0  0  0  0  0  0  0  0  0  0  0  0
    2.9989   -7.2456    0.0000 H   0  0  0  0  0  0  0  0  0  0  0  0
    3.5790   -7.5663    0.0000 H   0  0  0  0  0  0  0  0  0  0  0  0
    3.1736   -6.0745    0.0000 H   0  0  0  0  0  0  0  0  0  0  0  0
    2.6189   -8.2208    0.0000 H   0  0  0  0  0  0  0  0  0  0  0  0
    4.6152   -8.5763    0.0000 H   0  0  0  0  0  0  0  0  0  0  0  0
    5.3557   -8.5763    0.0000 H   0  0  0  0  0  0  0  0  0  0  0  0
    6.0702   -6.6893    0.0000 H   0  0  0  0  0  0  0  0  0  0  0  0
    5.3297   -6.6893    0.0000 H   0  0  0  0  0  0  0  0  0  0  0  0
    6.0441   -8.5763    0.0000 H   0  0  0  0  0  0  0  0  0  0  0  0
    6.7847   -8.5763    0.0000 H   0  0  0  0  0  0  0  0  0  0  0  0
    7.4991   -6.6893    0.0000 H   0  0  0  0  0  0  0  0  0  0  0  0
    6.7586   -6.6893    0.0000 H   0  0  0  0  0  0  0  0  0  0  0  0
    7.4731   -8.5763    0.0000 H   0  0  0  0  0  0  0  0  0  0  0  0
    8.2136   -8.5763    0.0000 H   0  0  0  0  0  0  0  0  0  0  0  0
    8.9281   -6.6893    0.0000 H   0  0  0  0  0  0  0  0  0  0  0  0
    8.1876   -6.6893    0.0000 H   0  0  0  0  0  0  0  0  0  0  0  0
    8.9020   -8.5763    0.0000 H   0  0  0  0  0  0  0  0  0  0  0  0
    9.6425   -8.5763    0.0000 H   0  0  0  0  0  0  0  0  0  0  0  0
   10.3570   -6.6893    0.0000 H   0  0  0  0  0  0  0  0  0  0  0  0
    9.6165   -6.6893    0.0000 H   0  0  0  0  0  0  0  0  0  0  0  0
   11.4157   -8.2515    0.0000 H   0  0  0  0  0  0  0  0  0  0  0  0
   12.9463   -6.2642    0.0000 H   0  0  0  0  0  0  0  0  0  0  0  0
   11.7840   -6.1626    0.0000 H   0  0  0  0  0  0  0  0  0  0  0  0
   11.6824   -7.3248    0.0000 H   0  0  0  0  0  0  0  0  0  0  0  0
   13.7202   -7.5438    0.0000 H   0  0  0  0  0  0  0  0  0  0  0  0
   14.1999   -6.8021    0.0000 H   0  0  0  0  0  0  0  0  0  0  0  0
   13.7339   -6.0517    0.0000 H   0  0  0  0  0  0  0  0  0  0  0  0
   14.3585   -8.0429    0.0000 H   0  0  0  0  0  0  0  0  0  0  0  0
   12.8446   -8.2515    0.0000 H   0  0  0  0  0  0  0  0  0  0  0  0
   14.2736   -9.0765    0.0000 H   0  0  0  0  0  0  0  0  0  0  0  0
   12.4744   -9.8138    0.0000 H   0  0  0  0  0  0  0  0  0  0  0  0
   13.2149   -9.8138    0.0000 H   0  0  0  0  0  0  0  0  0  0  0  0
   10.8750   -9.2562    0.0000 H   0  0  0  0  0  0  0  0  0  0  0  0
   11.1099   -9.9473    0.0000 H   0  0  0  0  0  0  0  0  0  0  0  0
   11.8013  -10.1815    0.0000 H   0  0  0  0  0  0  0  0  0  0  0  0
   11.0268   -7.9164    0.0000 H   0  0  0  0  0  0  0  0  0  0  0  0
   10.6424   -8.2023    0.0000 H   0  0  0  0  0  0  0  0  0  0  0  0
   11.9468   -8.1736    0.0000 H   0  0  0  0  0  0  0  0  0  0  0  0
  1  2  1  0  0  0  0
  2  3  1  0  0  0  0
  2  4  1  0  0  0  0
  4  5  1  0  0  0  0
  5  6  1  0  0  0  0
  6  7  1  0  0  0  0
  7  8  1  0  0  0  0
  7  9  1  0  0  0  0
  7 10  1  0  0  0  0
  2 10  1  0  0  0  0
 10 11  1  0  0  0  0
 11 12  1  0  0  0  0
 12 13  2  0  0  0  0
 12 14  1  0  0  0  0
 14 15  1  0  0  0  0
 15 16  1  0  0  0  0
 16 17  1  0  0  0  0
 17 18  1  0  0  0  0
 18 19  1  0  0  0  0
 19 20  1  0  0  0  0
 20 21  1  0  0  0  0
 21 22  1  0  0  0  0
 22 23  2  0  0  0  0
 22 24  1  0  0  0  0
 24 25  1  0  0  0  0
 25 26  1  0  0  0  0
 26 27  1  0  0  0  0
 26 28  1  0  0  0  0
 26 29  1  0  0  0  0
 29 30  1  0  0  0  0
 30 31  1  0  0  0  0
 31 32  1  0  0  0  0
 25 32  1  0  0  0  0
 32 33  1  0  0  0  0
 32 34  1  0  0  0  0
  1 35  1  0  0  0  0
  1 36  1  0  0  0  0
  1 37  1  0  0  0  0
  3 38  1  0  0  0  0
  3 39  1  0  0  0  0
  3 40  1  0  0  0  0
  4 41  1  0  0  0  0
  4 42  1  0  0  0  0
  5 43  1  0  0  0  0
  6 44  1  0  0  0  0
  6 45  1  0  0  0  0
  8 46  1  0  0  0  0
  8 47  1  0  0  0  0
  8 48  1  0  0  0  0
  9 49  1  0  0  0  0
  9 50  1  0  0  0  0
  9 51  1  0  0  0  0
 10 52  1  0  0  0  0
 14 53  1  0  0  0  0
 14 54  1  0  0  0  0
 15 55  1  0  0  0  0
 15 56  1  0  0  0  0
 16 57  1  0  0  0  0
 16 58  1  0  0  0  0
 17 59  1  0  0  0  0
 17 60  1  0  0  0  0
 18 61  1  0  0  0  0
 18 62  1  0  0  0  0
 19 63  1  0  0  0  0
 19 64  1  0  0  0  0
 20 65  1  0  0  0  0
 20 66  1  0  0  0  0
 21 67  1  0  0  0  0
 21 68  1  0  0  0  0
 25 69  1  0  0  0  0
 27 70  1  0  0  0  0
 27 71  1  0  0  0  0
 27 72  1  0  0  0  0
 28 73  1  0  0  0  0
 28 74  1  0  0  0  0
 28 75  1  0  0  0  0
 29 76  1  0  0  0  0
 29 77  1  0  0  0  0
 30 78  1  0  0  0  0
 31 79  1  0  0  0  0
 31 80  1  0  0  0  0
 33 81  1  0  0  0  0
 33 82  1  0  0  0  0
 33 83  1  0  0  0  0
 34 84  1  0  0  0  0
 34 85  1  0  0  0  0
 34 86  1  0  0  0  0
M  END
>  <InChIKey>
RWMYPXKVMUFMKS-UHFFFAOYSA-N

>  <UN GHS>
2A

>  <CASRN>
52829-07-9

> <Outcome>
1

>  <Index>
697

>  <StandardizerResult>
Clear Stereo (ID: ClearStereo)
Wedge Clean (ID: WedgeClean)
Mesomerize (ID: Mesomerize)
Tautomerize (ID: Tautomerize)
Add Explicit Hydrogens (ID: AddExplicitH)
Neutralize (ID: Neutralize)
Clean 2D (ID: Clean2D)

> <knn Distance>


> <CpId>
697

$$$$
699
  Mrv1532301301811342D          

 19 19  0  0  0  0            999 V2000
    1.4882    2.4591    0.0000 O   0  0  0  0  0  0  0  0  0  0  0  0
    0.7738    2.0466    0.0000 C   0  0  0  0  0  0  0  0  0  0  0  0
    0.0593    2.4591    0.0000 C   0  0  0  0  0  0  0  0  0  0  0  0
    0.0593    3.2841    0.0000 O   0  0  0  0  0  0  0  0  0  0  0  0
   -0.6552    2.0466    0.0000 O   0  0  0  0  0  0  0  0  0  0  0  0
    0.7738    1.2216    0.0000 C   0  0  0  0  0  0  0  0  0  0  0  0
    1.4882    0.8091    0.0000 C   0  0  0  0  0  0  0  0  0  0  0  0
    1.4882   -0.0159    0.0000 C   0  0  0  0  0  0  0  0  0  0  0  0
    0.7738   -0.4284    0.0000 C   0  0  0  0  0  0  0  0  0  0  0  0
    0.0593   -0.0159    0.0000 C   0  0  0  0  0  0  0  0  0  0  0  0
    0.0593    0.8091    0.0000 C   0  0  0  0  0  0  0  0  0  0  0  0
   -0.6552    1.2216    0.0000 Cl  0  0  0  0  0  0  0  0  0  0  0  0
    2.2027    2.0466    0.0000 H   0  0  0  0  0  0  0  0  0  0  0  0
    0.7738    2.8716    0.0000 H   0  0  0  0  0  0  0  0  0  0  0  0
   -0.3532    3.9986    0.0000 H   0  0  0  0  0  0  0  0  0  0  0  0
    2.2027    1.2216    0.0000 H   0  0  0  0  0  0  0  0  0  0  0  0
    2.2027   -0.4284    0.0000 H   0  0  0  0  0  0  0  0  0  0  0  0
    0.7738   -1.2534    0.0000 H   0  0  0  0  0  0  0  0  0  0  0  0
   -0.6552   -0.4284    0.0000 H   0  0  0  0  0  0  0  0  0  0  0  0
  1  2  1  0  0  0  0
  2  3  1  0  0  0  0
  3  4  1  0  0  0  0
  3  5  2  0  0  0  0
  2  6  1  0  0  0  0
  6  7  4  0  0  0  0
  7  8  4  0  0  0  0
  8  9  4  0  0  0  0
  9 10  4  0  0  0  0
 10 11  4  0  0  0  0
  6 11  4  0  0  0  0
 11 12  1  0  0  0  0
  1 13  1  0  0  0  0
  2 14  1  0  0  0  0
  4 15  1  0  0  0  0
  7 16  1  0  0  0  0
  8 17  1  0  0  0  0
  9 18  1  0  0  0  0
 10 19  1  0  0  0  0
M  END
>  <InChIKey>
RWOLDZZTBNYTMS-SSDOTTSWSA-N

>  <UN GHS>
1

>  <CASRN>
52950-18-2

> <Outcome>
1

>  <Index>
699

>  <StandardizerResult>
Dearomatize (ID: Dearomatize)
Clear Stereo (ID: ClearStereo)
Wedge Clean (ID: WedgeClean)
Mesomerize (ID: Mesomerize)
Tautomerize (ID: Tautomerize)
Aromatize (ID: Aromatize)
Add Explicit Hydrogens (ID: AddExplicitH)
Neutralize (ID: Neutralize)
Clean 2D (ID: Clean2D)

> <knn Distance>


> <CpId>
699

$$$$
700
  Mrv1532301301811342D          

 66 66  0  0  0  0            999 V2000
   -7.1884    3.3109    0.0000 C   0  0  0  0  0  0  0  0  0  0  0  0
   -6.4740    3.7234    0.0000 C   0  0  0  0  0  0  0  0  0  0  0  0
   -5.7595    3.3109    0.0000 C   0  0  0  0  0  0  0  0  0  0  0  0
   -5.0450    3.7234    0.0000 C   0  0  0  0  0  0  0  0  0  0  0  0
   -4.3306    3.3109    0.0000 C   0  0  0  0  0  0  0  0  0  0  0  0
   -4.3306    2.4859    0.0000 C   0  0  0  0  0  0  0  0  0  0  0  0
   -3.6161    2.0734    0.0000 C   0  0  0  0  0  0  0  0  0  0  0  0
   -3.6161    3.7234    0.0000 C   0  0  0  0  0  0  0  0  0  0  0  0
   -2.9016    3.3109    0.0000 O   0  0  0  0  0  0  0  0  0  0  0  0
   -2.1871    3.7234    0.0000 C   0  0  0  0  0  0  0  0  0  0  0  0
   -2.1871    4.5484    0.0000 O   0  0  0  0  0  0  0  0  0  0  0  0
   -1.4727    3.3109    0.0000 C   0  0  0  0  0  0  0  0  0  0  0  0
   -0.7582    3.7234    0.0000 C   0  0  0  0  0  0  0  0  0  0  0  0
   -0.0437    3.3109    0.0000 C   0  0  0  0  0  0  0  0  0  0  0  0
   -0.0437    2.4859    0.0000 C   0  0  0  0  0  0  0  0  0  0  0  0
   -0.7582    2.0734    0.0000 C   0  0  0  0  0  0  0  0  0  0  0  0
   -1.4727    2.4859    0.0000 C   0  0  0  0  0  0  0  0  0  0  0  0
    0.6707    2.0734    0.0000 C   0  0  0  0  0  0  0  0  0  0  0  0
    0.6707    1.2484    0.0000 O   0  0  0  0  0  0  0  0  0  0  0  0
    1.3852    2.4859    0.0000 O   0  0  0  0  0  0  0  0  0  0  0  0
    2.0997    2.0734    0.0000 C   0  0  0  0  0  0  0  0  0  0  0  0
    2.8142    2.4859    0.0000 C   0  0  0  0  0  0  0  0  0  0  0  0
    2.8142    3.3109    0.0000 C   0  0  0  0  0  0  0  0  0  0  0  0
    3.5286    3.7234    0.0000 C   0  0  0  0  0  0  0  0  0  0  0  0
    3.5286    2.0734    0.0000 C   0  0  0  0  0  0  0  0  0  0  0  0
    4.2431    2.4859    0.0000 C   0  0  0  0  0  0  0  0  0  0  0  0
    4.9576    2.0734    0.0000 C   0  0  0  0  0  0  0  0  0  0  0  0
    5.6720    2.4859    0.0000 C   0  0  0  0  0  0  0  0  0  0  0  0
   -7.6009    4.0254    0.0000 H   0  0  0  0  0  0  0  0  0  0  0  0
   -7.9029    2.8984    0.0000 H   0  0  0  0  0  0  0  0  0  0  0  0
   -6.7759    2.5964    0.0000 H   0  0  0  0  0  0  0  0  0  0  0  0
   -6.1037    4.4607    0.0000 H   0  0  0  0  0  0  0  0  0  0  0  0
   -6.8442    4.4607    0.0000 H   0  0  0  0  0  0  0  0  0  0  0  0
   -6.1298    2.5737    0.0000 H   0  0  0  0  0  0  0  0  0  0  0  0
   -5.3892    2.5737    0.0000 H   0  0  0  0  0  0  0  0  0  0  0  0
   -4.6748    4.4607    0.0000 H   0  0  0  0  0  0  0  0  0  0  0  0
   -5.4153    4.4607    0.0000 H   0  0  0  0  0  0  0  0  0  0  0  0
   -5.0450    2.8984    0.0000 H   0  0  0  0  0  0  0  0  0  0  0  0
   -4.9625    1.9556    0.0000 H   0  0  0  0  0  0  0  0  0  0  0  0
   -4.4738    1.6734    0.0000 H   0  0  0  0  0  0  0  0  0  0  0  0
   -3.4551    1.2643    0.0000 H   0  0  0  0  0  0  0  0  0  0  0  0
   -2.7919    2.0374    0.0000 H   0  0  0  0  0  0  0  0  0  0  0  0
   -3.3852    2.8654    0.0000 H   0  0  0  0  0  0  0  0  0  0  0  0
   -3.2458    4.4607    0.0000 H   0  0  0  0  0  0  0  0  0  0  0  0
   -3.9863    4.4607    0.0000 H   0  0  0  0  0  0  0  0  0  0  0  0
   -0.7582    4.5484    0.0000 H   0  0  0  0  0  0  0  0  0  0  0  0
    0.6707    3.7234    0.0000 H   0  0  0  0  0  0  0  0  0  0  0  0
   -0.7582    1.2484    0.0000 H   0  0  0  0  0  0  0  0  0  0  0  0
   -2.1871    2.0734    0.0000 H   0  0  0  0  0  0  0  0  0  0  0  0
    1.7294    1.3362    0.0000 H   0  0  0  0  0  0  0  0  0  0  0  0
    2.4699    1.3362    0.0000 H   0  0  0  0  0  0  0  0  0  0  0  0
    2.0997    2.8984    0.0000 H   0  0  0  0  0  0  0  0  0  0  0  0
    2.6709    4.1234    0.0000 H   0  0  0  0  0  0  0  0  0  0  0  0
    2.1822    3.8412    0.0000 H   0  0  0  0  0  0  0  0  0  0  0  0
    3.7595    2.9314    0.0000 H   0  0  0  0  0  0  0  0  0  0  0  0
    4.3528    3.7594    0.0000 H   0  0  0  0  0  0  0  0  0  0  0  0
    3.6896    4.5326    0.0000 H   0  0  0  0  0  0  0  0  0  0  0  0
    3.1584    1.3362    0.0000 H   0  0  0  0  0  0  0  0  0  0  0  0
    3.8989    1.3362    0.0000 H   0  0  0  0  0  0  0  0  0  0  0  0
    4.7318    3.1506    0.0000 H   0  0  0  0  0  0  0  0  0  0  0  0
    4.2431    1.6609    0.0000 H   0  0  0  0  0  0  0  0  0  0  0  0
    5.1008    1.2609    0.0000 H   0  0  0  0  0  0  0  0  0  0  0  0
    5.5896    1.5431    0.0000 H   0  0  0  0  0  0  0  0  0  0  0  0
    6.4533    2.2207    0.0000 H   0  0  0  0  0  0  0  0  0  0  0  0
    6.1153    3.1817    0.0000 H   0  0  0  0  0  0  0  0  0  0  0  0
    5.1015    3.0819    0.0000 H   0  0  0  0  0  0  0  0  0  0  0  0
  1  2  1  0  0  0  0
  2  3  1  0  0  0  0
  3  4  1  0  0  0  0
  4  5  1  0  0  0  0
  5  6  1  0  0  0  0
  6  7  1  0  0  0  0
  5  8  1  0  0  0  0
  8  9  1  0  0  0  0
  9 10  1  0  0  0  0
 10 11  2  0  0  0  0
 10 12  1  0  0  0  0
 12 13  4  0  0  0  0
 13 14  4  0  0  0  0
 14 15  4  0  0  0  0
 15 16  4  0  0  0  0
 16 17  4  0  0  0  0
 12 17  4  0  0  0  0
 15 18  1  0  0  0  0
 18 19  2  0  0  0  0
 18 20  1  0  0  0  0
 20 21  1  0  0  0  0
 21 22  1  0  0  0  0
 22 23  1  0  0  0  0
 23 24  1  0  0  0  0
 22 25  1  0  0  0  0
 25 26  1  0  0  0  0
 26 27  1  0  0  0  0
 27 28  1  0  0  0  0
  1 29  1  0  0  0  0
  1 30  1  0  0  0  0
  1 31  1  0  0  0  0
  2 32  1  0  0  0  0
  2 33  1  0  0  0  0
  3 34  1  0  0  0  0
  3 35  1  0  0  0  0
  4 36  1  0  0  0  0
  4 37  1  0  0  0  0
  5 38  1  0  0  0  0
  6 39  1  0  0  0  0
  6 40  1  0  0  0  0
  7 41  1  0  0  0  0
  7 42  1  0  0  0  0
  7 43  1  0  0  0  0
  8 44  1  0  0  0  0
  8 45  1  0  0  0  0
 13 46  1  0  0  0  0
 14 47  1  0  0  0  0
 16 48  1  0  0  0  0
 17 49  1  0  0  0  0
 21 50  1  0  0  0  0
 21 51  1  0  0  0  0
 22 52  1  0  0  0  0
 23 53  1  0  0  0  0
 23 54  1  0  0  0  0
 24 55  1  0  0  0  0
 24 56  1  0  0  0  0
 24 57  1  0  0  0  0
 25 58  1  0  0  0  0
 25 59  1  0  0  0  0
 26 60  1  0  0  0  0
 26 61  1  0  0  0  0
 27 62  1  0  0  0  0
 27 63  1  0  0  0  0
 28 64  1  0  0  0  0
 28 65  1  0  0  0  0
 28 66  1  0  0  0  0
M  END
>  <InChIKey>
RWPICVVBGZBXNA-UHFFFAOYSA-N

>  <UN GHS>
2B

>  <CASRN>
6422-86-2

> <Outcome>
1

>  <Index>
700

>  <StandardizerResult>
Dearomatize (ID: Dearomatize)
Clear Stereo (ID: ClearStereo)
Wedge Clean (ID: WedgeClean)
Mesomerize (ID: Mesomerize)
Tautomerize (ID: Tautomerize)
Aromatize (ID: Aromatize)
Add Explicit Hydrogens (ID: AddExplicitH)
Neutralize (ID: Neutralize)
Clean 2D (ID: Clean2D)

> <knn Distance>


> <CpId>
700

$$$$
702
  Mrv1532301301811342D          

 34 33  0  0  0  0            999 V2000
    3.5211    2.8579    0.0000 N   0  0  0  0  0  0  0  0  0  0  0  0
    4.2355    3.2704    0.0000 C   0  0  0  0  0  0  0  0  0  0  0  0
    4.9500    2.8579    0.0000 C   0  0  0  0  0  0  0  0  0  0  0  0
    5.6645    3.2704    0.0000 C   0  0  0  0  0  0  0  0  0  0  0  0
    6.3789    2.8579    0.0000 N   0  0  0  0  0  0  0  0  0  0  0  0
    7.0934    3.2704    0.0000 C   0  0  0  0  0  0  0  0  0  0  0  0
    7.8079    2.8579    0.0000 C   0  0  0  0  0  0  0  0  0  0  0  0
    8.5224    3.2704    0.0000 N   0  0  0  0  0  0  0  0  0  0  0  0
    9.2368    2.8579    0.0000 C   0  0  0  0  0  0  0  0  0  0  0  0
    9.9513    3.2704    0.0000 C   0  0  0  0  0  0  0  0  0  0  0  0
   10.6658    2.8579    0.0000 C   0  0  0  0  0  0  0  0  0  0  0  0
   11.3802    3.2704    0.0000 N   0  0  0  0  0  0  0  0  0  0  0  0
    2.8066    3.2704    0.0000 H   0  0  0  0  0  0  0  0  0  0  0  0
    3.5211    2.0329    0.0000 H   0  0  0  0  0  0  0  0  0  0  0  0
    4.6058    4.0076    0.0000 H   0  0  0  0  0  0  0  0  0  0  0  0
    3.8653    4.0076    0.0000 H   0  0  0  0  0  0  0  0  0  0  0  0
    4.5797    2.1207    0.0000 H   0  0  0  0  0  0  0  0  0  0  0  0
    5.3203    2.1207    0.0000 H   0  0  0  0  0  0  0  0  0  0  0  0
    6.0347    4.0076    0.0000 H   0  0  0  0  0  0  0  0  0  0  0  0
    5.2942    4.0076    0.0000 H   0  0  0  0  0  0  0  0  0  0  0  0
    6.3789    2.0329    0.0000 H   0  0  0  0  0  0  0  0  0  0  0  0
    7.4637    4.0076    0.0000 H   0  0  0  0  0  0  0  0  0  0  0  0
    6.7232    4.0076    0.0000 H   0  0  0  0  0  0  0  0  0  0  0  0
    7.4376    2.1207    0.0000 H   0  0  0  0  0  0  0  0  0  0  0  0
    8.1781    2.1207    0.0000 H   0  0  0  0  0  0  0  0  0  0  0  0
    8.5224    4.0954    0.0000 H   0  0  0  0  0  0  0  0  0  0  0  0
    8.8666    2.1207    0.0000 H   0  0  0  0  0  0  0  0  0  0  0  0
    9.6071    2.1207    0.0000 H   0  0  0  0  0  0  0  0  0  0  0  0
   10.3216    4.0076    0.0000 H   0  0  0  0  0  0  0  0  0  0  0  0
    9.5810    4.0076    0.0000 H   0  0  0  0  0  0  0  0  0  0  0  0
   10.2955    2.1207    0.0000 H   0  0  0  0  0  0  0  0  0  0  0  0
   11.0360    2.1207    0.0000 H   0  0  0  0  0  0  0  0  0  0  0  0
   12.0947    2.8579    0.0000 H   0  0  0  0  0  0  0  0  0  0  0  0
   11.3802    4.0954    0.0000 H   0  0  0  0  0  0  0  0  0  0  0  0
  1  2  1  0  0  0  0
  2  3  1  0  0  0  0
  3  4  1  0  0  0  0
  4  5  1  0  0  0  0
  5  6  1  0  0  0  0
  6  7  1  0  0  0  0
  7  8  1  0  0  0  0
  8  9  1  0  0  0  0
  9 10  1  0  0  0  0
 10 11  1  0  0  0  0
 11 12  1  0  0  0  0
  1 13  1  0  0  0  0
  1 14  1  0  0  0  0
  2 15  1  0  0  0  0
  2 16  1  0  0  0  0
  3 17  1  0  0  0  0
  3 18  1  0  0  0  0
  4 19  1  0  0  0  0
  4 20  1  0  0  0  0
  5 21  1  0  0  0  0
  6 22  1  0  0  0  0
  6 23  1  0  0  0  0
  7 24  1  0  0  0  0
  7 25  1  0  0  0  0
  8 26  1  0  0  0  0
  9 27  1  0  0  0  0
  9 28  1  0  0  0  0
 10 29  1  0  0  0  0
 10 30  1  0  0  0  0
 11 31  1  0  0  0  0
 11 32  1  0  0  0  0
 12 33  1  0  0  0  0
 12 34  1  0  0  0  0
M  END
>  <InChIKey>
RXFCIXRFAJRBSG-UHFFFAOYSA-N

>  <UN GHS>
1

>  <CASRN>
10563-26-5

> <Outcome>
1

>  <Index>
702

>  <StandardizerResult>
Clear Stereo (ID: ClearStereo)
Wedge Clean (ID: WedgeClean)
Mesomerize (ID: Mesomerize)
Tautomerize (ID: Tautomerize)
Add Explicit Hydrogens (ID: AddExplicitH)
Neutralize (ID: Neutralize)
Clean 2D (ID: Clean2D)

> <knn Distance>


> <CpId>
702

$$$$
704
  Mrv1532301301811342D          

 22 22  0  0  0  0            999 V2000
    2.1434    1.2375    0.0000 C   0  0  0  0  0  0  0  0  0  0  0  0
    1.4289    0.8250    0.0000 N   0  0  0  0  0  0  0  0  0  0  0  0
    1.4289   -0.0000    0.0000 C   0  0  0  0  0  0  0  0  0  0  0  0
    0.7145   -0.4125    0.0000 C   0  0  0  0  0  0  0  0  0  0  0  0
    0.0000   -0.0000    0.0000 N   0  0  0  0  0  0  0  0  0  0  0  0
   -0.7145   -0.4125    0.0000 C   0  0  0  0  0  0  0  0  0  0  0  0
    0.0000    0.8250    0.0000 C   0  0  0  0  0  0  0  0  0  0  0  0
    0.7145    1.2375    0.0000 C   0  0  0  0  0  0  0  0  0  0  0  0
    2.5559    0.5230    0.0000 H   0  0  0  0  0  0  0  0  0  0  0  0
    2.8579    1.6500    0.0000 H   0  0  0  0  0  0  0  0  0  0  0  0
    1.7309    1.9520    0.0000 H   0  0  0  0  0  0  0  0  0  0  0  0
    1.8823   -0.6893    0.0000 H   0  0  0  0  0  0  0  0  0  0  0  0
    2.2526   -0.0480    0.0000 H   0  0  0  0  0  0  0  0  0  0  0  0
    0.3442   -1.1497    0.0000 H   0  0  0  0  0  0  0  0  0  0  0  0
    1.0847   -1.1497    0.0000 H   0  0  0  0  0  0  0  0  0  0  0  0
   -1.1270    0.3020    0.0000 H   0  0  0  0  0  0  0  0  0  0  0  0
   -1.4289   -0.8250    0.0000 H   0  0  0  0  0  0  0  0  0  0  0  0
   -0.3020   -1.1270    0.0000 H   0  0  0  0  0  0  0  0  0  0  0  0
   -0.4533    1.5143    0.0000 H   0  0  0  0  0  0  0  0  0  0  0  0
   -0.8236    0.8730    0.0000 H   0  0  0  0  0  0  0  0  0  0  0  0
    1.0847    1.9747    0.0000 H   0  0  0  0  0  0  0  0  0  0  0  0
    0.3442    1.9747    0.0000 H   0  0  0  0  0  0  0  0  0  0  0  0
  1  2  1  0  0  0  0
  2  3  1  0  0  0  0
  3  4  1  0  0  0  0
  4  5  1  0  0  0  0
  5  6  1  0  0  0  0
  5  7  1  0  0  0  0
  7  8  1  0  0  0  0
  2  8  1  0  0  0  0
  1  9  1  0  0  0  0
  1 10  1  0  0  0  0
  1 11  1  0  0  0  0
  3 12  1  0  0  0  0
  3 13  1  0  0  0  0
  4 14  1  0  0  0  0
  4 15  1  0  0  0  0
  6 16  1  0  0  0  0
  6 17  1  0  0  0  0
  6 18  1  0  0  0  0
  7 19  1  0  0  0  0
  7 20  1  0  0  0  0
  8 21  1  0  0  0  0
  8 22  1  0  0  0  0
M  END
>  <InChIKey>
RXYPXQSKLGGKOL-UHFFFAOYSA-N

>  <UN GHS>
1

>  <CASRN>
106-58-1

> <Outcome>
1

>  <Index>
704

>  <StandardizerResult>
Clear Stereo (ID: ClearStereo)
Wedge Clean (ID: WedgeClean)
Mesomerize (ID: Mesomerize)
Tautomerize (ID: Tautomerize)
Add Explicit Hydrogens (ID: AddExplicitH)
Neutralize (ID: Neutralize)
Clean 2D (ID: Clean2D)

> <knn Distance>


> <CpId>
704

$$$$
709
  Mrv1532301301811342D          

 10  9  0  0  0  0            999 V2000
    0.8232    1.4289    0.0000 C   0  0  0  0  0  0  0  0  0  0  0  0
    1.2357    0.7145    0.0000 C   0  0  0  0  0  0  0  0  0  0  0  0
    0.8232   -0.0000    0.0000 C   0  0  0  0  0  0  0  0  0  0  0  0
    1.2357   -0.7145    0.0000 Cl  0  0  0  0  0  0  0  0  0  0  0  0
   -0.0018   -0.0000    0.0000 O   0  0  0  0  0  0  0  0  0  0  0  0
    1.5377    1.8414    0.0000 H   0  0  0  0  0  0  0  0  0  0  0  0
    0.4107    2.1434    0.0000 H   0  0  0  0  0  0  0  0  0  0  0  0
    0.1088    1.0164    0.0000 H   0  0  0  0  0  0  0  0  0  0  0  0
    1.9730    0.3442    0.0000 H   0  0  0  0  0  0  0  0  0  0  0  0
    1.9730    1.0847    0.0000 H   0  0  0  0  0  0  0  0  0  0  0  0
  1  2  1  0  0  0  0
  2  3  1  0  0  0  0
  3  4  1  0  0  0  0
  3  5  2  0  0  0  0
  1  6  1  0  0  0  0
  1  7  1  0  0  0  0
  1  8  1  0  0  0  0
  2  9  1  0  0  0  0
  2 10  1  0  0  0  0
M  END
>  <InChIKey>
RZWZRACFZGVKFM-UHFFFAOYSA-N

>  <UN GHS>
1

>  <CASRN>
79-03-8

> <Outcome>
1

>  <Index>
709

>  <StandardizerResult>
Clear Stereo (ID: ClearStereo)
Wedge Clean (ID: WedgeClean)
Mesomerize (ID: Mesomerize)
Tautomerize (ID: Tautomerize)
Add Explicit Hydrogens (ID: AddExplicitH)
Neutralize (ID: Neutralize)
Clean 2D (ID: Clean2D)

> <knn Distance>


> <CpId>
709

$$$$
714
  Mrv1532301301811342D          

 33 32  0  0  0  0            999 V2000
    3.5211    2.8574    0.0000 C   0  0  0  0  0  0  0  0  0  0  0  0
    4.2355    3.2699    0.0000 C   0  0  0  0  0  0  0  0  0  0  0  0
    4.9500    2.8574    0.0000 C   0  0  0  0  0  0  0  0  0  0  0  0
    5.6645    3.2699    0.0000 C   0  0  0  0  0  0  0  0  0  0  0  0
    6.3789    2.8574    0.0000 C   0  0  0  0  0  0  0  0  0  0  0  0
    7.0934    3.2699    0.0000 C   0  0  0  0  0  0  0  0  0  0  0  0
    7.8079    2.8574    0.0000 C   0  0  0  0  0  0  0  0  0  0  0  0
    8.5224    3.2699    0.0000 C   0  0  0  0  0  0  0  0  0  0  0  0
    8.5224    4.0949    0.0000 O   0  0  0  0  0  0  0  0  0  0  0  0
    9.2368    2.8574    0.0000 N   0  0  0  0  0  0  0  0  0  0  0  0
    9.9513    3.2699    0.0000 C   0  0  0  0  0  0  0  0  0  0  0  0
   10.6658    2.8574    0.0000 C   0  0  0  0  0  0  0  0  0  0  0  0
   11.3802    3.2699    0.0000 O   0  0  0  0  0  0  0  0  0  0  0  0
   10.6658    2.0324    0.0000 O   0  0  0  0  0  0  0  0  0  0  0  0
    3.1086    3.5718    0.0000 H   0  0  0  0  0  0  0  0  0  0  0  0
    2.8066    2.4449    0.0000 H   0  0  0  0  0  0  0  0  0  0  0  0
    3.9336    2.1429    0.0000 H   0  0  0  0  0  0  0  0  0  0  0  0
    4.6058    4.0071    0.0000 H   0  0  0  0  0  0  0  0  0  0  0  0
    3.8653    4.0071    0.0000 H   0  0  0  0  0  0  0  0  0  0  0  0
    4.5797    2.1201    0.0000 H   0  0  0  0  0  0  0  0  0  0  0  0
    5.3203    2.1201    0.0000 H   0  0  0  0  0  0  0  0  0  0  0  0
    6.0347    4.0071    0.0000 H   0  0  0  0  0  0  0  0  0  0  0  0
    5.2942    4.0071    0.0000 H   0  0  0  0  0  0  0  0  0  0  0  0
    6.0087    2.1201    0.0000 H   0  0  0  0  0  0  0  0  0  0  0  0
    6.7492    2.1201    0.0000 H   0  0  0  0  0  0  0  0  0  0  0  0
    7.4637    4.0071    0.0000 H   0  0  0  0  0  0  0  0  0  0  0  0
    6.7232    4.0071    0.0000 H   0  0  0  0  0  0  0  0  0  0  0  0
    7.4376    2.1201    0.0000 H   0  0  0  0  0  0  0  0  0  0  0  0
    8.1781    2.1201    0.0000 H   0  0  0  0  0  0  0  0  0  0  0  0
    9.2368    2.0324    0.0000 H   0  0  0  0  0  0  0  0  0  0  0  0
   10.3216    4.0071    0.0000 H   0  0  0  0  0  0  0  0  0  0  0  0
    9.5810    4.0071    0.0000 H   0  0  0  0  0  0  0  0  0  0  0  0
   12.0947    2.8574    0.0000 H   0  0  0  0  0  0  0  0  0  0  0  0
  1  2  1  0  0  0  0
  2  3  1  0  0  0  0
  3  4  1  0  0  0  0
  4  5  1  0  0  0  0
  5  6  1  0  0  0  0
  6  7  1  0  0  0  0
  7  8  1  0  0  0  0
  8  9  2  0  0  0  0
  8 10  1  0  0  0  0
 10 11  1  0  0  0  0
 11 12  1  0  0  0  0
 12 13  1  0  0  0  0
 12 14  2  0  0  0  0
  1 15  1  0  0  0  0
  1 16  1  0  0  0  0
  1 17  1  0  0  0  0
  2 18  1  0  0  0  0
  2 19  1  0  0  0  0
  3 20  1  0  0  0  0
  3 21  1  0  0  0  0
  4 22  1  0  0  0  0
  4 23  1  0  0  0  0
  5 24  1  0  0  0  0
  5 25  1  0  0  0  0
  6 26  1  0  0  0  0
  6 27  1  0  0  0  0
  7 28  1  0  0  0  0
  7 29  1  0  0  0  0
 10 30  1  0  0  0  0
 11 31  1  0  0  0  0
 11 32  1  0  0  0  0
 13 33  1  0  0  0  0
M  END
>  <InChIKey>
SAVLIIGUQOSOEP-UHFFFAOYSA-N

>  <UN GHS>
2A

>  <CASRN>
14246-53-8

> <Outcome>
1

>  <Index>
714

>  <StandardizerResult>
Clear Stereo (ID: ClearStereo)
Wedge Clean (ID: WedgeClean)
Mesomerize (ID: Mesomerize)
Tautomerize (ID: Tautomerize)
Add Explicit Hydrogens (ID: AddExplicitH)
Neutralize (ID: Neutralize)
Clean 2D (ID: Clean2D)

> <knn Distance>


> <CpId>
714

$$$$
718
  Mrv1532301301811342D          

 23 25  0  0  0  0            999 V2000
    2.5232    1.5106    0.0000 C   0  0  0  0  0  0  0  0  0  0  0  0
    1.6982    1.5106    0.0000 C   0  0  0  0  0  0  0  0  0  0  0  0
    1.4920    0.6856    0.0000 C   0  0  0  0  0  0  0  0  0  0  0  0
    2.2065    1.0981    0.0000 C   0  0  0  0  0  0  0  0  0  0  0  0
    2.2065    1.9231    0.0000 C   0  0  0  0  0  0  0  0  0  0  0  0
    1.4920    2.3356    0.0000 C   0  0  0  0  0  0  0  0  0  0  0  0
    0.7775    1.9231    0.0000 C   0  0  0  0  0  0  0  0  0  0  0  0
    0.7775    1.0981    0.0000 C   0  0  0  0  0  0  0  0  0  0  0  0
   -0.0071    0.8431    0.0000 C   0  0  0  0  0  0  0  0  0  0  0  0
   -0.2621    0.0585    0.0000 O   0  0  0  0  0  0  0  0  0  0  0  0
   -0.4920    1.5106    0.0000 O   0  0  0  0  0  0  0  0  0  0  0  0
   -0.0071    2.1780    0.0000 C   0  0  0  0  0  0  0  0  0  0  0  0
   -0.2621    2.9626    0.0000 O   0  0  0  0  0  0  0  0  0  0  0  0
    2.8880    0.7706    0.0000 H   0  0  0  0  0  0  0  0  0  0  0  0
    3.3482    1.5106    0.0000 H   0  0  0  0  0  0  0  0  0  0  0  0
    2.8880    2.2506    0.0000 H   0  0  0  0  0  0  0  0  0  0  0  0
    0.8732    1.5106    0.0000 H   0  0  0  0  0  0  0  0  0  0  0  0
    1.4920   -0.1394    0.0000 H   0  0  0  0  0  0  0  0  0  0  0  0
    2.2376    0.2737    0.0000 H   0  0  0  0  0  0  0  0  0  0  0  0
    2.2376    2.7475    0.0000 H   0  0  0  0  0  0  0  0  0  0  0  0
    1.0863    3.0539    0.0000 H   0  0  0  0  0  0  0  0  0  0  0  0
    0.6913    2.7435    0.0000 H   0  0  0  0  0  0  0  0  0  0  0  0
    0.6913    0.2776    0.0000 H   0  0  0  0  0  0  0  0  0  0  0  0
  1  2  1  0  0  0  0
  2  3  1  0  0  0  0
  3  4  1  0  0  0  0
  4  5  2  0  0  0  0
  5  6  1  0  0  0  0
  2  6  1  0  0  0  0
  6  7  1  0  0  0  0
  7  8  1  0  0  0  0
  3  8  1  0  0  0  0
  8  9  1  0  0  0  0
  9 10  2  0  0  0  0
  9 11  1  0  0  0  0
 11 12  1  0  0  0  0
  7 12  1  0  0  0  0
 12 13  2  0  0  0  0
  1 14  1  0  0  0  0
  1 15  1  0  0  0  0
  1 16  1  0  0  0  0
  2 17  1  0  0  0  0
  3 18  1  0  0  0  0
  4 19  1  0  0  0  0
  5 20  1  0  0  0  0
  6 21  1  0  0  0  0
  7 22  1  0  0  0  0
  8 23  1  0  0  0  0
M  END
>  <InChIKey>
SBKPSHZVULRXED-ZXVYDBTHSA-N

>  <UN GHS>
1

>  <CASRN>
25134-21-8

> <Outcome>
1

>  <Index>
718

>  <StandardizerResult>
Clear Stereo (ID: ClearStereo)
Wedge Clean (ID: WedgeClean)
Mesomerize (ID: Mesomerize)
Tautomerize (ID: Tautomerize)
Add Explicit Hydrogens (ID: AddExplicitH)
Neutralize (ID: Neutralize)
Clean 2D (ID: Clean2D)

> <knn Distance>


> <CpId>
718

$$$$
722
  Mrv1532301301811342D          

 34 33  0  0  0  0            999 V2000
   -0.6402   -4.1628    0.0000 C   0  0  0  0  0  0  0  0  0  0  0  0
   -0.6402   -3.3378    0.0000 C   0  0  0  0  0  0  0  0  0  0  0  0
    0.1848   -3.3378    0.0000 C   0  0  0  0  0  0  0  0  0  0  0  0
   -1.4652   -3.3378    0.0000 C   0  0  0  0  0  0  0  0  0  0  0  0
   -0.6402   -2.5128    0.0000 C   0  0  0  0  0  0  0  0  0  0  0  0
    0.0743   -2.1003    0.0000 S   0  0  0  0  0  0  0  0  0  0  0  0
    0.0743   -1.2753    0.0000 S   0  0  0  0  0  0  0  0  0  0  0  0
    0.7887   -0.8628    0.0000 C   0  0  0  0  0  0  0  0  0  0  0  0
    0.7887   -0.0378    0.0000 C   0  0  0  0  0  0  0  0  0  0  0  0
    0.7887    0.7872    0.0000 C   0  0  0  0  0  0  0  0  0  0  0  0
    1.6137   -0.0378    0.0000 C   0  0  0  0  0  0  0  0  0  0  0  0
   -0.0363   -0.0378    0.0000 C   0  0  0  0  0  0  0  0  0  0  0  0
   -1.4652   -4.1628    0.0000 H   0  0  0  0  0  0  0  0  0  0  0  0
   -0.6402   -4.9878    0.0000 H   0  0  0  0  0  0  0  0  0  0  0  0
    0.1848   -4.1628    0.0000 H   0  0  0  0  0  0  0  0  0  0  0  0
    0.9470   -3.6535    0.0000 H   0  0  0  0  0  0  0  0  0  0  0  0
    0.7681   -2.7544    0.0000 H   0  0  0  0  0  0  0  0  0  0  0  0
   -0.1309   -2.5756    0.0000 H   0  0  0  0  0  0  0  0  0  0  0  0
   -1.1495   -2.5756    0.0000 H   0  0  0  0  0  0  0  0  0  0  0  0
   -2.0486   -2.7544    0.0000 H   0  0  0  0  0  0  0  0  0  0  0  0
   -2.2274   -3.6535    0.0000 H   0  0  0  0  0  0  0  0  0  0  0  0
   -0.5303   -1.6951    0.0000 H   0  0  0  0  0  0  0  0  0  0  0  0
   -1.2204   -1.9262    0.0000 H   0  0  0  0  0  0  0  0  0  0  0  0
    1.2421   -1.5521    0.0000 H   0  0  0  0  0  0  0  0  0  0  0  0
    1.6123   -0.9107    0.0000 H   0  0  0  0  0  0  0  0  0  0  0  0
    1.6137    0.7872    0.0000 H   0  0  0  0  0  0  0  0  0  0  0  0
    0.7887    1.6122    0.0000 H   0  0  0  0  0  0  0  0  0  0  0  0
   -0.0363    0.7872    0.0000 H   0  0  0  0  0  0  0  0  0  0  0  0
    2.1964   -0.6218    0.0000 H   0  0  0  0  0  0  0  0  0  0  0  0
    2.4387   -0.0384    0.0000 H   0  0  0  0  0  0  0  0  0  0  0  0
    2.1973    0.5454    0.0000 H   0  0  0  0  0  0  0  0  0  0  0  0
   -0.7985    0.2779    0.0000 H   0  0  0  0  0  0  0  0  0  0  0  0
   -0.6196   -0.6211    0.0000 H   0  0  0  0  0  0  0  0  0  0  0  0
    0.2794   -0.8000    0.0000 H   0  0  0  0  0  0  0  0  0  0  0  0
  1  2  1  0  0  0  0
  2  3  1  0  0  0  0
  2  4  1  0  0  0  0
  2  5  1  0  0  0  0
  5  6  1  0  0  0  0
  6  7  1  0  0  0  0
  7  8  1  0  0  0  0
  8  9  1  0  0  0  0
  9 10  1  0  0  0  0
  9 11  1  0  0  0  0
  9 12  1  0  0  0  0
  1 13  1  0  0  0  0
  1 14  1  0  0  0  0
  1 15  1  0  0  0  0
  3 16  1  0  0  0  0
  3 17  1  0  0  0  0
  3 18  1  0  0  0  0
  4 19  1  0  0  0  0
  4 20  1  0  0  0  0
  4 21  1  0  0  0  0
  5 22  1  0  0  0  0
  5 23  1  0  0  0  0
  8 24  1  0  0  0  0
  8 25  1  0  0  0  0
 10 26  1  0  0  0  0
 10 27  1  0  0  0  0
 10 28  1  0  0  0  0
 11 29  1  0  0  0  0
 11 30  1  0  0  0  0
 11 31  1  0  0  0  0
 12 32  1  0  0  0  0
 12 33  1  0  0  0  0
 12 34  1  0  0  0  0
M  END
>  <InChIKey>
SEZZRXXPRCBINH-UHFFFAOYSA-N

>  <UN GHS>
2B

>  <CASRN>
68937-96-2

> <Outcome>
1

>  <Index>
722

>  <StandardizerResult>
Clear Stereo (ID: ClearStereo)
Wedge Clean (ID: WedgeClean)
Mesomerize (ID: Mesomerize)
Tautomerize (ID: Tautomerize)
Add Explicit Hydrogens (ID: AddExplicitH)
Neutralize (ID: Neutralize)
Clean 2D (ID: Clean2D)

> <knn Distance>


> <CpId>
722

$$$$
724
  Mrv1532301301811342D          

 52 51  0  0  0  0            999 V2000
    5.9968    4.2816    0.0000 C   0  0  0  0  0  0  0  0  0  0  0  0
    6.7113    4.6941    0.0000 C   0  0  0  0  0  0  0  0  0  0  0  0
    7.4258    4.2816    0.0000 C   0  0  0  0  0  0  0  0  0  0  0  0
    8.1403    4.6941    0.0000 C   0  0  0  0  0  0  0  0  0  0  0  0
    8.8547    4.2816    0.0000 C   0  0  0  0  0  0  0  0  0  0  0  0
    9.5692    4.6941    0.0000 C   0  0  0  0  0  0  0  0  0  0  0  0
   10.2837    4.2816    0.0000 C   0  0  0  0  0  0  0  0  0  0  0  0
   10.9981    4.6941    0.0000 C   0  0  0  0  0  0  0  0  0  0  0  0
   11.7126    4.2816    0.0000 C   0  0  0  0  0  0  0  0  0  0  0  0
   12.4271    4.6941    0.0000 C   0  0  0  0  0  0  0  0  0  0  0  0
   13.1415    4.2816    0.0000 C   0  0  0  0  0  0  0  0  0  0  0  0
   13.8560    4.6941    0.0000 C   0  0  0  0  0  0  0  0  0  0  0  0
   14.5705    4.2816    0.0000 C   0  0  0  0  0  0  0  0  0  0  0  0
   15.2850    4.6941    0.0000 C   0  0  0  0  0  0  0  0  0  0  0  0
   15.9994    4.2816    0.0000 N   0  0  0  0  0  0  0  0  0  0  0  0
   16.7139    4.6941    0.0000 C   0  0  0  0  0  0  0  0  0  0  0  0
   15.9994    3.4566    0.0000 C   0  0  0  0  0  0  0  0  0  0  0  0
    5.5843    4.9960    0.0000 H   0  0  0  0  0  0  0  0  0  0  0  0
    5.2824    3.8691    0.0000 H   0  0  0  0  0  0  0  0  0  0  0  0
    6.4093    3.5671    0.0000 H   0  0  0  0  0  0  0  0  0  0  0  0
    7.0816    5.4313    0.0000 H   0  0  0  0  0  0  0  0  0  0  0  0
    6.3411    5.4313    0.0000 H   0  0  0  0  0  0  0  0  0  0  0  0
    7.0555    3.5443    0.0000 H   0  0  0  0  0  0  0  0  0  0  0  0
    7.7960    3.5443    0.0000 H   0  0  0  0  0  0  0  0  0  0  0  0
    8.5105    5.4313    0.0000 H   0  0  0  0  0  0  0  0  0  0  0  0
    7.7700    5.4313    0.0000 H   0  0  0  0  0  0  0  0  0  0  0  0
    8.4845    3.5443    0.0000 H   0  0  0  0  0  0  0  0  0  0  0  0
    9.2250    3.5443    0.0000 H   0  0  0  0  0  0  0  0  0  0  0  0
    9.9395    5.4313    0.0000 H   0  0  0  0  0  0  0  0  0  0  0  0
    9.1989    5.4313    0.0000 H   0  0  0  0  0  0  0  0  0  0  0  0
    9.9134    3.5443    0.0000 H   0  0  0  0  0  0  0  0  0  0  0  0
   10.6539    3.5443    0.0000 H   0  0  0  0  0  0  0  0  0  0  0  0
   11.3684    5.4313    0.0000 H   0  0  0  0  0  0  0  0  0  0  0  0
   10.6279    5.4313    0.0000 H   0  0  0  0  0  0  0  0  0  0  0  0
   11.3423    3.5443    0.0000 H   0  0  0  0  0  0  0  0  0  0  0  0
   12.0829    3.5443    0.0000 H   0  0  0  0  0  0  0  0  0  0  0  0
   12.7973    5.4313    0.0000 H   0  0  0  0  0  0  0  0  0  0  0  0
   12.0568    5.4313    0.0000 H   0  0  0  0  0  0  0  0  0  0  0  0
   12.7713    3.5443    0.0000 H   0  0  0  0  0  0  0  0  0  0  0  0
   13.5118    3.5443    0.0000 H   0  0  0  0  0  0  0  0  0  0  0  0
   14.2263    5.4313    0.0000 H   0  0  0  0  0  0  0  0  0  0  0  0
   13.4858    5.4313    0.0000 H   0  0  0  0  0  0  0  0  0  0  0  0
   14.2002    3.5443    0.0000 H   0  0  0  0  0  0  0  0  0  0  0  0
   14.9408    3.5443    0.0000 H   0  0  0  0  0  0  0  0  0  0  0  0
   15.6552    5.4313    0.0000 H   0  0  0  0  0  0  0  0  0  0  0  0
   14.9147    5.4313    0.0000 H   0  0  0  0  0  0  0  0  0  0  0  0
   17.1264    3.9796    0.0000 H   0  0  0  0  0  0  0  0  0  0  0  0
   17.4284    5.1066    0.0000 H   0  0  0  0  0  0  0  0  0  0  0  0
   16.3014    5.4085    0.0000 H   0  0  0  0  0  0  0  0  0  0  0  0
   15.1744    3.4566    0.0000 H   0  0  0  0  0  0  0  0  0  0  0  0
   15.9994    2.6316    0.0000 H   0  0  0  0  0  0  0  0  0  0  0  0
   16.8244    3.4566    0.0000 H   0  0  0  0  0  0  0  0  0  0  0  0
  1  2  1  0  0  0  0
  2  3  1  0  0  0  0
  3  4  1  0  0  0  0
  4  5  1  0  0  0  0
  5  6  1  0  0  0  0
  6  7  1  0  0  0  0
  7  8  1  0  0  0  0
  8  9  1  0  0  0  0
  9 10  1  0  0  0  0
 10 11  1  0  0  0  0
 11 12  1  0  0  0  0
 12 13  1  0  0  0  0
 13 14  1  0  0  0  0
 14 15  1  0  0  0  0
 15 16  1  0  0  0  0
 15 17  1  0  0  0  0
  1 18  1  0  0  0  0
  1 19  1  0  0  0  0
  1 20  1  0  0  0  0
  2 21  1  0  0  0  0
  2 22  1  0  0  0  0
  3 23  1  0  0  0  0
  3 24  1  0  0  0  0
  4 25  1  0  0  0  0
  4 26  1  0  0  0  0
  5 27  1  0  0  0  0
  5 28  1  0  0  0  0
  6 29  1  0  0  0  0
  6 30  1  0  0  0  0
  7 31  1  0  0  0  0
  7 32  1  0  0  0  0
  8 33  1  0  0  0  0
  8 34  1  0  0  0  0
  9 35  1  0  0  0  0
  9 36  1  0  0  0  0
 10 37  1  0  0  0  0
 10 38  1  0  0  0  0
 11 39  1  0  0  0  0
 11 40  1  0  0  0  0
 12 41  1  0  0  0  0
 12 42  1  0  0  0  0
 13 43  1  0  0  0  0
 13 44  1  0  0  0  0
 14 45  1  0  0  0  0
 14 46  1  0  0  0  0
 16 47  1  0  0  0  0
 16 48  1  0  0  0  0
 16 49  1  0  0  0  0
 17 50  1  0  0  0  0
 17 51  1  0  0  0  0
 17 52  1  0  0  0  0
M  END
>  <InChIKey>
SFBHPFQSSDCYSL-UHFFFAOYSA-N

>  <UN GHS>
1

>  <CASRN>
112-75-4

> <Outcome>
1

>  <Index>
724

>  <StandardizerResult>
Clear Stereo (ID: ClearStereo)
Wedge Clean (ID: WedgeClean)
Mesomerize (ID: Mesomerize)
Tautomerize (ID: Tautomerize)
Add Explicit Hydrogens (ID: AddExplicitH)
Neutralize (ID: Neutralize)
Clean 2D (ID: Clean2D)

> <knn Distance>


> <CpId>
724

$$$$
726
  Mrv1532301301811342D          

 69 72  0  0  0  0            999 V2000
   -0.0073   -6.5503    0.0000 O   0  0  0  0  0  0  0  0  0  0  0  0
   -0.7218   -6.1378    0.0000 C   0  0  0  0  0  0  0  0  0  0  0  0
   -1.4362   -6.5503    0.0000 N   0  0  0  0  0  0  0  0  0  0  0  0
   -1.4362   -7.3753    0.0000 C   0  0  0  0  0  0  0  0  0  0  0  0
   -0.7218   -7.7878    0.0000 C   0  0  0  0  0  0  0  0  0  0  0  0
   -0.7218   -8.6128    0.0000 C   0  0  0  0  0  0  0  0  0  0  0  0
   -1.4362   -9.0253    0.0000 C   0  0  0  0  0  0  0  0  0  0  0  0
   -2.1507   -8.6128    0.0000 C   0  0  0  0  0  0  0  0  0  0  0  0
   -2.1507   -7.7878    0.0000 C   0  0  0  0  0  0  0  0  0  0  0  0
   -0.7218   -5.3128    0.0000 N   0  0  0  0  0  0  0  0  0  0  0  0
   -0.0073   -4.9003    0.0000 C   0  0  0  0  0  0  0  0  0  0  0  0
   -0.0073   -4.0753    0.0000 C   0  0  0  0  0  0  0  0  0  0  0  0
    0.7072   -3.6628    0.0000 C   0  0  0  0  0  0  0  0  0  0  0  0
    1.4216   -4.0753    0.0000 C   0  0  0  0  0  0  0  0  0  0  0  0
    2.1361   -3.6628    0.0000 C   0  0  0  0  0  0  0  0  0  0  0  0
    2.8506   -4.0753    0.0000 C   0  0  0  0  0  0  0  0  0  0  0  0
    3.5650   -3.6628    0.0000 C   0  0  0  0  0  0  0  0  0  0  0  0
    4.2795   -4.0753    0.0000 C   0  0  0  0  0  0  0  0  0  0  0  0
    4.2795   -4.9003    0.0000 C   0  0  0  0  0  0  0  0  0  0  0  0
    4.9940   -5.3128    0.0000 N   0  0  0  0  0  0  0  0  0  0  0  0
    4.9940   -6.1378    0.0000 C   0  0  0  0  0  0  0  0  0  0  0  0
    4.2795   -6.5503    0.0000 O   0  0  0  0  0  0  0  0  0  0  0  0
    5.7085   -6.5503    0.0000 N   0  0  0  0  0  0  0  0  0  0  0  0
    6.4229   -6.1378    0.0000 C   0  0  0  0  0  0  0  0  0  0  0  0
    6.4229   -5.3128    0.0000 C   0  0  0  0  0  0  0  0  0  0  0  0
    7.1374   -4.9003    0.0000 C   0  0  0  0  0  0  0  0  0  0  0  0
    7.8519   -5.3128    0.0000 C   0  0  0  0  0  0  0  0  0  0  0  0
    7.8519   -6.1378    0.0000 C   0  0  0  0  0  0  0  0  0  0  0  0
    7.1374   -6.5503    0.0000 C   0  0  0  0  0  0  0  0  0  0  0  0
    3.5650   -5.3128    0.0000 C   0  0  0  0  0  0  0  0  0  0  0  0
    2.8506   -4.9003    0.0000 C   0  0  0  0  0  0  0  0  0  0  0  0
    1.4216   -4.9003    0.0000 C   0  0  0  0  0  0  0  0  0  0  0  0
    0.7072   -5.3128    0.0000 C   0  0  0  0  0  0  0  0  0  0  0  0
   -2.1507   -6.1378    0.0000 H   0  0  0  0  0  0  0  0  0  0  0  0
   -2.1507   -6.9628    0.0000 H   0  0  0  0  0  0  0  0  0  0  0  0
    0.1018   -7.7398    0.0000 H   0  0  0  0  0  0  0  0  0  0  0  0
   -0.2684   -7.0985    0.0000 H   0  0  0  0  0  0  0  0  0  0  0  0
   -0.2684   -9.3021    0.0000 H   0  0  0  0  0  0  0  0  0  0  0  0
    0.1018   -8.6608    0.0000 H   0  0  0  0  0  0  0  0  0  0  0  0
   -1.8065   -9.7625    0.0000 H   0  0  0  0  0  0  0  0  0  0  0  0
   -1.0660   -9.7625    0.0000 H   0  0  0  0  0  0  0  0  0  0  0  0
   -2.9743   -8.6608    0.0000 H   0  0  0  0  0  0  0  0  0  0  0  0
   -2.6041   -9.3021    0.0000 H   0  0  0  0  0  0  0  0  0  0  0  0
   -2.9260   -7.5056    0.0000 H   0  0  0  0  0  0  0  0  0  0  0  0
   -2.9260   -8.0700    0.0000 H   0  0  0  0  0  0  0  0  0  0  0  0
   -1.4362   -4.9003    0.0000 H   0  0  0  0  0  0  0  0  0  0  0  0
   -0.7218   -3.6628    0.0000 H   0  0  0  0  0  0  0  0  0  0  0  0
    0.7072   -2.8378    0.0000 H   0  0  0  0  0  0  0  0  0  0  0  0
    2.5064   -2.9256    0.0000 H   0  0  0  0  0  0  0  0  0  0  0  0
    1.7658   -2.9256    0.0000 H   0  0  0  0  0  0  0  0  0  0  0  0
    3.5650   -2.8378    0.0000 H   0  0  0  0  0  0  0  0  0  0  0  0
    4.9940   -3.6628    0.0000 H   0  0  0  0  0  0  0  0  0  0  0  0
    5.7085   -4.9003    0.0000 H   0  0  0  0  0  0  0  0  0  0  0  0
    5.7085   -7.3753    0.0000 H   0  0  0  0  0  0  0  0  0  0  0  0
    6.4229   -6.9628    0.0000 H   0  0  0  0  0  0  0  0  0  0  0  0
    5.7085   -5.7253    0.0000 H   0  0  0  0  0  0  0  0  0  0  0  0
    6.4229   -4.4878    0.0000 H   0  0  0  0  0  0  0  0  0  0  0  0
    7.7694   -4.3700    0.0000 H   0  0  0  0  0  0  0  0  0  0  0  0
    7.2807   -4.0878    0.0000 H   0  0  0  0  0  0  0  0  0  0  0  0
    8.6362   -5.5685    0.0000 H   0  0  0  0  0  0  0  0  0  0  0  0
    8.6110   -4.9897    0.0000 H   0  0  0  0  0  0  0  0  0  0  0  0
    8.0279   -6.9438    0.0000 H   0  0  0  0  0  0  0  0  0  0  0  0
    8.5163   -6.6268    0.0000 H   0  0  0  0  0  0  0  0  0  0  0  0
    7.2807   -7.3628    0.0000 H   0  0  0  0  0  0  0  0  0  0  0  0
    7.7694   -7.0806    0.0000 H   0  0  0  0  0  0  0  0  0  0  0  0
    3.5650   -6.1378    0.0000 H   0  0  0  0  0  0  0  0  0  0  0  0
    2.1361   -5.3128    0.0000 H   0  0  0  0  0  0  0  0  0  0  0  0
    1.4216   -5.7253    0.0000 H   0  0  0  0  0  0  0  0  0  0  0  0
    0.2947   -6.0273    0.0000 H   0  0  0  0  0  0  0  0  0  0  0  0
  1  2  2  0  0  0  0
  2  3  1  0  0  0  0
  3  4  1  0  0  0  0
  4  5  1  0  0  0  0
  5  6  1  0  0  0  0
  6  7  1  0  0  0  0
  7  8  1  0  0  0  0
  8  9  1  0  0  0  0
  4  9  1  0  0  0  0
  2 10  1  0  0  0  0
 10 11  1  0  0  0  0
 11 12  4  0  0  0  0
 12 13  4  0  0  0  0
 13 14  4  0  0  0  0
 14 15  1  0  0  0  0
 15 16  1  0  0  0  0
 16 17  4  0  0  0  0
 17 18  4  0  0  0  0
 18 19  4  0  0  0  0
 19 20  1  0  0  0  0
 20 21  1  0  0  0  0
 21 22  2  0  0  0  0
 21 23  1  0  0  0  0
 23 24  1  0  0  0  0
 24 25  1  0  0  0  0
 25 26  1  0  0  0  0
 26 27  1  0  0  0  0
 27 28  1  0  0  0  0
 28 29  1  0  0  0  0
 24 29  1  0  0  0  0
 19 30  4  0  0  0  0
 30 31  4  0  0  0  0
 16 31  4  0  0  0  0
 14 32  4  0  0  0  0
 32 33  4  0  0  0  0
 11 33  4  0  0  0  0
  3 34  1  0  0  0  0
  4 35  1  0  0  0  0
  5 36  1  0  0  0  0
  5 37  1  0  0  0  0
  6 38  1  0  0  0  0
  6 39  1  0  0  0  0
  7 40  1  0  0  0  0
  7 41  1  0  0  0  0
  8 42  1  0  0  0  0
  8 43  1  0  0  0  0
  9 44  1  0  0  0  0
  9 45  1  0  0  0  0
 10 46  1  0  0  0  0
 12 47  1  0  0  0  0
 13 48  1  0  0  0  0
 15 49  1  0  0  0  0
 15 50  1  0  0  0  0
 17 51  1  0  0  0  0
 18 52  1  0  0  0  0
 20 53  1  0  0  0  0
 23 54  1  0  0  0  0
 24 55  1  0  0  0  0
 25 56  1  0  0  0  0
 25 57  1  0  0  0  0
 26 58  1  0  0  0  0
 26 59  1  0  0  0  0
 27 60  1  0  0  0  0
 27 61  1  0  0  0  0
 28 62  1  0  0  0  0
 28 63  1  0  0  0  0
 29 64  1  0  0  0  0
 29 65  1  0  0  0  0
 30 66  1  0  0  0  0
 31 67  1  0  0  0  0
 32 68  1  0  0  0  0
 33 69  1  0  0  0  0
M  END
>  <InChIKey>
SGXPOLBQSKXTKY-UHFFFAOYSA-N

>  <UN GHS>
2B

>  <CASRN>
58890-25-8

> <Outcome>
1

>  <Index>
726

>  <StandardizerResult>
Dearomatize (ID: Dearomatize)
Clear Stereo (ID: ClearStereo)
Wedge Clean (ID: WedgeClean)
Mesomerize (ID: Mesomerize)
Tautomerize (ID: Tautomerize)
Aromatize (ID: Aromatize)
Add Explicit Hydrogens (ID: AddExplicitH)
Neutralize (ID: Neutralize)
Clean 2D (ID: Clean2D)

> <knn Distance>


> <CpId>
726

$$$$
727
  Mrv1532301301811342D          

 32 33  0  0  0  0            999 V2000
    7.3954    2.1434    0.0000 C   0  0  0  0  0  0  0  0  0  0  0  0
    6.6809    2.5559    0.0000 C   0  0  0  0  0  0  0  0  0  0  0  0
    5.9664    2.1434    0.0000 C   0  0  0  0  0  0  0  0  0  0  0  0
    5.2520    2.5559    0.0000 O   0  0  0  0  0  0  0  0  0  0  0  0
    4.5375    2.1434    0.0000 C   0  0  0  0  0  0  0  0  0  0  0  0
    3.8230    2.5559    0.0000 C   0  0  0  0  0  0  0  0  0  0  0  0
    2.9980    2.5559    0.0000 C   0  0  0  0  0  0  0  0  0  0  0  0
    3.4105    3.2704    0.0000 O   0  0  0  0  0  0  0  0  0  0  0  0
    8.1099    2.5559    0.0000 C   0  0  0  0  0  0  0  0  0  0  0  0
    8.8243    2.1434    0.0000 O   0  0  0  0  0  0  0  0  0  0  0  0
    9.5388    2.5559    0.0000 C   0  0  0  0  0  0  0  0  0  0  0  0
   10.2533    2.1434    0.0000 C   0  0  0  0  0  0  0  0  0  0  0  0
   11.0783    2.1434    0.0000 C   0  0  0  0  0  0  0  0  0  0  0  0
   10.6658    1.4289    0.0000 O   0  0  0  0  0  0  0  0  0  0  0  0
    7.0251    1.4062    0.0000 H   0  0  0  0  0  0  0  0  0  0  0  0
    7.7656    1.4062    0.0000 H   0  0  0  0  0  0  0  0  0  0  0  0
    7.0512    3.2931    0.0000 H   0  0  0  0  0  0  0  0  0  0  0  0
    6.3107    3.2931    0.0000 H   0  0  0  0  0  0  0  0  0  0  0  0
    5.5962    1.4062    0.0000 H   0  0  0  0  0  0  0  0  0  0  0  0
    6.3367    1.4062    0.0000 H   0  0  0  0  0  0  0  0  0  0  0  0
    4.1672    1.4062    0.0000 H   0  0  0  0  0  0  0  0  0  0  0  0
    4.9078    1.4062    0.0000 H   0  0  0  0  0  0  0  0  0  0  0  0
    4.4064    3.1393    0.0000 H   0  0  0  0  0  0  0  0  0  0  0  0
    2.1744    2.6039    0.0000 H   0  0  0  0  0  0  0  0  0  0  0  0
    2.6278    1.8187    0.0000 H   0  0  0  0  0  0  0  0  0  0  0  0
    8.4801    3.2931    0.0000 H   0  0  0  0  0  0  0  0  0  0  0  0
    7.7396    3.2931    0.0000 H   0  0  0  0  0  0  0  0  0  0  0  0
    9.9091    3.2931    0.0000 H   0  0  0  0  0  0  0  0  0  0  0  0
    9.1685    3.2931    0.0000 H   0  0  0  0  0  0  0  0  0  0  0  0
    9.6699    1.5600    0.0000 H   0  0  0  0  0  0  0  0  0  0  0  0
   11.9019    2.0954    0.0000 H   0  0  0  0  0  0  0  0  0  0  0  0
   11.4485    2.8806    0.0000 H   0  0  0  0  0  0  0  0  0  0  0  0
  1  2  1  0  0  0  0
  2  3  1  0  0  0  0
  3  4  1  0  0  0  0
  4  5  1  0  0  0  0
  5  6  1  0  0  0  0
  6  7  1  0  0  0  0
  7  8  1  0  0  0  0
  6  8  1  0  0  0  0
  1  9  1  0  0  0  0
  9 10  1  0  0  0  0
 10 11  1  0  0  0  0
 11 12  1  0  0  0  0
 12 13  1  0  0  0  0
 13 14  1  0  0  0  0
 12 14  1  0  0  0  0
  1 15  1  0  0  0  0
  1 16  1  0  0  0  0
  2 17  1  0  0  0  0
  2 18  1  0  0  0  0
  3 19  1  0  0  0  0
  3 20  1  0  0  0  0
  5 21  1  0  0  0  0
  5 22  1  0  0  0  0
  6 23  1  0  0  0  0
  7 24  1  0  0  0  0
  7 25  1  0  0  0  0
  9 26  1  0  0  0  0
  9 27  1  0  0  0  0
 11 28  1  0  0  0  0
 11 29  1  0  0  0  0
 12 30  1  0  0  0  0
 13 31  1  0  0  0  0
 13 32  1  0  0  0  0
M  END
>  <InChIKey>
SHKUUQIDMUMQQK-UHFFFAOYSA-N

>  <UN GHS>
1

>  <CASRN>
2425-79-8

> <Outcome>
1

>  <Index>
727

>  <StandardizerResult>
Clear Stereo (ID: ClearStereo)
Wedge Clean (ID: WedgeClean)
Mesomerize (ID: Mesomerize)
Tautomerize (ID: Tautomerize)
Add Explicit Hydrogens (ID: AddExplicitH)
Neutralize (ID: Neutralize)
Clean 2D (ID: Clean2D)

> <knn Distance>


> <CpId>
727

$$$$
730
  Mrv1532301301811342D          

 18 18  0  0  0  0            999 V2000
    1.7862    1.4438    0.0000 C   0  0  0  0  0  0  0  0  0  0  0  0
    1.0717    1.0313    0.0000 N   0  0  0  0  0  0  0  0  0  0  0  0
    1.0717    0.2062    0.0000 C   0  0  0  0  0  0  0  0  0  0  0  0
    0.3572   -0.2063    0.0000 C   0  0  0  0  0  0  0  0  0  0  0  0
   -0.3572    0.2062    0.0000 O   0  0  0  0  0  0  0  0  0  0  0  0
   -0.3572    1.0313    0.0000 C   0  0  0  0  0  0  0  0  0  0  0  0
    0.3572    1.4438    0.0000 C   0  0  0  0  0  0  0  0  0  0  0  0
    2.1987    0.7293    0.0000 H   0  0  0  0  0  0  0  0  0  0  0  0
    2.5006    1.8563    0.0000 H   0  0  0  0  0  0  0  0  0  0  0  0
    1.3737    2.1582    0.0000 H   0  0  0  0  0  0  0  0  0  0  0  0
    1.5251   -0.4830    0.0000 H   0  0  0  0  0  0  0  0  0  0  0  0
    1.8953    0.1583    0.0000 H   0  0  0  0  0  0  0  0  0  0  0  0
   -0.0130   -0.9435    0.0000 H   0  0  0  0  0  0  0  0  0  0  0  0
    0.7275   -0.9435    0.0000 H   0  0  0  0  0  0  0  0  0  0  0  0
   -0.8106    1.7205    0.0000 H   0  0  0  0  0  0  0  0  0  0  0  0
   -1.1808    1.0792    0.0000 H   0  0  0  0  0  0  0  0  0  0  0  0
    0.7275    2.1810    0.0000 H   0  0  0  0  0  0  0  0  0  0  0  0
   -0.0130    2.1810    0.0000 H   0  0  0  0  0  0  0  0  0  0  0  0
  1  2  1  0  0  0  0
  2  3  1  0  0  0  0
  3  4  1  0  0  0  0
  4  5  1  0  0  0  0
  5  6  1  0  0  0  0
  6  7  1  0  0  0  0
  2  7  1  0  0  0  0
  1  8  1  0  0  0  0
  1  9  1  0  0  0  0
  1 10  1  0  0  0  0
  3 11  1  0  0  0  0
  3 12  1  0  0  0  0
  4 13  1  0  0  0  0
  4 14  1  0  0  0  0
  6 15  1  0  0  0  0
  6 16  1  0  0  0  0
  7 17  1  0  0  0  0
  7 18  1  0  0  0  0
M  END
>  <InChIKey>
SJRJJKPEHAURKC-UHFFFAOYSA-N

>  <UN GHS>
2A

>  <CASRN>
109-02-4

> <Outcome>
1

>  <Index>
730

>  <StandardizerResult>
Clear Stereo (ID: ClearStereo)
Wedge Clean (ID: WedgeClean)
Mesomerize (ID: Mesomerize)
Tautomerize (ID: Tautomerize)
Add Explicit Hydrogens (ID: AddExplicitH)
Neutralize (ID: Neutralize)
Clean 2D (ID: Clean2D)

> <knn Distance>


> <CpId>
730

$$$$
732
  Mrv1532301301811342D          

 41 40  0  0  0  0            999 V2000
    4.2494    3.2530    0.0000 C   0  0  0  0  0  0  0  0  0  0  0  0
    4.9639    2.8405    0.0000 N   0  0  0  0  0  0  0  0  0  0  0  0
    4.9639    2.0155    0.0000 C   0  0  0  0  0  0  0  0  0  0  0  0
    5.6783    3.2530    0.0000 C   0  0  0  0  0  0  0  0  0  0  0  0
    6.3928    2.8405    0.0000 C   0  0  0  0  0  0  0  0  0  0  0  0
    7.1073    3.2530    0.0000 C   0  0  0  0  0  0  0  0  0  0  0  0
    7.8218    2.8405    0.0000 N   0  0  0  0  0  0  0  0  0  0  0  0
    7.8218    2.0155    0.0000 C   0  0  0  0  0  0  0  0  0  0  0  0
    8.5362    3.2530    0.0000 C   0  0  0  0  0  0  0  0  0  0  0  0
    9.2507    2.8405    0.0000 C   0  0  0  0  0  0  0  0  0  0  0  0
    9.9652    3.2530    0.0000 C   0  0  0  0  0  0  0  0  0  0  0  0
   10.6796    2.8405    0.0000 N   0  0  0  0  0  0  0  0  0  0  0  0
   11.3941    3.2530    0.0000 C   0  0  0  0  0  0  0  0  0  0  0  0
   10.6796    2.0155    0.0000 C   0  0  0  0  0  0  0  0  0  0  0  0
    4.6619    3.9675    0.0000 H   0  0  0  0  0  0  0  0  0  0  0  0
    3.5349    3.6655    0.0000 H   0  0  0  0  0  0  0  0  0  0  0  0
    3.8369    2.5385    0.0000 H   0  0  0  0  0  0  0  0  0  0  0  0
    4.1389    2.0155    0.0000 H   0  0  0  0  0  0  0  0  0  0  0  0
    4.9639    1.1905    0.0000 H   0  0  0  0  0  0  0  0  0  0  0  0
    5.7889    2.0155    0.0000 H   0  0  0  0  0  0  0  0  0  0  0  0
    6.0486    3.9903    0.0000 H   0  0  0  0  0  0  0  0  0  0  0  0
    5.3081    3.9903    0.0000 H   0  0  0  0  0  0  0  0  0  0  0  0
    6.0226    2.1033    0.0000 H   0  0  0  0  0  0  0  0  0  0  0  0
    6.7631    2.1033    0.0000 H   0  0  0  0  0  0  0  0  0  0  0  0
    7.4775    3.9903    0.0000 H   0  0  0  0  0  0  0  0  0  0  0  0
    6.7370    3.9903    0.0000 H   0  0  0  0  0  0  0  0  0  0  0  0
    6.9968    2.0155    0.0000 H   0  0  0  0  0  0  0  0  0  0  0  0
    7.8218    1.1905    0.0000 H   0  0  0  0  0  0  0  0  0  0  0  0
    8.6468    2.0155    0.0000 H   0  0  0  0  0  0  0  0  0  0  0  0
    8.9065    3.9903    0.0000 H   0  0  0  0  0  0  0  0  0  0  0  0
    8.1660    3.9903    0.0000 H   0  0  0  0  0  0  0  0  0  0  0  0
    8.8804    2.1033    0.0000 H   0  0  0  0  0  0  0  0  0  0  0  0
    9.6210    2.1033    0.0000 H   0  0  0  0  0  0  0  0  0  0  0  0
   10.3354    3.9903    0.0000 H   0  0  0  0  0  0  0  0  0  0  0  0
    9.5949    3.9903    0.0000 H   0  0  0  0  0  0  0  0  0  0  0  0
   11.8066    2.5385    0.0000 H   0  0  0  0  0  0  0  0  0  0  0  0
   12.1086    3.6655    0.0000 H   0  0  0  0  0  0  0  0  0  0  0  0
   10.9816    3.9675    0.0000 H   0  0  0  0  0  0  0  0  0  0  0  0
    9.8546    2.0155    0.0000 H   0  0  0  0  0  0  0  0  0  0  0  0
   10.6796    1.1905    0.0000 H   0  0  0  0  0  0  0  0  0  0  0  0
   11.5046    2.0155    0.0000 H   0  0  0  0  0  0  0  0  0  0  0  0
  1  2  1  0  0  0  0
  2  3  1  0  0  0  0
  2  4  1  0  0  0  0
  4  5  1  0  0  0  0
  5  6  1  0  0  0  0
  6  7  1  0  0  0  0
  7  8  1  0  0  0  0
  7  9  1  0  0  0  0
  9 10  1  0  0  0  0
 10 11  1  0  0  0  0
 11 12  1  0  0  0  0
 12 13  1  0  0  0  0
 12 14  1  0  0  0  0
  1 15  1  0  0  0  0
  1 16  1  0  0  0  0
  1 17  1  0  0  0  0
  3 18  1  0  0  0  0
  3 19  1  0  0  0  0
  3 20  1  0  0  0  0
  4 21  1  0  0  0  0
  4 22  1  0  0  0  0
  5 23  1  0  0  0  0
  5 24  1  0  0  0  0
  6 25  1  0  0  0  0
  6 26  1  0  0  0  0
  8 27  1  0  0  0  0
  8 28  1  0  0  0  0
  8 29  1  0  0  0  0
  9 30  1  0  0  0  0
  9 31  1  0  0  0  0
 10 32  1  0  0  0  0
 10 33  1  0  0  0  0
 11 34  1  0  0  0  0
 11 35  1  0  0  0  0
 13 36  1  0  0  0  0
 13 37  1  0  0  0  0
 13 38  1  0  0  0  0
 14 39  1  0  0  0  0
 14 40  1  0  0  0  0
 14 41  1  0  0  0  0
M  END
>  <InChIKey>
SKCNNQDRNPQEFU-UHFFFAOYSA-N

>  <UN GHS>
1

>  <CASRN>
3855-32-1

> <Outcome>
1

>  <Index>
732

>  <StandardizerResult>
Clear Stereo (ID: ClearStereo)
Wedge Clean (ID: WedgeClean)
Mesomerize (ID: Mesomerize)
Tautomerize (ID: Tautomerize)
Add Explicit Hydrogens (ID: AddExplicitH)
Neutralize (ID: Neutralize)
Clean 2D (ID: Clean2D)

> <knn Distance>


> <CpId>
732

$$$$
734
  Mrv1532301301811342D          

 19 19  0  0  0  0            999 V2000
   -0.0726    2.4048    0.0000 C   0  0  0  0  0  0  0  0  0  0  0  0
    0.6418    1.9923    0.0000 O   0  0  0  0  0  0  0  0  0  0  0  0
    0.6418    1.1673    0.0000 C   0  0  0  0  0  0  0  0  0  0  0  0
    1.3093    0.6824    0.0000 C   0  0  0  0  0  0  0  0  0  0  0  0
    1.0543   -0.1022    0.0000 C   0  0  0  0  0  0  0  0  0  0  0  0
    0.2293   -0.1022    0.0000 C   0  0  0  0  0  0  0  0  0  0  0  0
   -0.0256    0.6824    0.0000 C   0  0  0  0  0  0  0  0  0  0  0  0
    0.3399    3.1193    0.0000 H   0  0  0  0  0  0  0  0  0  0  0  0
   -0.7871    2.8173    0.0000 H   0  0  0  0  0  0  0  0  0  0  0  0
   -0.4851    1.6904    0.0000 H   0  0  0  0  0  0  0  0  0  0  0  0
   -0.0932    1.5419    0.0000 H   0  0  0  0  0  0  0  0  0  0  0  0
    2.1218    0.5391    0.0000 H   0  0  0  0  0  0  0  0  0  0  0  0
    1.8824    1.2759    0.0000 H   0  0  0  0  0  0  0  0  0  0  0  0
    1.1692   -0.9192    0.0000 H   0  0  0  0  0  0  0  0  0  0  0  0
    1.7959   -0.4639    0.0000 H   0  0  0  0  0  0  0  0  0  0  0  0
   -0.5122   -0.4639    0.0000 H   0  0  0  0  0  0  0  0  0  0  0  0
    0.1145   -0.9192    0.0000 H   0  0  0  0  0  0  0  0  0  0  0  0
   -0.8374    0.8292    0.0000 H   0  0  0  0  0  0  0  0  0  0  0  0
   -0.7194    0.2361    0.0000 H   0  0  0  0  0  0  0  0  0  0  0  0
  1  2  1  0  0  0  0
  2  3  1  0  0  0  0
  3  4  1  0  0  0  0
  4  5  1  0  0  0  0
  5  6  1  0  0  0  0
  6  7  1  0  0  0  0
  3  7  1  0  0  0  0
  1  8  1  0  0  0  0
  1  9  1  0  0  0  0
  1 10  1  0  0  0  0
  3 11  1  0  0  0  0
  4 12  1  0  0  0  0
  4 13  1  0  0  0  0
  5 14  1  0  0  0  0
  5 15  1  0  0  0  0
  6 16  1  0  0  0  0
  6 17  1  0  0  0  0
  7 18  1  0  0  0  0
  7 19  1  0  0  0  0
M  END
>  <InChIKey>
SKTCDJAMAYNROS-UHFFFAOYSA-N

>  <UN GHS>
2A

>  <CASRN>
5614-37-9

> <Outcome>
1

>  <Index>
734

>  <StandardizerResult>
Clear Stereo (ID: ClearStereo)
Wedge Clean (ID: WedgeClean)
Mesomerize (ID: Mesomerize)
Tautomerize (ID: Tautomerize)
Add Explicit Hydrogens (ID: AddExplicitH)
Neutralize (ID: Neutralize)
Clean 2D (ID: Clean2D)

> <knn Distance>


> <CpId>
734

$$$$
735
  Mrv1532301301811342D          

 34 33  0  0  0  0            999 V2000
   -0.6932   -3.5495    0.0000 C   0  0  0  0  0  0  0  0  0  0  0  0
    0.0212   -3.9620    0.0000 C   0  0  0  0  0  0  0  0  0  0  0  0
    0.0212   -4.7870    0.0000 O   0  0  0  0  0  0  0  0  0  0  0  0
    0.7357   -3.5495    0.0000 C   0  0  0  0  0  0  0  0  0  0  0  0
    0.7357   -2.7245    0.0000 N   0  0  0  0  0  0  0  0  0  0  0  0
    0.0212   -2.3120    0.0000 C   0  0  0  0  0  0  0  0  0  0  0  0
    0.0212   -1.4870    0.0000 C   0  0  0  0  0  0  0  0  0  0  0  0
    0.7357   -1.0745    0.0000 C   0  0  0  0  0  0  0  0  0  0  0  0
   -0.6932   -1.0745    0.0000 O   0  0  0  0  0  0  0  0  0  0  0  0
    1.4502   -2.3120    0.0000 C   0  0  0  0  0  0  0  0  0  0  0  0
    1.4502   -1.4870    0.0000 C   0  0  0  0  0  0  0  0  0  0  0  0
    2.1647   -1.0745    0.0000 C   0  0  0  0  0  0  0  0  0  0  0  0
    1.1146   -0.7333    0.0000 O   0  0  0  0  0  0  0  0  0  0  0  0
   -0.2807   -2.8350    0.0000 H   0  0  0  0  0  0  0  0  0  0  0  0
   -1.4077   -3.1370    0.0000 H   0  0  0  0  0  0  0  0  0  0  0  0
   -1.1057   -4.2639    0.0000 H   0  0  0  0  0  0  0  0  0  0  0  0
   -0.6932   -4.3745    0.0000 H   0  0  0  0  0  0  0  0  0  0  0  0
    0.4337   -5.5014    0.0000 H   0  0  0  0  0  0  0  0  0  0  0  0
    1.1891   -4.2387    0.0000 H   0  0  0  0  0  0  0  0  0  0  0  0
    1.5593   -3.5974    0.0000 H   0  0  0  0  0  0  0  0  0  0  0  0
   -0.7756   -2.0984    0.0000 H   0  0  0  0  0  0  0  0  0  0  0  0
    0.7357   -1.8995    0.0000 H   0  0  0  0  0  0  0  0  0  0  0  0
   -0.6932   -1.8995    0.0000 H   0  0  0  0  0  0  0  0  0  0  0  0
    0.8220   -0.2540    0.0000 H   0  0  0  0  0  0  0  0  0  0  0  0
    0.2508   -0.4070    0.0000 H   0  0  0  0  0  0  0  0  0  0  0  0
   -0.0713   -0.9029    0.0000 H   0  0  0  0  0  0  0  0  0  0  0  0
   -1.3496   -0.5746    0.0000 H   0  0  0  0  0  0  0  0  0  0  0  0
    1.9035   -3.0012    0.0000 H   0  0  0  0  0  0  0  0  0  0  0  0
    2.2738   -2.3599    0.0000 H   0  0  0  0  0  0  0  0  0  0  0  0
    2.1647   -1.8995    0.0000 H   0  0  0  0  0  0  0  0  0  0  0  0
    2.9616   -1.2880    0.0000 H   0  0  0  0  0  0  0  0  0  0  0  0
    2.5772   -0.3600    0.0000 H   0  0  0  0  0  0  0  0  0  0  0  0
    1.5813   -0.4911    0.0000 H   0  0  0  0  0  0  0  0  0  0  0  0
    1.3362    0.0614    0.0000 H   0  0  0  0  0  0  0  0  0  0  0  0
  1  2  1  0  0  0  0
  2  3  1  0  0  0  0
  2  4  1  0  0  0  0
  4  5  1  0  0  0  0
  5  6  1  0  0  0  0
  6  7  1  0  0  0  0
  7  8  1  0  0  0  0
  7  9  1  0  0  0  0
  5 10  1  0  0  0  0
 10 11  1  0  0  0  0
 11 12  1  0  0  0  0
 11 13  1  0  0  0  0
  1 14  1  0  0  0  0
  1 15  1  0  0  0  0
  1 16  1  0  0  0  0
  2 17  1  0  0  0  0
  3 18  1  0  0  0  0
  4 19  1  0  0  0  0
  4 20  1  0  0  0  0
  6 21  1  0  0  0  0
  6 22  1  0  0  0  0
  7 23  1  0  0  0  0
  8 24  1  0  0  0  0
  8 25  1  0  0  0  0
  8 26  1  0  0  0  0
  9 27  1  0  0  0  0
 10 28  1  0  0  0  0
 10 29  1  0  0  0  0
 11 30  1  0  0  0  0
 12 31  1  0  0  0  0
 12 32  1  0  0  0  0
 12 33  1  0  0  0  0
 13 34  1  0  0  0  0
M  END
>  <InChIKey>
SLINHMUFWFWBMU-UHFFFAOYSA-N

>  <UN GHS>
1

>  <CASRN>
122-20-3

> <Outcome>
1

>  <Index>
735

>  <StandardizerResult>
Clear Stereo (ID: ClearStereo)
Wedge Clean (ID: WedgeClean)
Mesomerize (ID: Mesomerize)
Tautomerize (ID: Tautomerize)
Add Explicit Hydrogens (ID: AddExplicitH)
Neutralize (ID: Neutralize)
Clean 2D (ID: Clean2D)

> <knn Distance>


> <CpId>
735

$$$$
739
  Mrv1532301301811342D          

 40 40  0  0  0  0            999 V2000
    1.4335   -4.9505    0.0000 C   0  0  0  0  0  0  0  0  0  0  0  0
    2.1480   -5.3630    0.0000 C   0  0  0  0  0  0  0  0  0  0  0  0
    2.8624   -4.9505    0.0000 C   0  0  0  0  0  0  0  0  0  0  0  0
    3.5769   -5.3630    0.0000 C   0  0  0  0  0  0  0  0  0  0  0  0
    4.2914   -4.9505    0.0000 C   0  0  0  0  0  0  0  0  0  0  0  0
    5.0058   -5.3630    0.0000 C   0  0  0  0  0  0  0  0  0  0  0  0
    5.7203   -4.9505    0.0000 C   0  0  0  0  0  0  0  0  0  0  0  0
    6.4348   -5.3630    0.0000 C   0  0  0  0  0  0  0  0  0  0  0  0
    7.1493   -4.9505    0.0000 C   0  0  0  0  0  0  0  0  0  0  0  0
    7.8637   -5.3630    0.0000 C   0  0  0  0  0  0  0  0  0  0  0  0
    8.5782   -4.9505    0.0000 C   0  0  0  0  0  0  0  0  0  0  0  0
    9.2927   -5.3630    0.0000 C   0  0  0  0  0  0  0  0  0  0  0  0
    9.2927   -6.1880    0.0000 C   0  0  0  0  0  0  0  0  0  0  0  0
    8.5782   -6.6005    0.0000 C   0  0  0  0  0  0  0  0  0  0  0  0
    7.8637   -6.1880    0.0000 C   0  0  0  0  0  0  0  0  0  0  0  0
    7.1493   -6.6005    0.0000 O   0  0  0  0  0  0  0  0  0  0  0  0
    1.8460   -4.2360    0.0000 H   0  0  0  0  0  0  0  0  0  0  0  0
    0.7190   -4.5380    0.0000 H   0  0  0  0  0  0  0  0  0  0  0  0
    1.0210   -5.6650    0.0000 H   0  0  0  0  0  0  0  0  0  0  0  0
    1.7777   -6.1003    0.0000 H   0  0  0  0  0  0  0  0  0  0  0  0
    2.5182   -6.1003    0.0000 H   0  0  0  0  0  0  0  0  0  0  0  0
    3.2327   -4.2133    0.0000 H   0  0  0  0  0  0  0  0  0  0  0  0
    2.4922   -4.2133    0.0000 H   0  0  0  0  0  0  0  0  0  0  0  0
    3.2066   -6.1003    0.0000 H   0  0  0  0  0  0  0  0  0  0  0  0
    3.9472   -6.1003    0.0000 H   0  0  0  0  0  0  0  0  0  0  0  0
    4.6616   -4.2133    0.0000 H   0  0  0  0  0  0  0  0  0  0  0  0
    3.9211   -4.2133    0.0000 H   0  0  0  0  0  0  0  0  0  0  0  0
    4.6356   -6.1003    0.0000 H   0  0  0  0  0  0  0  0  0  0  0  0
    5.3761   -6.1003    0.0000 H   0  0  0  0  0  0  0  0  0  0  0  0
    6.0906   -4.2133    0.0000 H   0  0  0  0  0  0  0  0  0  0  0  0
    5.3501   -4.2133    0.0000 H   0  0  0  0  0  0  0  0  0  0  0  0
    6.0645   -6.1003    0.0000 H   0  0  0  0  0  0  0  0  0  0  0  0
    6.8050   -6.1003    0.0000 H   0  0  0  0  0  0  0  0  0  0  0  0
    7.5195   -4.2133    0.0000 H   0  0  0  0  0  0  0  0  0  0  0  0
    6.7790   -4.2133    0.0000 H   0  0  0  0  0  0  0  0  0  0  0  0
    8.5782   -4.1255    0.0000 H   0  0  0  0  0  0  0  0  0  0  0  0
   10.0071   -4.9505    0.0000 H   0  0  0  0  0  0  0  0  0  0  0  0
   10.0071   -6.6005    0.0000 H   0  0  0  0  0  0  0  0  0  0  0  0
    8.5782   -7.4255    0.0000 H   0  0  0  0  0  0  0  0  0  0  0  0
    6.9674   -7.4052    0.0000 H   0  0  0  0  0  0  0  0  0  0  0  0
  1  2  1  0  0  0  0
  2  3  1  0  0  0  0
  3  4  1  0  0  0  0
  4  5  1  0  0  0  0
  5  6  1  0  0  0  0
  6  7  1  0  0  0  0
  7  8  1  0  0  0  0
  8  9  1  0  0  0  0
  9 10  1  0  0  0  0
 10 11  4  0  0  0  0
 11 12  4  0  0  0  0
 12 13  4  0  0  0  0
 13 14  4  0  0  0  0
 14 15  4  0  0  0  0
 10 15  4  0  0  0  0
 15 16  1  0  0  0  0
  1 17  1  0  0  0  0
  1 18  1  0  0  0  0
  1 19  1  0  0  0  0
  2 20  1  0  0  0  0
  2 21  1  0  0  0  0
  3 22  1  0  0  0  0
  3 23  1  0  0  0  0
  4 24  1  0  0  0  0
  4 25  1  0  0  0  0
  5 26  1  0  0  0  0
  5 27  1  0  0  0  0
  6 28  1  0  0  0  0
  6 29  1  0  0  0  0
  7 30  1  0  0  0  0
  7 31  1  0  0  0  0
  8 32  1  0  0  0  0
  8 33  1  0  0  0  0
  9 34  1  0  0  0  0
  9 35  1  0  0  0  0
 11 36  1  0  0  0  0
 12 37  1  0  0  0  0
 13 38  1  0  0  0  0
 14 39  1  0  0  0  0
 16 40  1  0  0  0  0
M  END
>  <InChIKey>
SNQQPOLDUKLAAF-UHFFFAOYSA-N

>  <UN GHS>
2A

>  <CASRN>
68610-97-9

> <Outcome>
1

>  <Index>
739

>  <StandardizerResult>
Dearomatize (ID: Dearomatize)
Clear Stereo (ID: ClearStereo)
Wedge Clean (ID: WedgeClean)
Mesomerize (ID: Mesomerize)
Tautomerize (ID: Tautomerize)
Aromatize (ID: Aromatize)
Add Explicit Hydrogens (ID: AddExplicitH)
Neutralize (ID: Neutralize)
Clean 2D (ID: Clean2D)

> <knn Distance>


> <CpId>
739

$$$$
740
  Mrv1532301301811342D          

 24 23  0  0  0  0            999 V2000
    1.0461    1.4282    0.0000 C   0  0  0  0  0  0  0  0  0  0  0  0
    1.7605    1.8407    0.0000 C   0  0  0  0  0  0  0  0  0  0  0  0
    2.4750    1.4282    0.0000 C   0  0  0  0  0  0  0  0  0  0  0  0
    3.1895    1.8407    0.0000 C   0  0  0  0  0  0  0  0  0  0  0  0
    3.9040    1.4282    0.0000 O   0  0  0  0  0  0  0  0  0  0  0  0
    4.6184    1.8407    0.0000 C   0  0  0  0  0  0  0  0  0  0  0  0
    4.6184    2.6657    0.0000 O   0  0  0  0  0  0  0  0  0  0  0  0
    5.3329    1.4282    0.0000 C   0  0  0  0  0  0  0  0  0  0  0  0
    6.0474    1.8407    0.0000 C   0  0  0  0  0  0  0  0  0  0  0  0
    5.3329    0.6032    0.0000 C   0  0  0  0  0  0  0  0  0  0  0  0
    0.6336    2.1426    0.0000 H   0  0  0  0  0  0  0  0  0  0  0  0
    0.3316    1.0157    0.0000 H   0  0  0  0  0  0  0  0  0  0  0  0
    1.4586    0.7137    0.0000 H   0  0  0  0  0  0  0  0  0  0  0  0
    2.1308    2.5779    0.0000 H   0  0  0  0  0  0  0  0  0  0  0  0
    1.3903    2.5779    0.0000 H   0  0  0  0  0  0  0  0  0  0  0  0
    2.1048    0.6909    0.0000 H   0  0  0  0  0  0  0  0  0  0  0  0
    2.8453    0.6909    0.0000 H   0  0  0  0  0  0  0  0  0  0  0  0
    3.5597    2.5779    0.0000 H   0  0  0  0  0  0  0  0  0  0  0  0
    2.8192    2.5779    0.0000 H   0  0  0  0  0  0  0  0  0  0  0  0
    6.4599    1.1262    0.0000 H   0  0  0  0  0  0  0  0  0  0  0  0
    6.7618    2.2532    0.0000 H   0  0  0  0  0  0  0  0  0  0  0  0
    5.6349    2.5551    0.0000 H   0  0  0  0  0  0  0  0  0  0  0  0
    4.6184    0.1907    0.0000 H   0  0  0  0  0  0  0  0  0  0  0  0
    6.0474    0.1907    0.0000 H   0  0  0  0  0  0  0  0  0  0  0  0
  1  2  1  0  0  0  0
  2  3  1  0  0  0  0
  3  4  1  0  0  0  0
  4  5  1  0  0  0  0
  5  6  1  0  0  0  0
  6  7  2  0  0  0  0
  6  8  1  0  0  0  0
  8  9  1  0  0  0  0
  8 10  2  0  0  0  0
  1 11  1  0  0  0  0
  1 12  1  0  0  0  0
  1 13  1  0  0  0  0
  2 14  1  0  0  0  0
  2 15  1  0  0  0  0
  3 16  1  0  0  0  0
  3 17  1  0  0  0  0
  4 18  1  0  0  0  0
  4 19  1  0  0  0  0
  9 20  1  0  0  0  0
  9 21  1  0  0  0  0
  9 22  1  0  0  0  0
 10 23  1  0  0  0  0
 10 24  1  0  0  0  0
M  END
>  <InChIKey>
SOGAXMICEFXMKE-UHFFFAOYSA-N

>  <UN GHS>
2B

>  <CASRN>
97-88-1

> <Outcome>
1

>  <Index>
740

>  <StandardizerResult>
Clear Stereo (ID: ClearStereo)
Wedge Clean (ID: WedgeClean)
Mesomerize (ID: Mesomerize)
Tautomerize (ID: Tautomerize)
Add Explicit Hydrogens (ID: AddExplicitH)
Neutralize (ID: Neutralize)
Clean 2D (ID: Clean2D)

> <knn Distance>


> <CpId>
740

$$$$
741
  Mrv1532301301811342D          

 30 30  0  0  0  0            999 V2000
   -0.0185    2.5283    0.0000 C   0  0  0  0  0  0  0  0  0  0  0  0
    0.6960    2.1158    0.0000 C   0  0  0  0  0  0  0  0  0  0  0  0
    1.4105    2.5283    0.0000 C   0  0  0  0  0  0  0  0  0  0  0  0
    0.6960    1.2908    0.0000 C   0  0  0  0  0  0  0  0  0  0  0  0
    1.4105    0.8783    0.0000 C   0  0  0  0  0  0  0  0  0  0  0  0
    1.4105    0.0533    0.0000 C   0  0  0  0  0  0  0  0  0  0  0  0
    0.6960   -0.3592    0.0000 C   0  0  0  0  0  0  0  0  0  0  0  0
   -0.0185    0.0533    0.0000 C   0  0  0  0  0  0  0  0  0  0  0  0
   -0.0185    0.8783    0.0000 C   0  0  0  0  0  0  0  0  0  0  0  0
    0.6960   -1.1842    0.0000 C   0  0  0  0  0  0  0  0  0  0  0  0
    1.4105   -1.5967    0.0000 C   0  0  0  0  0  0  0  0  0  0  0  0
   -0.0185   -1.5967    0.0000 C   0  0  0  0  0  0  0  0  0  0  0  0
    0.3940    3.2427    0.0000 H   0  0  0  0  0  0  0  0  0  0  0  0
   -0.7329    2.9408    0.0000 H   0  0  0  0  0  0  0  0  0  0  0  0
   -0.4310    1.8138    0.0000 H   0  0  0  0  0  0  0  0  0  0  0  0
    0.6960    2.9408    0.0000 H   0  0  0  0  0  0  0  0  0  0  0  0
    1.6240    1.7314    0.0000 H   0  0  0  0  0  0  0  0  0  0  0  0
    2.2355    2.5283    0.0000 H   0  0  0  0  0  0  0  0  0  0  0  0
    1.6240    3.3251    0.0000 H   0  0  0  0  0  0  0  0  0  0  0  0
    2.2293    0.7773    0.0000 H   0  0  0  0  0  0  0  0  0  0  0  0
    2.1250   -0.3592    0.0000 H   0  0  0  0  0  0  0  0  0  0  0  0
   -0.7329   -0.3592    0.0000 H   0  0  0  0  0  0  0  0  0  0  0  0
   -0.7329    1.2908    0.0000 H   0  0  0  0  0  0  0  0  0  0  0  0
    1.4105   -0.7717    0.0000 H   0  0  0  0  0  0  0  0  0  0  0  0
    0.8271   -2.1801    0.0000 H   0  0  0  0  0  0  0  0  0  0  0  0
    1.8230   -2.3112    0.0000 H   0  0  0  0  0  0  0  0  0  0  0  0
    2.2074   -1.3832    0.0000 H   0  0  0  0  0  0  0  0  0  0  0  0
   -0.4310   -0.8823    0.0000 H   0  0  0  0  0  0  0  0  0  0  0  0
   -0.7329   -2.0092    0.0000 H   0  0  0  0  0  0  0  0  0  0  0  0
    0.3940   -2.3112    0.0000 H   0  0  0  0  0  0  0  0  0  0  0  0
  1  2  1  0  0  0  0
  2  3  1  0  0  0  0
  2  4  1  0  0  0  0
  4  5  4  0  0  0  0
  5  6  4  0  0  0  0
  6  7  4  0  0  0  0
  7  8  4  0  0  0  0
  8  9  4  0  0  0  0
  4  9  4  0  0  0  0
  7 10  1  0  0  0  0
 10 11  1  0  0  0  0
 10 12  1  0  0  0  0
  1 13  1  0  0  0  0
  1 14  1  0  0  0  0
  1 15  1  0  0  0  0
  2 16  1  0  0  0  0
  3 17  1  0  0  0  0
  3 18  1  0  0  0  0
  3 19  1  0  0  0  0
  5 20  1  0  0  0  0
  6 21  1  0  0  0  0
  8 22  1  0  0  0  0
  9 23  1  0  0  0  0
 10 24  1  0  0  0  0
 11 25  1  0  0  0  0
 11 26  1  0  0  0  0
 11 27  1  0  0  0  0
 12 28  1  0  0  0  0
 12 29  1  0  0  0  0
 12 30  1  0  0  0  0
M  END
>  <InChIKey>
SPPWGCYEYAMHDT-UHFFFAOYSA-N

>  <UN GHS>
2B

>  <CASRN>
100-18-5

> <Outcome>
1

>  <Index>
741

>  <StandardizerResult>
Dearomatize (ID: Dearomatize)
Clear Stereo (ID: ClearStereo)
Wedge Clean (ID: WedgeClean)
Mesomerize (ID: Mesomerize)
Tautomerize (ID: Tautomerize)
Aromatize (ID: Aromatize)
Add Explicit Hydrogens (ID: AddExplicitH)
Neutralize (ID: Neutralize)
Clean 2D (ID: Clean2D)

> <knn Distance>


> <CpId>
741

$$$$
743
  Mrv1532301301811342D          

 58 61  0  0  0  0            999 V2000
    2.1210   -6.9870    0.0000 O   0  0  0  0  0  0  0  0  0  0  0  0
    2.1210   -7.8120    0.0000 S   0  0  0  0  0  0  0  0  0  0  0  0
    1.2960   -7.8120    0.0000 O   0  0  0  0  0  0  0  0  0  0  0  0
    2.9460   -7.8120    0.0000 O   0  0  0  0  0  0  0  0  0  0  0  0
    2.1210   -8.6370    0.0000 C   0  0  0  0  0  0  0  0  0  0  0  0
    2.8355   -9.0495    0.0000 C   0  0  0  0  0  0  0  0  0  0  0  0
    2.8355   -9.8745    0.0000 C   0  0  0  0  0  0  0  0  0  0  0  0
    2.1210  -10.2870    0.0000 C   0  0  0  0  0  0  0  0  0  0  0  0
    1.4066   -9.8745    0.0000 C   0  0  0  0  0  0  0  0  0  0  0  0
    1.4066   -9.0495    0.0000 C   0  0  0  0  0  0  0  0  0  0  0  0
    0.6921   -8.6370    0.0000 C   0  0  0  0  0  0  0  0  0  0  0  0
   -0.0224   -9.0495    0.0000 C   0  0  0  0  0  0  0  0  0  0  0  0
   -0.7369   -8.6370    0.0000 C   0  0  0  0  0  0  0  0  0  0  0  0
   -1.4513   -9.0495    0.0000 C   0  0  0  0  0  0  0  0  0  0  0  0
   -2.1658   -8.6370    0.0000 C   0  0  0  0  0  0  0  0  0  0  0  0
   -2.1658   -7.8120    0.0000 C   0  0  0  0  0  0  0  0  0  0  0  0
   -1.4513   -7.3995    0.0000 C   0  0  0  0  0  0  0  0  0  0  0  0
   -0.7369   -7.8120    0.0000 C   0  0  0  0  0  0  0  0  0  0  0  0
   -2.8803   -7.3995    0.0000 C   0  0  0  0  0  0  0  0  0  0  0  0
   -3.5947   -7.8120    0.0000 C   0  0  0  0  0  0  0  0  0  0  0  0
   -4.3092   -7.3995    0.0000 C   0  0  0  0  0  0  0  0  0  0  0  0
   -4.3092   -6.5745    0.0000 C   0  0  0  0  0  0  0  0  0  0  0  0
   -5.0237   -6.1620    0.0000 C   0  0  0  0  0  0  0  0  0  0  0  0
   -5.7381   -6.5745    0.0000 C   0  0  0  0  0  0  0  0  0  0  0  0
   -6.4526   -6.1620    0.0000 C   0  0  0  0  0  0  0  0  0  0  0  0
   -7.1671   -6.5745    0.0000 C   0  0  0  0  0  0  0  0  0  0  0  0
   -7.8816   -6.1620    0.0000 C   0  0  0  0  0  0  0  0  0  0  0  0
   -7.8816   -5.3370    0.0000 C   0  0  0  0  0  0  0  0  0  0  0  0
   -7.1671   -4.9245    0.0000 C   0  0  0  0  0  0  0  0  0  0  0  0
   -6.4526   -5.3370    0.0000 C   0  0  0  0  0  0  0  0  0  0  0  0
   -5.7381   -4.9245    0.0000 S   0  0  0  0  0  0  0  0  0  0  0  0
   -5.0237   -4.5120    0.0000 O   0  0  0  0  0  0  0  0  0  0  0  0
   -5.3256   -5.6390    0.0000 O   0  0  0  0  0  0  0  0  0  0  0  0
   -6.1506   -4.2100    0.0000 O   0  0  0  0  0  0  0  0  0  0  0  0
   -3.5947   -6.1620    0.0000 C   0  0  0  0  0  0  0  0  0  0  0  0
   -2.8803   -6.5745    0.0000 C   0  0  0  0  0  0  0  0  0  0  0  0
    2.8355   -6.5745    0.0000 H   0  0  0  0  0  0  0  0  0  0  0  0
    3.5500   -8.6370    0.0000 H   0  0  0  0  0  0  0  0  0  0  0  0
    3.5500  -10.2870    0.0000 H   0  0  0  0  0  0  0  0  0  0  0  0
    2.1210  -11.1120    0.0000 H   0  0  0  0  0  0  0  0  0  0  0  0
    0.6921  -10.2870    0.0000 H   0  0  0  0  0  0  0  0  0  0  0  0
    0.6921   -7.8120    0.0000 H   0  0  0  0  0  0  0  0  0  0  0  0
   -0.0224   -9.8745    0.0000 H   0  0  0  0  0  0  0  0  0  0  0  0
   -1.4513   -9.8745    0.0000 H   0  0  0  0  0  0  0  0  0  0  0  0
   -2.8803   -9.0495    0.0000 H   0  0  0  0  0  0  0  0  0  0  0  0
   -1.4513   -6.5745    0.0000 H   0  0  0  0  0  0  0  0  0  0  0  0
   -0.0224   -7.3995    0.0000 H   0  0  0  0  0  0  0  0  0  0  0  0
   -3.5947   -8.6370    0.0000 H   0  0  0  0  0  0  0  0  0  0  0  0
   -5.0237   -7.8120    0.0000 H   0  0  0  0  0  0  0  0  0  0  0  0
   -4.4403   -5.5786    0.0000 H   0  0  0  0  0  0  0  0  0  0  0  0
   -5.7381   -7.3995    0.0000 H   0  0  0  0  0  0  0  0  0  0  0  0
   -7.1671   -7.3995    0.0000 H   0  0  0  0  0  0  0  0  0  0  0  0
   -8.5960   -6.5745    0.0000 H   0  0  0  0  0  0  0  0  0  0  0  0
   -8.5960   -4.9245    0.0000 H   0  0  0  0  0  0  0  0  0  0  0  0
   -7.1671   -4.0995    0.0000 H   0  0  0  0  0  0  0  0  0  0  0  0
   -4.3092   -4.9245    0.0000 H   0  0  0  0  0  0  0  0  0  0  0  0
   -3.5947   -5.3370    0.0000 H   0  0  0  0  0  0  0  0  0  0  0  0
   -2.1658   -6.1620    0.0000 H   0  0  0  0  0  0  0  0  0  0  0  0
  1  2  1  0  0  0  0
  2  3  2  0  0  0  0
  2  4  2  0  0  0  0
  2  5  1  0  0  0  0
  5  6  4  0  0  0  0
  6  7  4  0  0  0  0
  7  8  4  0  0  0  0
  8  9  4  0  0  0  0
  9 10  4  0  0  0  0
  5 10  4  0  0  0  0
 11 10  1  4  0  0  0
 11 12  2  0  0  0  0
 12 13  1  0  0  0  0
 13 14  4  0  0  0  0
 14 15  4  0  0  0  0
 15 16  4  0  0  0  0
 16 17  4  0  0  0  0
 17 18  4  0  0  0  0
 13 18  4  0  0  0  0
 16 19  1  0  0  0  0
 19 20  4  0  0  0  0
 20 21  4  0  0  0  0
 21 22  4  0  0  0  0
 23 22  1  4  0  0  0
 23 24  2  0  0  0  0
 24 25  1  0  0  0  0
 25 26  4  0  0  0  0
 26 27  4  0  0  0  0
 27 28  4  0  0  0  0
 28 29  4  0  0  0  0
 29 30  4  0  0  0  0
 25 30  4  0  0  0  0
 30 31  1  0  0  0  0
 31 32  1  0  0  0  0
 31 33  2  0  0  0  0
 31 34  2  0  0  0  0
 22 35  4  0  0  0  0
 35 36  4  0  0  0  0
 19 36  4  0  0  0  0
  1 37  1  0  0  0  0
  6 38  1  0  0  0  0
  7 39  1  0  0  0  0
  8 40  1  0  0  0  0
  9 41  1  0  0  0  0
 11 42  1  0  0  0  0
 12 43  1  0  0  0  0
 14 44  1  0  0  0  0
 15 45  1  0  0  0  0
 17 46  1  0  0  0  0
 18 47  1  0  0  0  0
 20 48  1  0  0  0  0
 21 49  1  0  0  0  0
 23 50  1  0  0  0  0
 24 51  1  0  0  0  0
 26 52  1  0  0  0  0
 27 53  1  0  0  0  0
 28 54  1  0  0  0  0
 29 55  1  0  0  0  0
 32 56  1  0  0  0  0
 35 57  1  0  0  0  0
 36 58  1  0  0  0  0
M  END
>  <InChIKey>
SQAKQVFOMMLRPR-UHFFFAOYSA-L

>  <UN GHS>
2A

>  <CASRN>
27344-41-8

> <Outcome>
1

>  <Index>
743

>  <StandardizerResult>
Dearomatize (ID: Dearomatize)
Clear Stereo (ID: ClearStereo)
Wedge Clean (ID: WedgeClean)
Mesomerize (ID: Mesomerize)
Tautomerize (ID: Tautomerize)
Aromatize (ID: Aromatize)
Add Explicit Hydrogens (ID: AddExplicitH)
Neutralize (ID: Neutralize)
Clean 2D (ID: Clean2D)

> <knn Distance>


> <CpId>
743

$$$$
745
  Mrv1532301301811342D          

 44 43  0  0  0  0            999 V2000
   -3.8984    0.6016    0.0000 C   0  0  0  0  0  0  0  0  0  0  0  0
   -3.0734    0.6016    0.0000 C   0  0  0  0  0  0  0  0  0  0  0  0
   -2.6609   -0.1128    0.0000 C   0  0  0  0  0  0  0  0  0  0  0  0
   -1.8359   -0.1128    0.0000 C   0  0  0  0  0  0  0  0  0  0  0  0
   -1.4234   -0.8273    0.0000 O   0  0  0  0  0  0  0  0  0  0  0  0
   -0.5984   -0.8273    0.0000 P   0  0  0  0  0  0  0  0  0  0  0  0
   -0.5984   -1.6523    0.0000 O   0  0  0  0  0  0  0  0  0  0  0  0
    0.2266   -0.8273    0.0000 O   0  0  0  0  0  0  0  0  0  0  0  0
    0.6391   -1.5418    0.0000 C   0  0  0  0  0  0  0  0  0  0  0  0
    1.4641   -1.5418    0.0000 C   0  0  0  0  0  0  0  0  0  0  0  0
    1.8766   -2.2563    0.0000 C   0  0  0  0  0  0  0  0  0  0  0  0
    2.7016   -2.2563    0.0000 C   0  0  0  0  0  0  0  0  0  0  0  0
   -0.5984   -0.0023    0.0000 O   0  0  0  0  0  0  0  0  0  0  0  0
    0.1161    0.4102    0.0000 C   0  0  0  0  0  0  0  0  0  0  0  0
    0.8306   -0.0023    0.0000 C   0  0  0  0  0  0  0  0  0  0  0  0
    1.5450    0.4102    0.0000 C   0  0  0  0  0  0  0  0  0  0  0  0
    2.2595   -0.0023    0.0000 C   0  0  0  0  0  0  0  0  0  0  0  0
   -3.8984    1.4266    0.0000 H   0  0  0  0  0  0  0  0  0  0  0  0
   -4.7234    0.6016    0.0000 H   0  0  0  0  0  0  0  0  0  0  0  0
   -3.8984   -0.2234    0.0000 H   0  0  0  0  0  0  0  0  0  0  0  0
   -2.3841    1.0550    0.0000 H   0  0  0  0  0  0  0  0  0  0  0  0
   -3.0254    1.4252    0.0000 H   0  0  0  0  0  0  0  0  0  0  0  0
   -3.3501   -0.5662    0.0000 H   0  0  0  0  0  0  0  0  0  0  0  0
   -2.7088   -0.9364    0.0000 H   0  0  0  0  0  0  0  0  0  0  0  0
   -1.1466    0.3405    0.0000 H   0  0  0  0  0  0  0  0  0  0  0  0
   -1.7879    0.7108    0.0000 H   0  0  0  0  0  0  0  0  0  0  0  0
   -0.0501   -1.9951    0.0000 H   0  0  0  0  0  0  0  0  0  0  0  0
    0.5912   -2.3654    0.0000 H   0  0  0  0  0  0  0  0  0  0  0  0
    2.1534   -1.0884    0.0000 H   0  0  0  0  0  0  0  0  0  0  0  0
    1.5121   -0.7182    0.0000 H   0  0  0  0  0  0  0  0  0  0  0  0
    1.1874   -2.7096    0.0000 H   0  0  0  0  0  0  0  0  0  0  0  0
    1.8287   -3.0799    0.0000 H   0  0  0  0  0  0  0  0  0  0  0  0
    2.7016   -3.0813    0.0000 H   0  0  0  0  0  0  0  0  0  0  0  0
    3.5266   -2.2563    0.0000 H   0  0  0  0  0  0  0  0  0  0  0  0
    2.7016   -1.4313    0.0000 H   0  0  0  0  0  0  0  0  0  0  0  0
    0.4864    1.1474    0.0000 H   0  0  0  0  0  0  0  0  0  0  0  0
   -0.2542    1.1474    0.0000 H   0  0  0  0  0  0  0  0  0  0  0  0
    0.4603   -0.7396    0.0000 H   0  0  0  0  0  0  0  0  0  0  0  0
    1.2008   -0.7396    0.0000 H   0  0  0  0  0  0  0  0  0  0  0  0
    1.9153    1.1474    0.0000 H   0  0  0  0  0  0  0  0  0  0  0  0
    1.1748    1.1474    0.0000 H   0  0  0  0  0  0  0  0  0  0  0  0
    1.8470   -0.7168    0.0000 H   0  0  0  0  0  0  0  0  0  0  0  0
    2.9740   -0.4148    0.0000 H   0  0  0  0  0  0  0  0  0  0  0  0
    2.6720    0.7122    0.0000 H   0  0  0  0  0  0  0  0  0  0  0  0
  1  2  1  0  0  0  0
  2  3  1  0  0  0  0
  3  4  1  0  0  0  0
  4  5  1  0  0  0  0
  5  6  1  0  0  0  0
  6  7  2  0  0  0  0
  6  8  1  0  0  0  0
  8  9  1  0  0  0  0
  9 10  1  0  0  0  0
 10 11  1  0  0  0  0
 11 12  1  0  0  0  0
  6 13  1  0  0  0  0
 13 14  1  0  0  0  0
 14 15  1  0  0  0  0
 15 16  1  0  0  0  0
 16 17  1  0  0  0  0
  1 18  1  0  0  0  0
  1 19  1  0  0  0  0
  1 20  1  0  0  0  0
  2 21  1  0  0  0  0
  2 22  1  0  0  0  0
  3 23  1  0  0  0  0
  3 24  1  0  0  0  0
  4 25  1  0  0  0  0
  4 26  1  0  0  0  0
  9 27  1  0  0  0  0
  9 28  1  0  0  0  0
 10 29  1  0  0  0  0
 10 30  1  0  0  0  0
 11 31  1  0  0  0  0
 11 32  1  0  0  0  0
 12 33  1  0  0  0  0
 12 34  1  0  0  0  0
 12 35  1  0  0  0  0
 14 36  1  0  0  0  0
 14 37  1  0  0  0  0
 15 38  1  0  0  0  0
 15 39  1  0  0  0  0
 16 40  1  0  0  0  0
 16 41  1  0  0  0  0
 17 42  1  0  0  0  0
 17 43  1  0  0  0  0
 17 44  1  0  0  0  0
M  END
>  <InChIKey>
STCOOQWBFONSKY-UHFFFAOYSA-N

>  <UN GHS>
2B

>  <CASRN>
126-73-8

> <Outcome>
1

>  <Index>
745

>  <StandardizerResult>
Clear Stereo (ID: ClearStereo)
Wedge Clean (ID: WedgeClean)
Mesomerize (ID: Mesomerize)
Tautomerize (ID: Tautomerize)
Add Explicit Hydrogens (ID: AddExplicitH)
Neutralize (ID: Neutralize)
Clean 2D (ID: Clean2D)

> <knn Distance>


> <CpId>
745

$$$$
746
  Mrv1532301301811342D          

 14 13  0  0  0  0            999 V2000
   -0.6050   -2.4744    0.0000 C   0  0  0  0  0  0  0  0  0  0  0  0
    0.1094   -2.0619    0.0000 C   0  0  0  0  0  0  0  0  0  0  0  0
    0.1094   -1.2369    0.0000 O   0  0  0  0  0  0  0  0  0  0  0  0
    0.8239   -0.8244    0.0000 C   0  0  0  0  0  0  0  0  0  0  0  0
    1.5384   -1.2369    0.0000 O   0  0  0  0  0  0  0  0  0  0  0  0
    0.8239    0.0006    0.0000 C   0  0  0  0  0  0  0  0  0  0  0  0
    0.8239    0.8256    0.0000 F   0  0  0  0  0  0  0  0  0  0  0  0
    1.6489    0.0006    0.0000 F   0  0  0  0  0  0  0  0  0  0  0  0
   -0.0011    0.0006    0.0000 F   0  0  0  0  0  0  0  0  0  0  0  0
   -1.0175   -1.7599    0.0000 H   0  0  0  0  0  0  0  0  0  0  0  0
   -1.3195   -2.8869    0.0000 H   0  0  0  0  0  0  0  0  0  0  0  0
   -0.1925   -3.1888    0.0000 H   0  0  0  0  0  0  0  0  0  0  0  0
    0.5628   -2.7511    0.0000 H   0  0  0  0  0  0  0  0  0  0  0  0
    0.9331   -2.1098    0.0000 H   0  0  0  0  0  0  0  0  0  0  0  0
  1  2  1  0  0  0  0
  2  3  1  0  0  0  0
  3  4  1  0  0  0  0
  4  5  2  0  0  0  0
  4  6  1  0  0  0  0
  6  7  1  0  0  0  0
  6  8  1  0  0  0  0
  6  9  1  0  0  0  0
  1 10  1  0  0  0  0
  1 11  1  0  0  0  0
  1 12  1  0  0  0  0
  2 13  1  0  0  0  0
  2 14  1  0  0  0  0
M  END
>  <InChIKey>
STSCVKRWJPWALQ-UHFFFAOYSA-N

>  <UN GHS>
2A

>  <CASRN>
383-63-1

> <Outcome>
1

>  <Index>
746

>  <StandardizerResult>
Clear Stereo (ID: ClearStereo)
Wedge Clean (ID: WedgeClean)
Mesomerize (ID: Mesomerize)
Tautomerize (ID: Tautomerize)
Add Explicit Hydrogens (ID: AddExplicitH)
Neutralize (ID: Neutralize)
Clean 2D (ID: Clean2D)

> <knn Distance>


> <CpId>
746

$$$$
748
  Mrv1532301301811342D          

 17 16  0  0  0  0            999 V2000
   -0.6039   -2.4750    0.0000 C   0  0  0  0  0  0  0  0  0  0  0  0
    0.1105   -2.0625    0.0000 N   0  0  0  0  0  0  0  0  0  0  0  0
    0.1105   -1.2375    0.0000 C   0  0  0  0  0  0  0  0  0  0  0  0
    0.8250   -0.8250    0.0000 C   0  0  0  0  0  0  0  0  0  0  0  0
    0.8250   -0.0000    0.0000 S   0  0  0  0  0  0  0  0  0  0  0  0
    0.8250    0.8250    0.0000 O   0  0  0  0  0  0  0  0  0  0  0  0
    1.6500   -0.0000    0.0000 O   0  0  0  0  0  0  0  0  0  0  0  0
    0.0000   -0.0000    0.0000 O   0  0  0  0  0  0  0  0  0  0  0  0
   -1.0164   -1.7605    0.0000 H   0  0  0  0  0  0  0  0  0  0  0  0
   -1.3184   -2.8875    0.0000 H   0  0  0  0  0  0  0  0  0  0  0  0
   -0.1914   -3.1895    0.0000 H   0  0  0  0  0  0  0  0  0  0  0  0
    0.8250   -2.4750    0.0000 H   0  0  0  0  0  0  0  0  0  0  0  0
   -0.3428   -0.5482    0.0000 H   0  0  0  0  0  0  0  0  0  0  0  0
   -0.7131   -1.1895    0.0000 H   0  0  0  0  0  0  0  0  0  0  0  0
    1.2783   -1.5143    0.0000 H   0  0  0  0  0  0  0  0  0  0  0  0
    1.6486   -0.8730    0.0000 H   0  0  0  0  0  0  0  0  0  0  0  0
    1.5395    1.2375    0.0000 H   0  0  0  0  0  0  0  0  0  0  0  0
  1  2  1  0  0  0  0
  2  3  1  0  0  0  0
  3  4  1  0  0  0  0
  4  5  1  0  0  0  0
  5  6  1  0  0  0  0
  5  7  2  0  0  0  0
  5  8  2  0  0  0  0
  1  9  1  0  0  0  0
  1 10  1  0  0  0  0
  1 11  1  0  0  0  0
  2 12  1  0  0  0  0
  3 13  1  0  0  0  0
  3 14  1  0  0  0  0
  4 15  1  0  0  0  0
  4 16  1  0  0  0  0
  6 17  1  0  0  0  0
M  END
>  <InChIKey>
SUZRRICLUFMAQD-UHFFFAOYSA-M

>  <UN GHS>
2A

>  <CASRN>
61791-42-2

> <Outcome>
1

>  <Index>
748

>  <StandardizerResult>
Clear Stereo (ID: ClearStereo)
Wedge Clean (ID: WedgeClean)
Mesomerize (ID: Mesomerize)
Tautomerize (ID: Tautomerize)
Add Explicit Hydrogens (ID: AddExplicitH)
Neutralize (ID: Neutralize)
Clean 2D (ID: Clean2D)

> <knn Distance>


> <CpId>
748

$$$$
751
  Mrv1532301301811342D          

 22 21  0  0  0  0            999 V2000
    0.0949   -2.0543    0.0000 C   0  0  0  0  0  0  0  0  0  0  0  0
    0.0949   -1.2293    0.0000 C   0  0  0  0  0  0  0  0  0  0  0  0
   -0.6195   -0.8168    0.0000 O   0  0  0  0  0  0  0  0  0  0  0  0
    0.8094   -0.8168    0.0000 C   0  0  0  0  0  0  0  0  0  0  0  0
    0.8094    0.0082    0.0000 C   0  0  0  0  0  0  0  0  0  0  0  0
    0.8094    0.8332    0.0000 C   0  0  0  0  0  0  0  0  0  0  0  0
    1.6344    0.0082    0.0000 C   0  0  0  0  0  0  0  0  0  0  0  0
   -0.0156    0.0082    0.0000 O   0  0  0  0  0  0  0  0  0  0  0  0
   -0.7301   -2.0543    0.0000 H   0  0  0  0  0  0  0  0  0  0  0  0
    0.0949   -2.8793    0.0000 H   0  0  0  0  0  0  0  0  0  0  0  0
    0.9199   -2.0543    0.0000 H   0  0  0  0  0  0  0  0  0  0  0  0
   -0.6195   -1.6418    0.0000 H   0  0  0  0  0  0  0  0  0  0  0  0
   -1.0320   -0.1023    0.0000 H   0  0  0  0  0  0  0  0  0  0  0  0
    1.2628   -1.5060    0.0000 H   0  0  0  0  0  0  0  0  0  0  0  0
    1.6330   -0.8647    0.0000 H   0  0  0  0  0  0  0  0  0  0  0  0
    1.6344    0.8332    0.0000 H   0  0  0  0  0  0  0  0  0  0  0  0
    0.8094    1.6582    0.0000 H   0  0  0  0  0  0  0  0  0  0  0  0
   -0.0156    0.8332    0.0000 H   0  0  0  0  0  0  0  0  0  0  0  0
    2.2171   -0.5758    0.0000 H   0  0  0  0  0  0  0  0  0  0  0  0
    2.4594    0.0076    0.0000 H   0  0  0  0  0  0  0  0  0  0  0  0
    2.2180    0.5914    0.0000 H   0  0  0  0  0  0  0  0  0  0  0  0
   -0.5990   -0.5751    0.0000 H   0  0  0  0  0  0  0  0  0  0  0  0
  1  2  1  0  0  0  0
  2  3  1  0  0  0  0
  2  4  1  0  0  0  0
  4  5  1  0  0  0  0
  5  6  1  0  0  0  0
  5  7  1  0  0  0  0
  5  8  1  0  0  0  0
  1  9  1  0  0  0  0
  1 10  1  0  0  0  0
  1 11  1  0  0  0  0
  2 12  1  0  0  0  0
  3 13  1  0  0  0  0
  4 14  1  0  0  0  0
  4 15  1  0  0  0  0
  6 16  1  0  0  0  0
  6 17  1  0  0  0  0
  6 18  1  0  0  0  0
  7 19  1  0  0  0  0
  7 20  1  0  0  0  0
  7 21  1  0  0  0  0
  8 22  1  0  0  0  0
M  END
>  <InChIKey>
SVTBMSDMJJWYQN-UHFFFAOYSA-N

>  <UN GHS>
2B

>  <CASRN>
107-41-5

> <Outcome>
1

>  <Index>
751

>  <StandardizerResult>
Clear Stereo (ID: ClearStereo)
Wedge Clean (ID: WedgeClean)
Mesomerize (ID: Mesomerize)
Tautomerize (ID: Tautomerize)
Add Explicit Hydrogens (ID: AddExplicitH)
Neutralize (ID: Neutralize)
Clean 2D (ID: Clean2D)

> <knn Distance>


> <CpId>
751

$$$$
752
  Mrv1532301301811342D          

 20 19  0  0  0  0            999 V2000
    0.1085   -1.9971    0.0000 C   0  0  0  0  0  0  0  0  0  0  0  0
    0.1085   -1.1721    0.0000 C   0  0  0  0  0  0  0  0  0  0  0  0
   -0.6060   -0.7596    0.0000 O   0  0  0  0  0  0  0  0  0  0  0  0
    0.8230   -0.7596    0.0000 C   0  0  0  0  0  0  0  0  0  0  0  0
    0.8230    0.0654    0.0000 C   0  0  0  0  0  0  0  0  0  0  0  0
    0.8230    0.8904    0.0000 C   0  0  0  0  0  0  0  0  0  0  0  0
    1.6480    0.0654    0.0000 C   0  0  0  0  0  0  0  0  0  0  0  0
   -0.0020    0.0654    0.0000 O   0  0  0  0  0  0  0  0  0  0  0  0
   -0.7165   -1.9971    0.0000 H   0  0  0  0  0  0  0  0  0  0  0  0
    0.1085   -2.8221    0.0000 H   0  0  0  0  0  0  0  0  0  0  0  0
    0.9335   -1.9971    0.0000 H   0  0  0  0  0  0  0  0  0  0  0  0
    1.2763   -1.4489    0.0000 H   0  0  0  0  0  0  0  0  0  0  0  0
    1.6466   -0.8076    0.0000 H   0  0  0  0  0  0  0  0  0  0  0  0
    1.6480    0.8904    0.0000 H   0  0  0  0  0  0  0  0  0  0  0  0
    0.8230    1.7154    0.0000 H   0  0  0  0  0  0  0  0  0  0  0  0
   -0.0020    0.8904    0.0000 H   0  0  0  0  0  0  0  0  0  0  0  0
    2.2306   -0.5187    0.0000 H   0  0  0  0  0  0  0  0  0  0  0  0
    2.4730    0.0648    0.0000 H   0  0  0  0  0  0  0  0  0  0  0  0
    2.2315    0.6485    0.0000 H   0  0  0  0  0  0  0  0  0  0  0  0
   -0.5854   -0.5180    0.0000 H   0  0  0  0  0  0  0  0  0  0  0  0
  1  2  1  0  0  0  0
  2  3  2  0  0  0  0
  2  4  1  0  0  0  0
  4  5  1  0  0  0  0
  5  6  1  0  0  0  0
  5  7  1  0  0  0  0
  5  8  1  0  0  0  0
  1  9  1  0  0  0  0
  1 10  1  0  0  0  0
  1 11  1  0  0  0  0
  4 12  1  0  0  0  0
  4 13  1  0  0  0  0
  6 14  1  0  0  0  0
  6 15  1  0  0  0  0
  6 16  1  0  0  0  0
  7 17  1  0  0  0  0
  7 18  1  0  0  0  0
  7 19  1  0  0  0  0
  8 20  1  0  0  0  0
M  END
>  <InChIKey>
SWXVUIWOUIDPGS-UHFFFAOYSA-N

>  <UN GHS>
2A

>  <CASRN>
123-42-2

> <Outcome>
1

>  <Index>
752

>  <StandardizerResult>
Clear Stereo (ID: ClearStereo)
Wedge Clean (ID: WedgeClean)
Mesomerize (ID: Mesomerize)
Tautomerize (ID: Tautomerize)
Add Explicit Hydrogens (ID: AddExplicitH)
Neutralize (ID: Neutralize)
Clean 2D (ID: Clean2D)

> <knn Distance>


> <CpId>
752

$$$$
754
  Mrv1532301301811342D          

 15 14  0  0  0  0            999 V2000
    1.7605    1.8402    0.0000 O   0  0  0  0  0  0  0  0  0  0  0  0
    2.4750    1.4277    0.0000 C   0  0  0  0  0  0  0  0  0  0  0  0
    3.1895    1.8402    0.0000 C   0  0  0  0  0  0  0  0  0  0  0  0
    3.9039    1.4277    0.0000 C   0  0  0  0  0  0  0  0  0  0  0  0
    4.6184    1.8402    0.0000 C   0  0  0  0  0  0  0  0  0  0  0  0
    5.3329    1.4277    0.0000 C   0  0  0  0  0  0  0  0  0  0  0  0
    6.0474    1.8402    0.0000 O   0  0  0  0  0  0  0  0  0  0  0  0
    2.4750    0.6027    0.0000 H   0  0  0  0  0  0  0  0  0  0  0  0
    3.5597    2.5775    0.0000 H   0  0  0  0  0  0  0  0  0  0  0  0
    2.8192    2.5775    0.0000 H   0  0  0  0  0  0  0  0  0  0  0  0
    3.5337    0.6905    0.0000 H   0  0  0  0  0  0  0  0  0  0  0  0
    4.2742    0.6905    0.0000 H   0  0  0  0  0  0  0  0  0  0  0  0
    4.9887    2.5775    0.0000 H   0  0  0  0  0  0  0  0  0  0  0  0
    4.2482    2.5775    0.0000 H   0  0  0  0  0  0  0  0  0  0  0  0
    5.3329    0.6027    0.0000 H   0  0  0  0  0  0  0  0  0  0  0  0
  1  2  2  0  0  0  0
  2  3  1  0  0  0  0
  3  4  1  0  0  0  0
  4  5  1  0  0  0  0
  5  6  1  0  0  0  0
  6  7  2  0  0  0  0
  2  8  1  0  0  0  0
  3  9  1  0  0  0  0
  3 10  1  0  0  0  0
  4 11  1  0  0  0  0
  4 12  1  0  0  0  0
  5 13  1  0  0  0  0
  5 14  1  0  0  0  0
  6 15  1  0  0  0  0
M  END
>  <InChIKey>
SXRSQZLOMIGNAQ-UHFFFAOYSA-N

>  <UN GHS>
1

>  <CASRN>
111-30-8

> <Outcome>
1

>  <Index>
754

>  <StandardizerResult>
Clear Stereo (ID: ClearStereo)
Wedge Clean (ID: WedgeClean)
Mesomerize (ID: Mesomerize)
Tautomerize (ID: Tautomerize)
Add Explicit Hydrogens (ID: AddExplicitH)
Neutralize (ID: Neutralize)
Clean 2D (ID: Clean2D)

> <knn Distance>


> <CpId>
754

$$$$
755
  Mrv1532301301811342D          

 16 16  0  0  0  0            999 V2000
   -0.3884    2.9719    0.0000 C   0  0  0  0  0  0  0  0  0  0  0  0
   -0.3884    2.1469    0.0000 C   0  0  0  0  0  0  0  0  0  0  0  0
    0.3260    1.7344    0.0000 C   0  0  0  0  0  0  0  0  0  0  0  0
    0.3260    0.9094    0.0000 C   0  0  0  0  0  0  0  0  0  0  0  0
    0.7385    0.1950    0.0000 C   0  0  0  0  0  0  0  0  0  0  0  0
   -0.0865    0.1950    0.0000 O   0  0  0  0  0  0  0  0  0  0  0  0
    0.4366    2.9719    0.0000 H   0  0  0  0  0  0  0  0  0  0  0  0
   -0.3884    3.7969    0.0000 H   0  0  0  0  0  0  0  0  0  0  0  0
   -1.2134    2.9719    0.0000 H   0  0  0  0  0  0  0  0  0  0  0  0
   -1.2120    2.0990    0.0000 H   0  0  0  0  0  0  0  0  0  0  0  0
   -0.8418    1.4577    0.0000 H   0  0  0  0  0  0  0  0  0  0  0  0
    1.1496    1.7824    0.0000 H   0  0  0  0  0  0  0  0  0  0  0  0
    0.7794    2.4237    0.0000 H   0  0  0  0  0  0  0  0  0  0  0  0
   -0.4709    1.1230    0.0000 H   0  0  0  0  0  0  0  0  0  0  0  0
    1.1088   -0.5423    0.0000 H   0  0  0  0  0  0  0  0  0  0  0  0
    1.5621    0.2429    0.0000 H   0  0  0  0  0  0  0  0  0  0  0  0
  1  2  1  0  0  0  0
  2  3  1  0  0  0  0
  3  4  1  0  0  0  0
  4  5  1  0  0  0  0
  5  6  1  0  0  0  0
  4  6  1  0  0  0  0
  1  7  1  0  0  0  0
  1  8  1  0  0  0  0
  1  9  1  0  0  0  0
  2 10  1  0  0  0  0
  2 11  1  0  0  0  0
  3 12  1  0  0  0  0
  3 13  1  0  0  0  0
  4 14  1  0  0  0  0
  5 15  1  0  0  0  0
  5 16  1  0  0  0  0
M  END
>  <InChIKey>
SYURNNNQIFDVCA-UHFFFAOYSA-N

>  <UN GHS>
2A

>  <CASRN>
1003-14-1

> <Outcome>
1

>  <Index>
755

>  <StandardizerResult>
Clear Stereo (ID: ClearStereo)
Wedge Clean (ID: WedgeClean)
Mesomerize (ID: Mesomerize)
Tautomerize (ID: Tautomerize)
Add Explicit Hydrogens (ID: AddExplicitH)
Neutralize (ID: Neutralize)
Clean 2D (ID: Clean2D)

> <knn Distance>


> <CpId>
755

$$$$
756
  Mrv1532301301811342D          

 34 33  0  0  0  0            999 V2000
    3.6930   -1.2546    0.0000 C   0  0  0  0  0  0  0  0  0  0  0  0
    3.6930   -2.0796    0.0000 C   0  0  0  0  0  0  0  0  0  0  0  0
    3.6930   -2.9046    0.0000 C   0  0  0  0  0  0  0  0  0  0  0  0
    4.5180   -2.0796    0.0000 C   0  0  0  0  0  0  0  0  0  0  0  0
    4.9305   -2.7940    0.0000 O   0  0  0  0  0  0  0  0  0  0  0  0
    2.8680   -2.0796    0.0000 C   0  0  0  0  0  0  0  0  0  0  0  0
    2.4555   -1.3651    0.0000 O   0  0  0  0  0  0  0  0  0  0  0  0
    1.6305   -1.3651    0.0000 C   0  0  0  0  0  0  0  0  0  0  0  0
    1.2180   -2.0796    0.0000 O   0  0  0  0  0  0  0  0  0  0  0  0
    1.2180   -0.6506    0.0000 C   0  0  0  0  0  0  0  0  0  0  0  0
    1.9325   -0.2381    0.0000 C   0  0  0  0  0  0  0  0  0  0  0  0
    0.5036   -1.0631    0.0000 C   0  0  0  0  0  0  0  0  0  0  0  0
    0.8055    0.0639    0.0000 C   0  0  0  0  0  0  0  0  0  0  0  0
   -0.0195    0.0639    0.0000 O   0  0  0  0  0  0  0  0  0  0  0  0
    4.5180   -1.2546    0.0000 H   0  0  0  0  0  0  0  0  0  0  0  0
    3.6930   -0.4296    0.0000 H   0  0  0  0  0  0  0  0  0  0  0  0
    2.8680   -1.2546    0.0000 H   0  0  0  0  0  0  0  0  0  0  0  0
    2.8680   -2.9046    0.0000 H   0  0  0  0  0  0  0  0  0  0  0  0
    3.6930   -3.7296    0.0000 H   0  0  0  0  0  0  0  0  0  0  0  0
    4.5180   -2.9046    0.0000 H   0  0  0  0  0  0  0  0  0  0  0  0
    5.3305   -2.2228    0.0000 H   0  0  0  0  0  0  0  0  0  0  0  0
    5.1500   -1.5493    0.0000 H   0  0  0  0  0  0  0  0  0  0  0  0
    5.4037   -3.4698    0.0000 H   0  0  0  0  0  0  0  0  0  0  0  0
    2.0712   -2.2931    0.0000 H   0  0  0  0  0  0  0  0  0  0  0  0
    3.4514   -2.6629    0.0000 H   0  0  0  0  0  0  0  0  0  0  0  0
    2.3450   -0.9526    0.0000 H   0  0  0  0  0  0  0  0  0  0  0  0
    2.6470    0.1744    0.0000 H   0  0  0  0  0  0  0  0  0  0  0  0
    1.5200    0.4764    0.0000 H   0  0  0  0  0  0  0  0  0  0  0  0
    0.0911   -0.3486    0.0000 H   0  0  0  0  0  0  0  0  0  0  0  0
   -0.2109   -1.4756    0.0000 H   0  0  0  0  0  0  0  0  0  0  0  0
    0.9161   -1.7776    0.0000 H   0  0  0  0  0  0  0  0  0  0  0  0
    0.5920    0.8607    0.0000 H   0  0  0  0  0  0  0  0  0  0  0  0
    1.6024   -0.1497    0.0000 H   0  0  0  0  0  0  0  0  0  0  0  0
   -0.6740    0.5661    0.0000 H   0  0  0  0  0  0  0  0  0  0  0  0
  1  2  1  0  0  0  0
  2  3  1  0  0  0  0
  2  4  1  0  0  0  0
  4  5  1  0  0  0  0
  2  6  1  0  0  0  0
  6  7  1  0  0  0  0
  7  8  1  0  0  0  0
  8  9  2  0  0  0  0
  8 10  1  0  0  0  0
 10 11  1  0  0  0  0
 10 12  1  0  0  0  0
 10 13  1  0  0  0  0
 13 14  1  0  0  0  0
  1 15  1  0  0  0  0
  1 16  1  0  0  0  0
  1 17  1  0  0  0  0
  3 18  1  0  0  0  0
  3 19  1  0  0  0  0
  3 20  1  0  0  0  0
  4 21  1  0  0  0  0
  4 22  1  0  0  0  0
  5 23  1  0  0  0  0
  6 24  1  0  0  0  0
  6 25  1  0  0  0  0
 11 26  1  0  0  0  0
 11 27  1  0  0  0  0
 11 28  1  0  0  0  0
 12 29  1  0  0  0  0
 12 30  1  0  0  0  0
 12 31  1  0  0  0  0
 13 32  1  0  0  0  0
 13 33  1  0  0  0  0
 14 34  1  0  0  0  0
M  END
>  <InChIKey>
SZCWBURCISJFEZ-UHFFFAOYSA-N

>  <UN GHS>
1

>  <CASRN>
1115-20-4

> <Outcome>
1

>  <Index>
756

>  <StandardizerResult>
Clear Stereo (ID: ClearStereo)
Wedge Clean (ID: WedgeClean)
Mesomerize (ID: Mesomerize)
Tautomerize (ID: Tautomerize)
Add Explicit Hydrogens (ID: AddExplicitH)
Neutralize (ID: Neutralize)
Clean 2D (ID: Clean2D)

> <knn Distance>


> <CpId>
756

$$$$
757
  Mrv1532301301811342D          

 28 27  0  0  0  0            999 V2000
    0.9062   -3.3301    0.0000 O   0  0  0  0  0  0  0  0  0  0  0  0
    1.6207   -2.9176    0.0000 C   0  0  0  0  0  0  0  0  0  0  0  0
    2.3351   -3.3301    0.0000 O   0  0  0  0  0  0  0  0  0  0  0  0
    1.6207   -2.0926    0.0000 C   0  0  0  0  0  0  0  0  0  0  0  0
    0.9062   -1.6801    0.0000 C   0  0  0  0  0  0  0  0  0  0  0  0
    0.9062   -0.8551    0.0000 C   0  0  0  0  0  0  0  0  0  0  0  0
    0.0812   -0.8551    0.0000 C   0  0  0  0  0  0  0  0  0  0  0  0
   -0.3313   -1.5696    0.0000 C   0  0  0  0  0  0  0  0  0  0  0  0
   -1.1563   -1.5696    0.0000 O   0  0  0  0  0  0  0  0  0  0  0  0
    0.0812   -2.2841    0.0000 O   0  0  0  0  0  0  0  0  0  0  0  0
    1.7312   -0.8551    0.0000 C   0  0  0  0  0  0  0  0  0  0  0  0
    2.1437   -1.5696    0.0000 O   0  0  0  0  0  0  0  0  0  0  0  0
    2.1437   -0.1407    0.0000 O   0  0  0  0  0  0  0  0  0  0  0  0
    0.9062   -0.0301    0.0000 P   0  0  0  0  0  0  0  0  0  0  0  0
    0.9062    0.7949    0.0000 O   0  0  0  0  0  0  0  0  0  0  0  0
    1.7312   -0.0301    0.0000 O   0  0  0  0  0  0  0  0  0  0  0  0
    0.0812   -0.0301    0.0000 O   0  0  0  0  0  0  0  0  0  0  0  0
    0.1917   -2.9176    0.0000 H   0  0  0  0  0  0  0  0  0  0  0  0
    2.3829   -2.4084    0.0000 H   0  0  0  0  0  0  0  0  0  0  0  0
    0.9062   -2.5051    0.0000 H   0  0  0  0  0  0  0  0  0  0  0  0
    0.1310   -1.3980    0.0000 H   0  0  0  0  0  0  0  0  0  0  0  0
    0.1310   -1.9623    0.0000 H   0  0  0  0  0  0  0  0  0  0  0  0
   -0.5508   -0.3248    0.0000 H   0  0  0  0  0  0  0  0  0  0  0  0
   -0.7313   -0.9984    0.0000 H   0  0  0  0  0  0  0  0  0  0  0  0
   -1.8935   -1.9400    0.0000 H   0  0  0  0  0  0  0  0  0  0  0  0
    2.9034   -1.2478    0.0000 H   0  0  0  0  0  0  0  0  0  0  0  0
    1.6207    1.2074    0.0000 H   0  0  0  0  0  0  0  0  0  0  0  0
    1.8389    0.7878    0.0000 H   0  0  0  0  0  0  0  0  0  0  0  0
  1  2  1  0  0  0  0
  2  3  2  0  0  0  0
  2  4  1  0  0  0  0
  4  5  1  0  0  0  0
  5  6  1  0  0  0  0
  6  7  1  0  0  0  0
  7  8  1  0  0  0  0
  8  9  1  0  0  0  0
  8 10  2  0  0  0  0
  6 11  1  0  0  0  0
 11 12  1  0  0  0  0
 11 13  2  0  0  0  0
  6 14  1  0  0  0  0
 14 15  1  0  0  0  0
 14 16  1  0  0  0  0
 14 17  2  0  0  0  0
  1 18  1  0  0  0  0
  4 19  1  0  0  0  0
  4 20  1  0  0  0  0
  5 21  1  0  0  0  0
  5 22  1  0  0  0  0
  7 23  1  0  0  0  0
  7 24  1  0  0  0  0
  9 25  1  0  0  0  0
 12 26  1  0  0  0  0
 15 27  1  0  0  0  0
 16 28  1  0  0  0  0
M  END
>  <InChIKey>
SZHQPBJEOCHCKM-UHFFFAOYSA-N

>  <UN GHS>
2B

>  <CASRN>
37971-36-1

> <Outcome>
1

>  <Index>
757

>  <StandardizerResult>
Clear Stereo (ID: ClearStereo)
Wedge Clean (ID: WedgeClean)
Mesomerize (ID: Mesomerize)
Tautomerize (ID: Tautomerize)
Add Explicit Hydrogens (ID: AddExplicitH)
Neutralize (ID: Neutralize)
Clean 2D (ID: Clean2D)

> <knn Distance>


> <CpId>
757

$$$$
758
  Mrv1532301301811342D          

 67 66  0  0  0  0            999 V2000
   -1.6717    3.9854    0.0000 C   0  0  0  0  0  0  0  0  0  0  0  0
   -0.9572    3.5729    0.0000 C   0  0  0  0  0  0  0  0  0  0  0  0
   -0.2427    3.9854    0.0000 C   0  0  0  0  0  0  0  0  0  0  0  0
    0.4717    3.5729    0.0000 C   0  0  0  0  0  0  0  0  0  0  0  0
    1.1862    3.9854    0.0000 C   0  0  0  0  0  0  0  0  0  0  0  0
    1.9007    3.5729    0.0000 C   0  0  0  0  0  0  0  0  0  0  0  0
    2.6151    3.9854    0.0000 C   0  0  0  0  0  0  0  0  0  0  0  0
    3.3296    3.5729    0.0000 C   0  0  0  0  0  0  0  0  0  0  0  0
    4.0441    3.9854    0.0000 C   0  0  0  0  0  0  0  0  0  0  0  0
    4.7586    3.5729    0.0000 C   0  0  0  0  0  0  0  0  0  0  0  0
    5.4730    3.9854    0.0000 C   0  0  0  0  0  0  0  0  0  0  0  0
    6.1875    3.5729    0.0000 C   0  0  0  0  0  0  0  0  0  0  0  0
    6.9020    3.9854    0.0000 C   0  0  0  0  0  0  0  0  0  0  0  0
    7.6164    3.5729    0.0000 C   0  0  0  0  0  0  0  0  0  0  0  0
    8.3309    3.9854    0.0000 C   0  0  0  0  0  0  0  0  0  0  0  0
    9.0454    3.5729    0.0000 C   0  0  0  0  0  0  0  0  0  0  0  0
    9.7599    3.9854    0.0000 C   0  0  0  0  0  0  0  0  0  0  0  0
   10.4743    3.5729    0.0000 C   0  0  0  0  0  0  0  0  0  0  0  0
   11.1888    3.9854    0.0000 N   0  0  0  0  0  0  0  0  0  0  0  0
   11.9033    3.5729    0.0000 C   0  0  0  0  0  0  0  0  0  0  0  0
   12.6177    3.9854    0.0000 C   0  0  0  0  0  0  0  0  0  0  0  0
   13.3322    3.5729    0.0000 C   0  0  0  0  0  0  0  0  0  0  0  0
   14.0467    3.9854    0.0000 N   0  0  0  0  0  0  0  0  0  0  0  0
   -1.2592    4.6999    0.0000 H   0  0  0  0  0  0  0  0  0  0  0  0
   -2.3862    4.3979    0.0000 H   0  0  0  0  0  0  0  0  0  0  0  0
   -2.0842    3.2710    0.0000 H   0  0  0  0  0  0  0  0  0  0  0  0
   -1.3275    2.8357    0.0000 H   0  0  0  0  0  0  0  0  0  0  0  0
   -0.5870    2.8357    0.0000 H   0  0  0  0  0  0  0  0  0  0  0  0
    0.1275    4.7227    0.0000 H   0  0  0  0  0  0  0  0  0  0  0  0
   -0.6130    4.7227    0.0000 H   0  0  0  0  0  0  0  0  0  0  0  0
    0.1015    2.8357    0.0000 H   0  0  0  0  0  0  0  0  0  0  0  0
    0.8420    2.8357    0.0000 H   0  0  0  0  0  0  0  0  0  0  0  0
    1.5565    4.7227    0.0000 H   0  0  0  0  0  0  0  0  0  0  0  0
    0.8159    4.7227    0.0000 H   0  0  0  0  0  0  0  0  0  0  0  0
    1.5304    2.8357    0.0000 H   0  0  0  0  0  0  0  0  0  0  0  0
    2.2709    2.8357    0.0000 H   0  0  0  0  0  0  0  0  0  0  0  0
    2.9854    4.7227    0.0000 H   0  0  0  0  0  0  0  0  0  0  0  0
    2.2449    4.7227    0.0000 H   0  0  0  0  0  0  0  0  0  0  0  0
    2.9594    2.8357    0.0000 H   0  0  0  0  0  0  0  0  0  0  0  0
    3.6999    2.8357    0.0000 H   0  0  0  0  0  0  0  0  0  0  0  0
    4.0441    4.8104    0.0000 H   0  0  0  0  0  0  0  0  0  0  0  0
    4.7586    2.7479    0.0000 H   0  0  0  0  0  0  0  0  0  0  0  0
    5.8433    4.7227    0.0000 H   0  0  0  0  0  0  0  0  0  0  0  0
    5.1028    4.7227    0.0000 H   0  0  0  0  0  0  0  0  0  0  0  0
    5.8172    2.8357    0.0000 H   0  0  0  0  0  0  0  0  0  0  0  0
    6.5578    2.8357    0.0000 H   0  0  0  0  0  0  0  0  0  0  0  0
    7.2722    4.7227    0.0000 H   0  0  0  0  0  0  0  0  0  0  0  0
    6.5317    4.7227    0.0000 H   0  0  0  0  0  0  0  0  0  0  0  0
    7.2462    2.8357    0.0000 H   0  0  0  0  0  0  0  0  0  0  0  0
    7.9867    2.8357    0.0000 H   0  0  0  0  0  0  0  0  0  0  0  0
    8.7012    4.7227    0.0000 H   0  0  0  0  0  0  0  0  0  0  0  0
    7.9607    4.7227    0.0000 H   0  0  0  0  0  0  0  0  0  0  0  0
    8.6751    2.8357    0.0000 H   0  0  0  0  0  0  0  0  0  0  0  0
    9.4156    2.8357    0.0000 H   0  0  0  0  0  0  0  0  0  0  0  0
   10.1301    4.7227    0.0000 H   0  0  0  0  0  0  0  0  0  0  0  0
    9.3896    4.7227    0.0000 H   0  0  0  0  0  0  0  0  0  0  0  0
   10.1041    2.8357    0.0000 H   0  0  0  0  0  0  0  0  0  0  0  0
   10.8446    2.8357    0.0000 H   0  0  0  0  0  0  0  0  0  0  0  0
   11.1888    4.8104    0.0000 H   0  0  0  0  0  0  0  0  0  0  0  0
   11.5330    2.8357    0.0000 H   0  0  0  0  0  0  0  0  0  0  0  0
   12.2735    2.8357    0.0000 H   0  0  0  0  0  0  0  0  0  0  0  0
   12.9880    4.7227    0.0000 H   0  0  0  0  0  0  0  0  0  0  0  0
   12.2475    4.7227    0.0000 H   0  0  0  0  0  0  0  0  0  0  0  0
   12.9619    2.8357    0.0000 H   0  0  0  0  0  0  0  0  0  0  0  0
   13.7025    2.8357    0.0000 H   0  0  0  0  0  0  0  0  0  0  0  0
   14.7612    3.5729    0.0000 H   0  0  0  0  0  0  0  0  0  0  0  0
   14.0467    4.8104    0.0000 H   0  0  0  0  0  0  0  0  0  0  0  0
  1  2  1  0  0  0  0
  2  3  1  0  0  0  0
  3  4  1  0  0  0  0
  4  5  1  0  0  0  0
  5  6  1  0  0  0  0
  6  7  1  0  0  0  0
  7  8  1  0  0  0  0
  9  8  1  4  0  0  0
  9 10  2  0  0  0  0
 10 11  1  0  0  0  0
 11 12  1  0  0  0  0
 12 13  1  0  0  0  0
 13 14  1  0  0  0  0
 14 15  1  0  0  0  0
 15 16  1  0  0  0  0
 16 17  1  0  0  0  0
 17 18  1  0  0  0  0
 18 19  1  0  0  0  0
 19 20  1  0  0  0  0
 20 21  1  0  0  0  0
 21 22  1  0  0  0  0
 22 23  1  0  0  0  0
  1 24  1  0  0  0  0
  1 25  1  0  0  0  0
  1 26  1  0  0  0  0
  2 27  1  0  0  0  0
  2 28  1  0  0  0  0
  3 29  1  0  0  0  0
  3 30  1  0  0  0  0
  4 31  1  0  0  0  0
  4 32  1  0  0  0  0
  5 33  1  0  0  0  0
  5 34  1  0  0  0  0
  6 35  1  0  0  0  0
  6 36  1  0  0  0  0
  7 37  1  0  0  0  0
  7 38  1  0  0  0  0
  8 39  1  0  0  0  0
  8 40  1  0  0  0  0
  9 41  1  0  0  0  0
 10 42  1  0  0  0  0
 11 43  1  0  0  0  0
 11 44  1  0  0  0  0
 12 45  1  0  0  0  0
 12 46  1  0  0  0  0
 13 47  1  0  0  0  0
 13 48  1  0  0  0  0
 14 49  1  0  0  0  0
 14 50  1  0  0  0  0
 15 51  1  0  0  0  0
 15 52  1  0  0  0  0
 16 53  1  0  0  0  0
 16 54  1  0  0  0  0
 17 55  1  0  0  0  0
 17 56  1  0  0  0  0
 18 57  1  0  0  0  0
 18 58  1  0  0  0  0
 19 59  1  0  0  0  0
 20 60  1  0  0  0  0
 20 61  1  0  0  0  0
 21 62  1  0  0  0  0
 21 63  1  0  0  0  0
 22 64  1  0  0  0  0
 22 65  1  0  0  0  0
 23 66  1  0  0  0  0
 23 67  1  0  0  0  0
M  END
>  <InChIKey>
TUFJPPAQOXUHRI-KTKRTIGZSA-N

>  <UN GHS>
2A

>  <CASRN>
34140-91-5

> <Outcome>
1

>  <Index>
758

>  <StandardizerResult>
Clear Stereo (ID: ClearStereo)
Wedge Clean (ID: WedgeClean)
Mesomerize (ID: Mesomerize)
Tautomerize (ID: Tautomerize)
Add Explicit Hydrogens (ID: AddExplicitH)
Neutralize (ID: Neutralize)
Clean 2D (ID: Clean2D)

> <knn Distance>


> <CpId>
758

$$$$
759
  Mrv1532301301811342D          

 44 43  0  0  0  0            999 V2000
    3.5211    2.8575    0.0000 C   0  0  0  0  0  0  0  0  0  0  0  0
    4.2355    3.2700    0.0000 C   0  0  0  0  0  0  0  0  0  0  0  0
    4.9500    2.8575    0.0000 C   0  0  0  0  0  0  0  0  0  0  0  0
    5.6645    3.2700    0.0000 C   0  0  0  0  0  0  0  0  0  0  0  0
    6.3789    2.8575    0.0000 C   0  0  0  0  0  0  0  0  0  0  0  0
    7.0934    3.2700    0.0000 C   0  0  0  0  0  0  0  0  0  0  0  0
    7.8079    2.8575    0.0000 C   0  0  0  0  0  0  0  0  0  0  0  0
    8.5224    3.2700    0.0000 C   0  0  0  0  0  0  0  0  0  0  0  0
    9.2368    2.8575    0.0000 C   0  0  0  0  0  0  0  0  0  0  0  0
    9.9513    3.2700    0.0000 C   0  0  0  0  0  0  0  0  0  0  0  0
   10.6658    2.8575    0.0000 C   0  0  0  0  0  0  0  0  0  0  0  0
   11.3802    3.2700    0.0000 C   0  0  0  0  0  0  0  0  0  0  0  0
   12.0947    2.8575    0.0000 O   0  0  0  0  0  0  0  0  0  0  0  0
   12.8092    3.2700    0.0000 P   0  0  0  0  0  0  0  0  0  0  0  0
   13.5237    3.6825    0.0000 O   0  0  0  0  0  0  0  0  0  0  0  0
   13.2217    2.5555    0.0000 O   0  0  0  0  0  0  0  0  0  0  0  0
   12.3967    3.9845    0.0000 O   0  0  0  0  0  0  0  0  0  0  0  0
    3.1086    3.5720    0.0000 H   0  0  0  0  0  0  0  0  0  0  0  0
    2.8066    2.4450    0.0000 H   0  0  0  0  0  0  0  0  0  0  0  0
    3.9336    2.1430    0.0000 H   0  0  0  0  0  0  0  0  0  0  0  0
    4.6058    4.0072    0.0000 H   0  0  0  0  0  0  0  0  0  0  0  0
    3.8653    4.0072    0.0000 H   0  0  0  0  0  0  0  0  0  0  0  0
    4.5797    2.1203    0.0000 H   0  0  0  0  0  0  0  0  0  0  0  0
    5.3203    2.1203    0.0000 H   0  0  0  0  0  0  0  0  0  0  0  0
    6.0347    4.0072    0.0000 H   0  0  0  0  0  0  0  0  0  0  0  0
    5.2942    4.0072    0.0000 H   0  0  0  0  0  0  0  0  0  0  0  0
    6.0087    2.1203    0.0000 H   0  0  0  0  0  0  0  0  0  0  0  0
    6.7492    2.1203    0.0000 H   0  0  0  0  0  0  0  0  0  0  0  0
    7.4637    4.0072    0.0000 H   0  0  0  0  0  0  0  0  0  0  0  0
    6.7232    4.0072    0.0000 H   0  0  0  0  0  0  0  0  0  0  0  0
    7.4376    2.1203    0.0000 H   0  0  0  0  0  0  0  0  0  0  0  0
    8.1781    2.1203    0.0000 H   0  0  0  0  0  0  0  0  0  0  0  0
    8.8926    4.0072    0.0000 H   0  0  0  0  0  0  0  0  0  0  0  0
    8.1521    4.0072    0.0000 H   0  0  0  0  0  0  0  0  0  0  0  0
    8.8666    2.1203    0.0000 H   0  0  0  0  0  0  0  0  0  0  0  0
    9.6071    2.1203    0.0000 H   0  0  0  0  0  0  0  0  0  0  0  0
   10.3216    4.0072    0.0000 H   0  0  0  0  0  0  0  0  0  0  0  0
    9.5810    4.0072    0.0000 H   0  0  0  0  0  0  0  0  0  0  0  0
   10.2955    2.1203    0.0000 H   0  0  0  0  0  0  0  0  0  0  0  0
   11.0360    2.1203    0.0000 H   0  0  0  0  0  0  0  0  0  0  0  0
   11.7505    4.0072    0.0000 H   0  0  0  0  0  0  0  0  0  0  0  0
   11.0100    4.0072    0.0000 H   0  0  0  0  0  0  0  0  0  0  0  0
   14.2381    3.2700    0.0000 H   0  0  0  0  0  0  0  0  0  0  0  0
   12.8092    1.8411    0.0000 H   0  0  0  0  0  0  0  0  0  0  0  0
  1  2  1  0  0  0  0
  2  3  1  0  0  0  0
  3  4  1  0  0  0  0
  4  5  1  0  0  0  0
  5  6  1  0  0  0  0
  6  7  1  0  0  0  0
  7  8  1  0  0  0  0
  8  9  1  0  0  0  0
  9 10  1  0  0  0  0
 10 11  1  0  0  0  0
 11 12  1  0  0  0  0
 12 13  1  0  0  0  0
 13 14  1  0  0  0  0
 14 15  1  0  0  0  0
 14 16  1  0  0  0  0
 14 17  2  0  0  0  0
  1 18  1  0  0  0  0
  1 19  1  0  0  0  0
  1 20  1  0  0  0  0
  2 21  1  0  0  0  0
  2 22  1  0  0  0  0
  3 23  1  0  0  0  0
  3 24  1  0  0  0  0
  4 25  1  0  0  0  0
  4 26  1  0  0  0  0
  5 27  1  0  0  0  0
  5 28  1  0  0  0  0
  6 29  1  0  0  0  0
  6 30  1  0  0  0  0
  7 31  1  0  0  0  0
  7 32  1  0  0  0  0
  8 33  1  0  0  0  0
  8 34  1  0  0  0  0
  9 35  1  0  0  0  0
  9 36  1  0  0  0  0
 10 37  1  0  0  0  0
 10 38  1  0  0  0  0
 11 39  1  0  0  0  0
 11 40  1  0  0  0  0
 12 41  1  0  0  0  0
 12 42  1  0  0  0  0
 15 43  1  0  0  0  0
 16 44  1  0  0  0  0
M  END
>  <InChIKey>
TVACALAUIQMRDF-UHFFFAOYSA-L

>  <UN GHS>
1

>  <CASRN>
39322-78-6

> <Outcome>
1

>  <Index>
759

>  <StandardizerResult>
Clear Stereo (ID: ClearStereo)
Wedge Clean (ID: WedgeClean)
Mesomerize (ID: Mesomerize)
Tautomerize (ID: Tautomerize)
Add Explicit Hydrogens (ID: AddExplicitH)
Neutralize (ID: Neutralize)
Clean 2D (ID: Clean2D)

> <knn Distance>


> <CpId>
759

$$$$
760
  Mrv1532301301811342D          

  8  7  0  0  0  0            999 V2000
    2.0614   -0.7164    0.0000 O   0  0  0  0  0  0  0  0  0  0  0  0
    1.6489   -0.0019    0.0000 C   0  0  0  0  0  0  0  0  0  0  0  0
    0.8239   -0.0019    0.0000 C   0  0  0  0  0  0  0  0  0  0  0  0
   -0.0011   -0.0019    0.0000 C   0  0  0  0  0  0  0  0  0  0  0  0
    1.6489   -1.4309    0.0000 H   0  0  0  0  0  0  0  0  0  0  0  0
    2.3382    0.4514    0.0000 H   0  0  0  0  0  0  0  0  0  0  0  0
    1.6969    0.8217    0.0000 H   0  0  0  0  0  0  0  0  0  0  0  0
   -0.8261   -0.0019    0.0000 H   0  0  0  0  0  0  0  0  0  0  0  0
  1  2  1  0  0  0  0
  2  3  1  0  0  0  0
  3  4  3  0  0  0  0
  1  5  1  0  0  0  0
  2  6  1  0  0  0  0
  2  7  1  0  0  0  0
  4  8  1  0  0  0  0
M  END
>  <InChIKey>
TVDSBUOJIPERQY-UHFFFAOYSA-N

>  <UN GHS>
1

>  <CASRN>
107-19-7

> <Outcome>
1

>  <Index>
760

>  <StandardizerResult>
Clear Stereo (ID: ClearStereo)
Wedge Clean (ID: WedgeClean)
Mesomerize (ID: Mesomerize)
Tautomerize (ID: Tautomerize)
Add Explicit Hydrogens (ID: AddExplicitH)
Neutralize (ID: Neutralize)
Clean 2D (ID: Clean2D)

> <knn Distance>


> <CpId>
760

$$$$
761
  Mrv1532301301811342D          

 38 37  0  0  0  0            999 V2000
    4.7586    3.5724    0.0000 O   0  0  0  0  0  0  0  0  0  0  0  0
    5.4730    3.9849    0.0000 C   0  0  0  0  0  0  0  0  0  0  0  0
    5.4730    4.8099    0.0000 O   0  0  0  0  0  0  0  0  0  0  0  0
    6.1875    3.5724    0.0000 C   0  0  0  0  0  0  0  0  0  0  0  0
    6.9020    3.9849    0.0000 C   0  0  0  0  0  0  0  0  0  0  0  0
    7.6164    3.5724    0.0000 C   0  0  0  0  0  0  0  0  0  0  0  0
    8.3309    3.9849    0.0000 C   0  0  0  0  0  0  0  0  0  0  0  0
    9.0454    3.5724    0.0000 C   0  0  0  0  0  0  0  0  0  0  0  0
    9.7599    3.9849    0.0000 C   0  0  0  0  0  0  0  0  0  0  0  0
   10.4743    3.5724    0.0000 C   0  0  0  0  0  0  0  0  0  0  0  0
   11.1888    3.9849    0.0000 C   0  0  0  0  0  0  0  0  0  0  0  0
   11.9033    3.5724    0.0000 C   0  0  0  0  0  0  0  0  0  0  0  0
   12.6177    3.9849    0.0000 C   0  0  0  0  0  0  0  0  0  0  0  0
   13.3322    3.5724    0.0000 C   0  0  0  0  0  0  0  0  0  0  0  0
   14.0467    3.9849    0.0000 O   0  0  0  0  0  0  0  0  0  0  0  0
   13.3322    2.7474    0.0000 O   0  0  0  0  0  0  0  0  0  0  0  0
    4.0441    3.9849    0.0000 H   0  0  0  0  0  0  0  0  0  0  0  0
    5.8172    2.8352    0.0000 H   0  0  0  0  0  0  0  0  0  0  0  0
    6.5578    2.8352    0.0000 H   0  0  0  0  0  0  0  0  0  0  0  0
    7.2722    4.7221    0.0000 H   0  0  0  0  0  0  0  0  0  0  0  0
    6.5317    4.7221    0.0000 H   0  0  0  0  0  0  0  0  0  0  0  0
    7.2462    2.8352    0.0000 H   0  0  0  0  0  0  0  0  0  0  0  0
    7.9867    2.8352    0.0000 H   0  0  0  0  0  0  0  0  0  0  0  0
    8.7012    4.7221    0.0000 H   0  0  0  0  0  0  0  0  0  0  0  0
    7.9607    4.7221    0.0000 H   0  0  0  0  0  0  0  0  0  0  0  0
    8.6751    2.8352    0.0000 H   0  0  0  0  0  0  0  0  0  0  0  0
    9.4156    2.8352    0.0000 H   0  0  0  0  0  0  0  0  0  0  0  0
   10.1301    4.7221    0.0000 H   0  0  0  0  0  0  0  0  0  0  0  0
    9.3896    4.7221    0.0000 H   0  0  0  0  0  0  0  0  0  0  0  0
   10.1041    2.8352    0.0000 H   0  0  0  0  0  0  0  0  0  0  0  0
   10.8446    2.8352    0.0000 H   0  0  0  0  0  0  0  0  0  0  0  0
   11.5591    4.7221    0.0000 H   0  0  0  0  0  0  0  0  0  0  0  0
   10.8185    4.7221    0.0000 H   0  0  0  0  0  0  0  0  0  0  0  0
   11.5330    2.8352    0.0000 H   0  0  0  0  0  0  0  0  0  0  0  0
   12.2735    2.8352    0.0000 H   0  0  0  0  0  0  0  0  0  0  0  0
   12.9880    4.7221    0.0000 H   0  0  0  0  0  0  0  0  0  0  0  0
   12.2475    4.7221    0.0000 H   0  0  0  0  0  0  0  0  0  0  0  0
   14.7612    3.5724    0.0000 H   0  0  0  0  0  0  0  0  0  0  0  0
  1  2  1  0  0  0  0
  2  3  2  0  0  0  0
  2  4  1  0  0  0  0
  4  5  1  0  0  0  0
  5  6  1  0  0  0  0
  6  7  1  0  0  0  0
  7  8  1  0  0  0  0
  8  9  1  0  0  0  0
  9 10  1  0  0  0  0
 10 11  1  0  0  0  0
 11 12  1  0  0  0  0
 12 13  1  0  0  0  0
 13 14  1  0  0  0  0
 14 15  1  0  0  0  0
 14 16  2  0  0  0  0
  1 17  1  0  0  0  0
  4 18  1  0  0  0  0
  4 19  1  0  0  0  0
  5 20  1  0  0  0  0
  5 21  1  0  0  0  0
  6 22  1  0  0  0  0
  6 23  1  0  0  0  0
  7 24  1  0  0  0  0
  7 25  1  0  0  0  0
  8 26  1  0  0  0  0
  8 27  1  0  0  0  0
  9 28  1  0  0  0  0
  9 29  1  0  0  0  0
 10 30  1  0  0  0  0
 10 31  1  0  0  0  0
 11 32  1  0  0  0  0
 11 33  1  0  0  0  0
 12 34  1  0  0  0  0
 12 35  1  0  0  0  0
 13 36  1  0  0  0  0
 13 37  1  0  0  0  0
 15 38  1  0  0  0  0
M  END
>  <InChIKey>
TVIDDXQYHWJXFK-UHFFFAOYSA-N

>  <UN GHS>
2A

>  <CASRN>
693-23-2

> <Outcome>
1

>  <Index>
761

>  <StandardizerResult>
Clear Stereo (ID: ClearStereo)
Wedge Clean (ID: WedgeClean)
Mesomerize (ID: Mesomerize)
Tautomerize (ID: Tautomerize)
Add Explicit Hydrogens (ID: AddExplicitH)
Neutralize (ID: Neutralize)
Clean 2D (ID: Clean2D)

> <knn Distance>


> <CpId>
761

$$$$
768
  Mrv1532301301811342D          

  8  7  0  0  0  0            999 V2000
    2.0625   -0.7145    0.0000 C   0  0  0  0  0  0  0  0  0  0  0  0
    1.2375   -0.7145    0.0000 O   0  0  0  0  0  0  0  0  0  0  0  0
    0.8250   -0.0000    0.0000 C   0  0  0  0  0  0  0  0  0  0  0  0
    0.0000   -0.0000    0.0000 O   0  0  0  0  0  0  0  0  0  0  0  0
    2.0625   -1.5395    0.0000 H   0  0  0  0  0  0  0  0  0  0  0  0
    2.8875   -0.7145    0.0000 H   0  0  0  0  0  0  0  0  0  0  0  0
    2.0625    0.1105    0.0000 H   0  0  0  0  0  0  0  0  0  0  0  0
    1.2375    0.7145    0.0000 H   0  0  0  0  0  0  0  0  0  0  0  0
  1  2  1  0  0  0  0
  2  3  1  0  0  0  0
  3  4  2  0  0  0  0
  1  5  1  0  0  0  0
  1  6  1  0  0  0  0
  1  7  1  0  0  0  0
  3  8  1  0  0  0  0
M  END
>  <InChIKey>
TZIHFWKZFHZASV-UHFFFAOYSA-N

>  <UN GHS>
2B

>  <CASRN>
107-31-3

> <Outcome>
1

>  <Index>
768

>  <StandardizerResult>
Clear Stereo (ID: ClearStereo)
Wedge Clean (ID: WedgeClean)
Mesomerize (ID: Mesomerize)
Tautomerize (ID: Tautomerize)
Add Explicit Hydrogens (ID: AddExplicitH)
Neutralize (ID: Neutralize)
Clean 2D (ID: Clean2D)

> <knn Distance>


> <CpId>
768

$$$$
769
  Mrv1532301301811342D          

 52 51  0  0  0  0            999 V2000
    1.9134   -0.5102    0.0000 C   0  0  0  0  0  0  0  0  0  0  0  0
    1.9134    0.3148    0.0000 O   0  0  0  0  0  0  0  0  0  0  0  0
    1.1989    0.7273    0.0000 Si  0  0  0  0  0  0  0  0  0  0  0  0
    0.4844    1.1398    0.0000 C   0  0  0  0  0  0  0  0  0  0  0  0
    0.4844    1.9648    0.0000 C   0  0  0  0  0  0  0  0  0  0  0  0
   -0.2300    2.3773    0.0000 C   0  0  0  0  0  0  0  0  0  0  0  0
   -0.2300    3.2023    0.0000 N   0  0  0  0  0  0  0  0  0  0  0  0
   -0.9445    3.6148    0.0000 C   0  0  0  0  0  0  0  0  0  0  0  0
   -0.9445    4.4398    0.0000 C   0  0  0  0  0  0  0  0  0  0  0  0
   -1.6590    4.8523    0.0000 C   0  0  0  0  0  0  0  0  0  0  0  0
   -1.6590    5.6773    0.0000 Si  0  0  0  0  0  0  0  0  0  0  0  0
   -1.6590    6.5023    0.0000 O   0  0  0  0  0  0  0  0  0  0  0  0
   -2.3734    6.9148    0.0000 C   0  0  0  0  0  0  0  0  0  0  0  0
   -0.8340    5.6773    0.0000 O   0  0  0  0  0  0  0  0  0  0  0  0
   -0.4215    6.3918    0.0000 C   0  0  0  0  0  0  0  0  0  0  0  0
   -2.4840    5.6773    0.0000 O   0  0  0  0  0  0  0  0  0  0  0  0
   -2.8965    6.3918    0.0000 C   0  0  0  0  0  0  0  0  0  0  0  0
    1.6114    1.4418    0.0000 O   0  0  0  0  0  0  0  0  0  0  0  0
    1.1989    2.1563    0.0000 C   0  0  0  0  0  0  0  0  0  0  0  0
    0.7864    0.0129    0.0000 O   0  0  0  0  0  0  0  0  0  0  0  0
   -0.0386    0.0129    0.0000 C   0  0  0  0  0  0  0  0  0  0  0  0
    1.0884   -0.5102    0.0000 H   0  0  0  0  0  0  0  0  0  0  0  0
    1.9134   -1.3352    0.0000 H   0  0  0  0  0  0  0  0  0  0  0  0
    2.7384   -0.5102    0.0000 H   0  0  0  0  0  0  0  0  0  0  0  0
   -0.3392    1.0919    0.0000 H   0  0  0  0  0  0  0  0  0  0  0  0
    0.0311    0.4506    0.0000 H   0  0  0  0  0  0  0  0  0  0  0  0
    0.5921    2.7828    0.0000 H   0  0  0  0  0  0  0  0  0  0  0  0
    1.1390    1.4626    0.0000 H   0  0  0  0  0  0  0  0  0  0  0  0
   -1.0536    2.3294    0.0000 H   0  0  0  0  0  0  0  0  0  0  0  0
   -0.6834    1.6881    0.0000 H   0  0  0  0  0  0  0  0  0  0  0  0
    0.1639    3.9272    0.0000 H   0  0  0  0  0  0  0  0  0  0  0  0
   -1.7681    3.5669    0.0000 H   0  0  0  0  0  0  0  0  0  0  0  0
   -1.3978    2.9256    0.0000 H   0  0  0  0  0  0  0  0  0  0  0  0
   -0.1209    4.4878    0.0000 H   0  0  0  0  0  0  0  0  0  0  0  0
   -0.4912    5.1291    0.0000 H   0  0  0  0  0  0  0  0  0  0  0  0
   -2.4826    4.8044    0.0000 H   0  0  0  0  0  0  0  0  0  0  0  0
   -2.1123    4.1631    0.0000 H   0  0  0  0  0  0  0  0  0  0  0  0
   -1.6875    7.3732    0.0000 H   0  0  0  0  0  0  0  0  0  0  0  0
   -2.4811    7.7328    0.0000 H   0  0  0  0  0  0  0  0  0  0  0  0
   -3.1547    7.1800    0.0000 H   0  0  0  0  0  0  0  0  0  0  0  0
    0.2930    5.9793    0.0000 H   0  0  0  0  0  0  0  0  0  0  0  0
   -0.0090    7.1063    0.0000 H   0  0  0  0  0  0  0  0  0  0  0  0
   -1.1359    6.8043    0.0000 H   0  0  0  0  0  0  0  0  0  0  0  0
   -3.7205    6.3522    0.0000 H   0  0  0  0  0  0  0  0  0  0  0  0
   -3.4759    5.8045    0.0000 H   0  0  0  0  0  0  0  0  0  0  0  0
   -2.0785    6.2841    0.0000 H   0  0  0  0  0  0  0  0  0  0  0  0
    2.0074    1.9921    0.0000 H   0  0  0  0  0  0  0  0  0  0  0  0
    1.8574    2.6533    0.0000 H   0  0  0  0  0  0  0  0  0  0  0  0
    1.2627    2.9788    0.0000 H   0  0  0  0  0  0  0  0  0  0  0  0
   -0.7581    0.4164    0.0000 H   0  0  0  0  0  0  0  0  0  0  0  0
   -0.6661   -0.5227    0.0000 H   0  0  0  0  0  0  0  0  0  0  0  0
    0.2468   -0.7612    0.0000 H   0  0  0  0  0  0  0  0  0  0  0  0
  1  2  1  0  0  0  0
  2  3  1  0  0  0  0
  3  4  1  0  0  0  0
  4  5  1  0  0  0  0
  5  6  1  0  0  0  0
  6  7  1  0  0  0  0
  7  8  1  0  0  0  0
  8  9  1  0  0  0  0
  9 10  1  0  0  0  0
 10 11  1  0  0  0  0
 11 12  1  0  0  0  0
 12 13  1  0  0  0  0
 11 14  1  0  0  0  0
 14 15  1  0  0  0  0
 11 16  1  0  0  0  0
 16 17  1  0  0  0  0
  3 18  1  0  0  0  0
 18 19  1  0  0  0  0
  3 20  1  0  0  0  0
 20 21  1  0  0  0  0
  1 22  1  0  0  0  0
  1 23  1  0  0  0  0
  1 24  1  0  0  0  0
  4 25  1  0  0  0  0
  4 26  1  0  0  0  0
  5 27  1  0  0  0  0
  5 28  1  0  0  0  0
  6 29  1  0  0  0  0
  6 30  1  0  0  0  0
  7 31  1  0  0  0  0
  8 32  1  0  0  0  0
  8 33  1  0  0  0  0
  9 34  1  0  0  0  0
  9 35  1  0  0  0  0
 10 36  1  0  0  0  0
 10 37  1  0  0  0  0
 13 38  1  0  0  0  0
 13 39  1  0  0  0  0
 13 40  1  0  0  0  0
 15 41  1  0  0  0  0
 15 42  1  0  0  0  0
 15 43  1  0  0  0  0
 17 44  1  0  0  0  0
 17 45  1  0  0  0  0
 17 46  1  0  0  0  0
 19 47  1  0  0  0  0
 19 48  1  0  0  0  0
 19 49  1  0  0  0  0
 21 50  1  0  0  0  0
 21 51  1  0  0  0  0
 21 52  1  0  0  0  0
M  END
>  <InChIKey>
TZZGHGKTHXIOMN-UHFFFAOYSA-N

>  <UN GHS>
1

>  <CASRN>
82985-35-1

> <Outcome>
1

>  <Index>
769

>  <StandardizerResult>
Clear Stereo (ID: ClearStereo)
Wedge Clean (ID: WedgeClean)
Mesomerize (ID: Mesomerize)
Tautomerize (ID: Tautomerize)
Add Explicit Hydrogens (ID: AddExplicitH)
Neutralize (ID: Neutralize)
Clean 2D (ID: Clean2D)

> <knn Distance>


> <CpId>
769

$$$$
772
  Mrv1532301301811342D          

 26 25  0  0  0  0            999 V2000
   -1.6110    0.7177    0.0000 C   0  0  0  0  0  0  0  0  0  0  0  0
   -0.8965    1.1302    0.0000 C   0  0  0  0  0  0  0  0  0  0  0  0
   -0.8965    1.9552    0.0000 C   0  0  0  0  0  0  0  0  0  0  0  0
   -0.1821    0.7177    0.0000 C   0  0  0  0  0  0  0  0  0  0  0  0
    0.5324    1.1302    0.0000 C   0  0  0  0  0  0  0  0  0  0  0  0
    1.2469    0.7177    0.0000 C   0  0  0  0  0  0  0  0  0  0  0  0
    1.9614    1.1302    0.0000 C   0  0  0  0  0  0  0  0  0  0  0  0
    1.9614    1.9552    0.0000 C   0  0  0  0  0  0  0  0  0  0  0  0
    2.6758    0.7177    0.0000 C   0  0  0  0  0  0  0  0  0  0  0  0
    3.3903    1.1302    0.0000 C   0  0  0  0  0  0  0  0  0  0  0  0
   -2.0235    1.4322    0.0000 H   0  0  0  0  0  0  0  0  0  0  0  0
   -2.3255    0.3052    0.0000 H   0  0  0  0  0  0  0  0  0  0  0  0
   -1.1985    0.0033    0.0000 H   0  0  0  0  0  0  0  0  0  0  0  0
   -0.0715    1.9552    0.0000 H   0  0  0  0  0  0  0  0  0  0  0  0
   -0.8965    2.7802    0.0000 H   0  0  0  0  0  0  0  0  0  0  0  0
   -1.7215    1.9552    0.0000 H   0  0  0  0  0  0  0  0  0  0  0  0
   -0.1821   -0.1073    0.0000 H   0  0  0  0  0  0  0  0  0  0  0  0
    0.9027    1.8675    0.0000 H   0  0  0  0  0  0  0  0  0  0  0  0
    0.1622    1.8675    0.0000 H   0  0  0  0  0  0  0  0  0  0  0  0
    0.8766   -0.0195    0.0000 H   0  0  0  0  0  0  0  0  0  0  0  0
    1.6171   -0.0195    0.0000 H   0  0  0  0  0  0  0  0  0  0  0  0
    2.6758    2.3677    0.0000 H   0  0  0  0  0  0  0  0  0  0  0  0
    1.2469    2.3677    0.0000 H   0  0  0  0  0  0  0  0  0  0  0  0
    2.6758   -0.1073    0.0000 H   0  0  0  0  0  0  0  0  0  0  0  0
    4.1048    0.7177    0.0000 H   0  0  0  0  0  0  0  0  0  0  0  0
    3.3903    1.9552    0.0000 H   0  0  0  0  0  0  0  0  0  0  0  0
  1  2  1  0  0  0  0
  2  3  1  0  0  0  0
  2  4  2  0  0  0  0
  4  5  1  0  0  0  0
  5  6  1  0  0  0  0
  6  7  1  0  0  0  0
  7  8  2  0  0  0  0
  7  9  1  0  0  0  0
  9 10  2  0  0  0  0
  1 11  1  0  0  0  0
  1 12  1  0  0  0  0
  1 13  1  0  0  0  0
  3 14  1  0  0  0  0
  3 15  1  0  0  0  0
  3 16  1  0  0  0  0
  4 17  1  0  0  0  0
  5 18  1  0  0  0  0
  5 19  1  0  0  0  0
  6 20  1  0  0  0  0
  6 21  1  0  0  0  0
  8 22  1  0  0  0  0
  8 23  1  0  0  0  0
  9 24  1  0  0  0  0
 10 25  1  0  0  0  0
 10 26  1  0  0  0  0
M  END
>  <InChIKey>
UAHWPYUMFXYFJY-UHFFFAOYSA-N

>  <UN GHS>
2A

>  <CASRN>
123-35-3

> <Outcome>
1

>  <Index>
772

>  <StandardizerResult>
Clear Stereo (ID: ClearStereo)
Wedge Clean (ID: WedgeClean)
Mesomerize (ID: Mesomerize)
Tautomerize (ID: Tautomerize)
Add Explicit Hydrogens (ID: AddExplicitH)
Neutralize (ID: Neutralize)
Clean 2D (ID: Clean2D)

> <knn Distance>


> <CpId>
772

$$$$
773
  Mrv1532301301811342D          

 22 21  0  0  0  0            999 V2000
    1.2493    2.2161    0.0000 C   0  0  0  0  0  0  0  0  0  0  0  0
    0.8368    1.5016    0.0000 C   0  0  0  0  0  0  0  0  0  0  0  0
    0.0118    1.5016    0.0000 C   0  0  0  0  0  0  0  0  0  0  0  0
    1.2493    0.7871    0.0000 N   0  0  0  0  0  0  0  0  0  0  0  0
    0.8368    0.0727    0.0000 C   0  0  0  0  0  0  0  0  0  0  0  0
    1.2493   -0.6418    0.0000 C   0  0  0  0  0  0  0  0  0  0  0  0
    0.0118    0.0727    0.0000 C   0  0  0  0  0  0  0  0  0  0  0  0
    1.9638    1.8036    0.0000 H   0  0  0  0  0  0  0  0  0  0  0  0
    1.6618    2.9306    0.0000 H   0  0  0  0  0  0  0  0  0  0  0  0
    0.5349    2.6286    0.0000 H   0  0  0  0  0  0  0  0  0  0  0  0
    0.4243    2.2161    0.0000 H   0  0  0  0  0  0  0  0  0  0  0  0
   -0.5715    2.0850    0.0000 H   0  0  0  0  0  0  0  0  0  0  0  0
   -0.7026    1.0891    0.0000 H   0  0  0  0  0  0  0  0  0  0  0  0
    0.2253    0.7047    0.0000 H   0  0  0  0  0  0  0  0  0  0  0  0
    2.0743    0.7871    0.0000 H   0  0  0  0  0  0  0  0  0  0  0  0
    1.6618    0.0727    0.0000 H   0  0  0  0  0  0  0  0  0  0  0  0
    0.4524   -0.8553    0.0000 H   0  0  0  0  0  0  0  0  0  0  0  0
    1.2493   -1.4668    0.0000 H   0  0  0  0  0  0  0  0  0  0  0  0
    2.0462   -0.8553    0.0000 H   0  0  0  0  0  0  0  0  0  0  0  0
   -0.6514    0.5634    0.0000 H   0  0  0  0  0  0  0  0  0  0  0  0
   -0.6584   -0.4084    0.0000 H   0  0  0  0  0  0  0  0  0  0  0  0
    0.2645   -0.7127    0.0000 H   0  0  0  0  0  0  0  0  0  0  0  0
  1  2  1  0  0  0  0
  2  3  1  0  0  0  0
  2  4  1  0  0  0  0
  4  5  1  0  0  0  0
  5  6  1  0  0  0  0
  5  7  1  0  0  0  0
  1  8  1  0  0  0  0
  1  9  1  0  0  0  0
  1 10  1  0  0  0  0
  2 11  1  0  0  0  0
  3 12  1  0  0  0  0
  3 13  1  0  0  0  0
  3 14  1  0  0  0  0
  4 15  1  0  0  0  0
  5 16  1  0  0  0  0
  6 17  1  0  0  0  0
  6 18  1  0  0  0  0
  6 19  1  0  0  0  0
  7 20  1  0  0  0  0
  7 21  1  0  0  0  0
  7 22  1  0  0  0  0
M  END
>  <InChIKey>
UAOMVDZJSHZZME-UHFFFAOYSA-N

>  <UN GHS>
1

>  <CASRN>
108-18-9

> <Outcome>
1

>  <Index>
773

>  <StandardizerResult>
Clear Stereo (ID: ClearStereo)
Wedge Clean (ID: WedgeClean)
Mesomerize (ID: Mesomerize)
Tautomerize (ID: Tautomerize)
Add Explicit Hydrogens (ID: AddExplicitH)
Neutralize (ID: Neutralize)
Clean 2D (ID: Clean2D)

> <knn Distance>


> <CpId>
773

$$$$
779
  Mrv1532301301811342D          

 17 16  0  0  0  0            999 V2000
    2.4650   -1.4175    0.0000 C   0  0  0  0  0  0  0  0  0  0  0  0
    2.0525   -0.7030    0.0000 N   0  0  0  0  0  0  0  0  0  0  0  0
    2.4650    0.0115    0.0000 C   0  0  0  0  0  0  0  0  0  0  0  0
    1.2275   -0.7030    0.0000 C   0  0  0  0  0  0  0  0  0  0  0  0
    0.8150    0.0115    0.0000 C   0  0  0  0  0  0  0  0  0  0  0  0
   -0.0100    0.0115    0.0000 O   0  0  0  0  0  0  0  0  0  0  0  0
    1.7506   -1.8300    0.0000 H   0  0  0  0  0  0  0  0  0  0  0  0
    2.8775   -2.1319    0.0000 H   0  0  0  0  0  0  0  0  0  0  0  0
    3.1795   -1.0050    0.0000 H   0  0  0  0  0  0  0  0  0  0  0  0
    3.1795   -0.4010    0.0000 H   0  0  0  0  0  0  0  0  0  0  0  0
    2.8775    0.7259    0.0000 H   0  0  0  0  0  0  0  0  0  0  0  0
    1.7506    0.4240    0.0000 H   0  0  0  0  0  0  0  0  0  0  0  0
    0.5383   -1.1564    0.0000 H   0  0  0  0  0  0  0  0  0  0  0  0
    1.1796   -1.5266    0.0000 H   0  0  0  0  0  0  0  0  0  0  0  0
    1.5043    0.4648    0.0000 H   0  0  0  0  0  0  0  0  0  0  0  0
    0.8630    0.8351    0.0000 H   0  0  0  0  0  0  0  0  0  0  0  0
   -0.4225    0.7259    0.0000 H   0  0  0  0  0  0  0  0  0  0  0  0
  1  2  1  0  0  0  0
  2  3  1  0  0  0  0
  2  4  1  0  0  0  0
  4  5  1  0  0  0  0
  5  6  1  0  0  0  0
  1  7  1  0  0  0  0
  1  8  1  0  0  0  0
  1  9  1  0  0  0  0
  3 10  1  0  0  0  0
  3 11  1  0  0  0  0
  3 12  1  0  0  0  0
  4 13  1  0  0  0  0
  4 14  1  0  0  0  0
  5 15  1  0  0  0  0
  5 16  1  0  0  0  0
  6 17  1  0  0  0  0
M  END
>  <InChIKey>
UEEJHVSXFDXPFK-UHFFFAOYSA-N

>  <UN GHS>
1

>  <CASRN>
108-01-0

> <Outcome>
1

>  <Index>
779

>  <StandardizerResult>
Clear Stereo (ID: ClearStereo)
Wedge Clean (ID: WedgeClean)
Mesomerize (ID: Mesomerize)
Tautomerize (ID: Tautomerize)
Add Explicit Hydrogens (ID: AddExplicitH)
Neutralize (ID: Neutralize)
Clean 2D (ID: Clean2D)

> <knn Distance>


> <CpId>
779

$$$$
782
  Mrv1532301301811342D          

 33 35  0  0  0  0            999 V2000
    0.9384   -2.1474    0.0000 O   0  0  0  0  0  0  0  0  0  0  0  0
    1.1933   -1.3628    0.0000 C   0  0  0  0  0  0  0  0  0  0  0  0
    0.7084   -0.6954    0.0000 N   0  0  0  0  0  0  0  0  0  0  0  0
   -0.1166   -0.6954    0.0000 S   0  0  0  0  0  0  0  0  0  0  0  0
   -0.5291   -1.4098    0.0000 C   0  0  0  0  0  0  0  0  0  0  0  0
   -0.1166   -2.1243    0.0000 C   0  0  0  0  0  0  0  0  0  0  0  0
   -0.5291   -2.8388    0.0000 C   0  0  0  0  0  0  0  0  0  0  0  0
   -1.3541   -2.8388    0.0000 C   0  0  0  0  0  0  0  0  0  0  0  0
   -1.7666   -2.1243    0.0000 C   0  0  0  0  0  0  0  0  0  0  0  0
   -1.3541   -1.4098    0.0000 C   0  0  0  0  0  0  0  0  0  0  0  0
    1.1933   -0.0279    0.0000 C   0  0  0  0  0  0  0  0  0  0  0  0
    0.9384    0.7567    0.0000 O   0  0  0  0  0  0  0  0  0  0  0  0
    1.9779   -0.2829    0.0000 C   0  0  0  0  0  0  0  0  0  0  0  0
    2.6924    0.1296    0.0000 C   0  0  0  0  0  0  0  0  0  0  0  0
    3.4069   -0.2829    0.0000 C   0  0  0  0  0  0  0  0  0  0  0  0
    3.4069   -1.1079    0.0000 C   0  0  0  0  0  0  0  0  0  0  0  0
    2.6924   -1.5204    0.0000 C   0  0  0  0  0  0  0  0  0  0  0  0
    1.9779   -1.1079    0.0000 C   0  0  0  0  0  0  0  0  0  0  0  0
   -0.9416   -0.6954    0.0000 H   0  0  0  0  0  0  0  0  0  0  0  0
    0.6207   -2.4946    0.0000 H   0  0  0  0  0  0  0  0  0  0  0  0
    0.6207   -1.7541    0.0000 H   0  0  0  0  0  0  0  0  0  0  0  0
   -0.4811   -3.6624    0.0000 H   0  0  0  0  0  0  0  0  0  0  0  0
    0.1602   -3.2921    0.0000 H   0  0  0  0  0  0  0  0  0  0  0  0
   -2.0434   -3.2921    0.0000 H   0  0  0  0  0  0  0  0  0  0  0  0
   -1.4021   -3.6624    0.0000 H   0  0  0  0  0  0  0  0  0  0  0  0
   -2.5038   -1.7541    0.0000 H   0  0  0  0  0  0  0  0  0  0  0  0
   -2.5038   -2.4946    0.0000 H   0  0  0  0  0  0  0  0  0  0  0  0
   -1.8844   -0.7779    0.0000 H   0  0  0  0  0  0  0  0  0  0  0  0
   -2.1666   -1.2666    0.0000 H   0  0  0  0  0  0  0  0  0  0  0  0
    2.6924    0.9546    0.0000 H   0  0  0  0  0  0  0  0  0  0  0  0
    4.1214    0.1296    0.0000 H   0  0  0  0  0  0  0  0  0  0  0  0
    4.1214   -1.5204    0.0000 H   0  0  0  0  0  0  0  0  0  0  0  0
    2.6924   -2.3454    0.0000 H   0  0  0  0  0  0  0  0  0  0  0  0
  1  2  2  0  0  0  0
  2  3  1  0  0  0  0
  3  4  1  0  0  0  0
  4  5  1  0  0  0  0
  5  6  1  0  0  0  0
  6  7  1  0  0  0  0
  7  8  1  0  0  0  0
  8  9  1  0  0  0  0
  9 10  1  0  0  0  0
  5 10  1  0  0  0  0
  3 11  1  0  0  0  0
 11 12  2  0  0  0  0
 11 13  1  0  0  0  0
 13 14  4  0  0  0  0
 14 15  4  0  0  0  0
 15 16  4  0  0  0  0
 16 17  4  0  0  0  0
 17 18  4  0  0  0  0
  2 18  1  0  0  0  0
 13 18  4  0  0  0  0
  5 19  1  0  0  0  0
  6 20  1  0  0  0  0
  6 21  1  0  0  0  0
  7 22  1  0  0  0  0
  7 23  1  0  0  0  0
  8 24  1  0  0  0  0
  8 25  1  0  0  0  0
  9 26  1  0  0  0  0
  9 27  1  0  0  0  0
 10 28  1  0  0  0  0
 10 29  1  0  0  0  0
 14 30  1  0  0  0  0
 15 31  1  0  0  0  0
 16 32  1  0  0  0  0
 17 33  1  0  0  0  0
M  END
>  <InChIKey>
UEZWYKZHXASYJN-UHFFFAOYSA-N

>  <UN GHS>
2A

>  <CASRN>
17796-82-6

> <Outcome>
1

>  <Index>
782

>  <StandardizerResult>
Dearomatize (ID: Dearomatize)
Clear Stereo (ID: ClearStereo)
Wedge Clean (ID: WedgeClean)
Mesomerize (ID: Mesomerize)
Tautomerize (ID: Tautomerize)
Aromatize (ID: Aromatize)
Add Explicit Hydrogens (ID: AddExplicitH)
Neutralize (ID: Neutralize)
Clean 2D (ID: Clean2D)

> <knn Distance>


> <CpId>
782

$$$$
786
  Mrv1532301301811342D          

 62 61  0  0  0  0            999 V2000
    7.2336    5.0010    0.0000 C   0  0  0  0  0  0  0  0  0  0  0  0
    7.9480    5.4135    0.0000 C   0  0  0  0  0  0  0  0  0  0  0  0
    8.6625    5.0010    0.0000 C   0  0  0  0  0  0  0  0  0  0  0  0
    9.3770    5.4135    0.0000 C   0  0  0  0  0  0  0  0  0  0  0  0
   10.0914    5.0010    0.0000 C   0  0  0  0  0  0  0  0  0  0  0  0
   10.8059    5.4135    0.0000 C   0  0  0  0  0  0  0  0  0  0  0  0
   11.5204    5.0010    0.0000 C   0  0  0  0  0  0  0  0  0  0  0  0
   12.2349    5.4135    0.0000 C   0  0  0  0  0  0  0  0  0  0  0  0
   12.9493    5.0010    0.0000 C   0  0  0  0  0  0  0  0  0  0  0  0
   13.6638    5.4135    0.0000 C   0  0  0  0  0  0  0  0  0  0  0  0
   14.3783    5.0010    0.0000 C   0  0  0  0  0  0  0  0  0  0  0  0
   15.0927    5.4135    0.0000 C   0  0  0  0  0  0  0  0  0  0  0  0
   15.8072    5.0010    0.0000 C   0  0  0  0  0  0  0  0  0  0  0  0
   16.5217    5.4135    0.0000 C   0  0  0  0  0  0  0  0  0  0  0  0
   17.2362    5.0010    0.0000 C   0  0  0  0  0  0  0  0  0  0  0  0
   17.9506    5.4135    0.0000 C   0  0  0  0  0  0  0  0  0  0  0  0
   18.6651    5.0010    0.0000 C   0  0  0  0  0  0  0  0  0  0  0  0
   19.3796    5.4135    0.0000 C   0  0  0  0  0  0  0  0  0  0  0  0
   20.0940    5.0010    0.0000 O   0  0  0  0  0  0  0  0  0  0  0  0
   20.8085    5.4135    0.0000 P   0  0  0  0  0  0  0  0  0  0  0  0
   21.5230    5.8260    0.0000 O   0  0  0  0  0  0  0  0  0  0  0  0
   21.2210    4.6990    0.0000 O   0  0  0  0  0  0  0  0  0  0  0  0
   20.3960    6.1280    0.0000 O   0  0  0  0  0  0  0  0  0  0  0  0
    6.8211    5.7155    0.0000 H   0  0  0  0  0  0  0  0  0  0  0  0
    6.5191    4.5885    0.0000 H   0  0  0  0  0  0  0  0  0  0  0  0
    7.6461    4.2865    0.0000 H   0  0  0  0  0  0  0  0  0  0  0  0
    8.3183    6.1508    0.0000 H   0  0  0  0  0  0  0  0  0  0  0  0
    7.5778    6.1508    0.0000 H   0  0  0  0  0  0  0  0  0  0  0  0
    8.2922    4.2638    0.0000 H   0  0  0  0  0  0  0  0  0  0  0  0
    9.0328    4.2638    0.0000 H   0  0  0  0  0  0  0  0  0  0  0  0
    9.7472    6.1508    0.0000 H   0  0  0  0  0  0  0  0  0  0  0  0
    9.0067    6.1508    0.0000 H   0  0  0  0  0  0  0  0  0  0  0  0
    9.7212    4.2638    0.0000 H   0  0  0  0  0  0  0  0  0  0  0  0
   10.4617    4.2638    0.0000 H   0  0  0  0  0  0  0  0  0  0  0  0
   11.1762    6.1508    0.0000 H   0  0  0  0  0  0  0  0  0  0  0  0
   10.4357    6.1508    0.0000 H   0  0  0  0  0  0  0  0  0  0  0  0
   11.1501    4.2638    0.0000 H   0  0  0  0  0  0  0  0  0  0  0  0
   11.8906    4.2638    0.0000 H   0  0  0  0  0  0  0  0  0  0  0  0
   12.6051    6.1508    0.0000 H   0  0  0  0  0  0  0  0  0  0  0  0
   11.8646    6.1508    0.0000 H   0  0  0  0  0  0  0  0  0  0  0  0
   12.5791    4.2638    0.0000 H   0  0  0  0  0  0  0  0  0  0  0  0
   13.3196    4.2638    0.0000 H   0  0  0  0  0  0  0  0  0  0  0  0
   14.0341    6.1508    0.0000 H   0  0  0  0  0  0  0  0  0  0  0  0
   13.2935    6.1508    0.0000 H   0  0  0  0  0  0  0  0  0  0  0  0
   14.0080    4.2638    0.0000 H   0  0  0  0  0  0  0  0  0  0  0  0
   14.7485    4.2638    0.0000 H   0  0  0  0  0  0  0  0  0  0  0  0
   15.4630    6.1508    0.0000 H   0  0  0  0  0  0  0  0  0  0  0  0
   14.7225    6.1508    0.0000 H   0  0  0  0  0  0  0  0  0  0  0  0
   15.4370    4.2638    0.0000 H   0  0  0  0  0  0  0  0  0  0  0  0
   16.1775    4.2638    0.0000 H   0  0  0  0  0  0  0  0  0  0  0  0
   16.8919    6.1508    0.0000 H   0  0  0  0  0  0  0  0  0  0  0  0
   16.1514    6.1508    0.0000 H   0  0  0  0  0  0  0  0  0  0  0  0
   16.8659    4.2638    0.0000 H   0  0  0  0  0  0  0  0  0  0  0  0
   17.6064    4.2638    0.0000 H   0  0  0  0  0  0  0  0  0  0  0  0
   18.3209    6.1508    0.0000 H   0  0  0  0  0  0  0  0  0  0  0  0
   17.5804    6.1508    0.0000 H   0  0  0  0  0  0  0  0  0  0  0  0
   18.2948    4.2638    0.0000 H   0  0  0  0  0  0  0  0  0  0  0  0
   19.0354    4.2638    0.0000 H   0  0  0  0  0  0  0  0  0  0  0  0
   19.7498    6.1508    0.0000 H   0  0  0  0  0  0  0  0  0  0  0  0
   19.0093    6.1508    0.0000 H   0  0  0  0  0  0  0  0  0  0  0  0
   22.2375    5.4135    0.0000 H   0  0  0  0  0  0  0  0  0  0  0  0
   20.8085    3.9846    0.0000 H   0  0  0  0  0  0  0  0  0  0  0  0
  1  2  1  0  0  0  0
  2  3  1  0  0  0  0
  3  4  1  0  0  0  0
  4  5  1  0  0  0  0
  5  6  1  0  0  0  0
  6  7  1  0  0  0  0
  7  8  1  0  0  0  0
  8  9  1  0  0  0  0
  9 10  1  0  0  0  0
 10 11  1  0  0  0  0
 11 12  1  0  0  0  0
 12 13  1  0  0  0  0
 13 14  1  0  0  0  0
 14 15  1  0  0  0  0
 15 16  1  0  0  0  0
 16 17  1  0  0  0  0
 17 18  1  0  0  0  0
 18 19  1  0  0  0  0
 19 20  1  0  0  0  0
 20 21  1  0  0  0  0
 20 22  1  0  0  0  0
 20 23  2  0  0  0  0
  1 24  1  0  0  0  0
  1 25  1  0  0  0  0
  1 26  1  0  0  0  0
  2 27  1  0  0  0  0
  2 28  1  0  0  0  0
  3 29  1  0  0  0  0
  3 30  1  0  0  0  0
  4 31  1  0  0  0  0
  4 32  1  0  0  0  0
  5 33  1  0  0  0  0
  5 34  1  0  0  0  0
  6 35  1  0  0  0  0
  6 36  1  0  0  0  0
  7 37  1  0  0  0  0
  7 38  1  0  0  0  0
  8 39  1  0  0  0  0
  8 40  1  0  0  0  0
  9 41  1  0  0  0  0
  9 42  1  0  0  0  0
 10 43  1  0  0  0  0
 10 44  1  0  0  0  0
 11 45  1  0  0  0  0
 11 46  1  0  0  0  0
 12 47  1  0  0  0  0
 12 48  1  0  0  0  0
 13 49  1  0  0  0  0
 13 50  1  0  0  0  0
 14 51  1  0  0  0  0
 14 52  1  0  0  0  0
 15 53  1  0  0  0  0
 15 54  1  0  0  0  0
 16 55  1  0  0  0  0
 16 56  1  0  0  0  0
 17 57  1  0  0  0  0
 17 58  1  0  0  0  0
 18 59  1  0  0  0  0
 18 60  1  0  0  0  0
 21 61  1  0  0  0  0
 22 62  1  0  0  0  0
M  END
>  <InChIKey>
UHGIMQLJWRAPLT-UHFFFAOYSA-L

>  <UN GHS>
2A

>  <CASRN>
68987-29-1

> <Outcome>
1

>  <Index>
786

>  <StandardizerResult>
Clear Stereo (ID: ClearStereo)
Wedge Clean (ID: WedgeClean)
Mesomerize (ID: Mesomerize)
Tautomerize (ID: Tautomerize)
Add Explicit Hydrogens (ID: AddExplicitH)
Neutralize (ID: Neutralize)
Clean 2D (ID: Clean2D)

> <knn Distance>


> <CpId>
786

$$$$
791
  Mrv1532301301811342D          

 72 75  0  0  0  0            999 V2000
   -1.4266   -0.8301    0.0000 C   0  0  0  0  0  0  0  0  0  0  0  0
   -2.1410   -1.2426    0.0000 C   0  0  0  0  0  0  0  0  0  0  0  0
   -2.1410   -2.0676    0.0000 C   0  0  0  0  0  0  0  0  0  0  0  0
   -1.4266   -2.4801    0.0000 C   0  0  0  0  0  0  0  0  0  0  0  0
   -1.4266   -3.3051    0.0000 P   0  3  0  0  0  0  0  0  0  0  0  0
   -1.4266   -4.1301    0.0000 C   0  0  0  0  0  0  0  0  0  0  0  0
   -0.7121   -4.5426    0.0000 C   0  0  0  0  0  0  0  0  0  0  0  0
   -0.7121   -5.3676    0.0000 C   0  0  0  0  0  0  0  0  0  0  0  0
   -1.4266   -5.7801    0.0000 C   0  0  0  0  0  0  0  0  0  0  0  0
   -2.1410   -5.3676    0.0000 C   0  0  0  0  0  0  0  0  0  0  0  0
   -2.1410   -4.5426    0.0000 C   0  0  0  0  0  0  0  0  0  0  0  0
   -0.6016   -3.3051    0.0000 C   0  0  0  0  0  0  0  0  0  0  0  0
   -0.1891   -2.5906    0.0000 C   0  0  0  0  0  0  0  0  0  0  0  0
    0.6359   -2.5906    0.0000 C   0  0  0  0  0  0  0  0  0  0  0  0
    1.0484   -3.3051    0.0000 C   0  0  0  0  0  0  0  0  0  0  0  0
    0.6359   -4.0196    0.0000 C   0  0  0  0  0  0  0  0  0  0  0  0
   -0.1891   -4.0196    0.0000 C   0  0  0  0  0  0  0  0  0  0  0  0
   -2.2516   -3.3051    0.0000 C   0  0  0  0  0  0  0  0  0  0  0  0
   -2.6641   -4.0196    0.0000 C   0  0  0  0  0  0  0  0  0  0  0  0
   -3.4891   -4.0196    0.0000 C   0  0  0  0  0  0  0  0  0  0  0  0
   -3.9016   -3.3051    0.0000 C   0  0  0  0  0  0  0  0  0  0  0  0
   -3.4891   -2.5906    0.0000 C   0  0  0  0  0  0  0  0  0  0  0  0
   -2.6641   -2.5906    0.0000 C   0  0  0  0  0  0  0  0  0  0  0  0
   -2.8555   -0.8301    0.0000 C   0  0  0  0  0  0  0  0  0  0  0  0
   -3.5700   -1.2426    0.0000 C   0  0  0  0  0  0  0  0  0  0  0  0
   -4.2844   -0.8301    0.0000 C   0  0  0  0  0  0  0  0  0  0  0  0
   -4.9989   -1.2426    0.0000 C   0  0  0  0  0  0  0  0  0  0  0  0
   -4.9989   -2.0676    0.0000 C   0  0  0  0  0  0  0  0  0  0  0  0
   -5.7134   -0.8301    0.0000 C   0  0  0  0  0  0  0  0  0  0  0  0
   -5.7134   -0.0051    0.0000 C   0  0  0  0  0  0  0  0  0  0  0  0
   -4.9989    0.4074    0.0000 C   0  0  0  0  0  0  0  0  0  0  0  0
   -4.2844   -0.0051    0.0000 C   0  0  0  0  0  0  0  0  0  0  0  0
   -3.8473    0.6945    0.0000 C   0  0  0  0  0  0  0  0  0  0  0  0
   -3.4599    0.0237    0.0000 C   0  0  0  0  0  0  0  0  0  0  0  0
   -1.0141   -1.5446    0.0000 H   0  0  0  0  0  0  0  0  0  0  0  0
   -0.7121   -0.4176    0.0000 H   0  0  0  0  0  0  0  0  0  0  0  0
   -1.8391   -0.1156    0.0000 H   0  0  0  0  0  0  0  0  0  0  0  0
   -2.9032   -1.7519    0.0000 H   0  0  0  0  0  0  0  0  0  0  0  0
   -0.6030   -2.4321    0.0000 H   0  0  0  0  0  0  0  0  0  0  0  0
   -0.9732   -1.7908    0.0000 H   0  0  0  0  0  0  0  0  0  0  0  0
    0.0501   -4.8583    0.0000 H   0  0  0  0  0  0  0  0  0  0  0  0
   -0.2764   -6.0682    0.0000 H   0  0  0  0  0  0  0  0  0  0  0  0
   -1.4266   -6.6051    0.0000 H   0  0  0  0  0  0  0  0  0  0  0  0
   -2.8555   -5.7801    0.0000 H   0  0  0  0  0  0  0  0  0  0  0  0
   -2.9032   -4.8583    0.0000 H   0  0  0  0  0  0  0  0  0  0  0  0
   -0.0390   -1.7794    0.0000 H   0  0  0  0  0  0  0  0  0  0  0  0
    1.0484   -1.8761    0.0000 H   0  0  0  0  0  0  0  0  0  0  0  0
    1.8734   -3.3051    0.0000 H   0  0  0  0  0  0  0  0  0  0  0  0
    1.0484   -4.7340    0.0000 H   0  0  0  0  0  0  0  0  0  0  0  0
    0.2234   -3.3051    0.0000 H   0  0  0  0  0  0  0  0  0  0  0  0
   -3.0766   -3.3051    0.0000 H   0  0  0  0  0  0  0  0  0  0  0  0
   -3.9016   -4.7340    0.0000 H   0  0  0  0  0  0  0  0  0  0  0  0
   -4.7266   -3.3051    0.0000 H   0  0  0  0  0  0  0  0  0  0  0  0
   -3.9016   -1.8761    0.0000 H   0  0  0  0  0  0  0  0  0  0  0  0
   -1.8461   -2.6983    0.0000 H   0  0  0  0  0  0  0  0  0  0  0  0
   -2.8555   -0.0051    0.0000 H   0  0  0  0  0  0  0  0  0  0  0  0
   -4.3623   -1.4726    0.0000 H   0  0  0  0  0  0  0  0  0  0  0  0
   -5.8067   -1.8998    0.0000 H   0  0  0  0  0  0  0  0  0  0  0  0
   -5.3275   -2.8243    0.0000 H   0  0  0  0  0  0  0  0  0  0  0  0
   -4.3248   -2.5432    0.0000 H   0  0  0  0  0  0  0  0  0  0  0  0
   -6.5370   -0.8781    0.0000 H   0  0  0  0  0  0  0  0  0  0  0  0
   -6.1667   -1.5194    0.0000 H   0  0  0  0  0  0  0  0  0  0  0  0
   -6.1667    0.6842    0.0000 H   0  0  0  0  0  0  0  0  0  0  0  0
   -6.5370    0.0429    0.0000 H   0  0  0  0  0  0  0  0  0  0  0  0
   -4.6287    1.1447    0.0000 H   0  0  0  0  0  0  0  0  0  0  0  0
   -5.3692    1.1447    0.0000 H   0  0  0  0  0  0  0  0  0  0  0  0
   -3.0293    0.5871    0.0000 H   0  0  0  0  0  0  0  0  0  0  0  0
   -3.2642    1.2782    0.0000 H   0  0  0  0  0  0  0  0  0  0  0  0
   -3.9555    1.5124    0.0000 H   0  0  0  0  0  0  0  0  0  0  0  0
   -4.0349   -0.5679    0.0000 H   0  0  0  0  0  0  0  0  0  0  0  0
   -3.4652   -0.8013    0.0000 H   0  0  0  0  0  0  0  0  0  0  0  0
   -2.8925   -0.5752    0.0000 H   0  0  0  0  0  0  0  0  0  0  0  0
  1  2  1  0  0  0  0
  2  3  2  0  0  0  0
  3  4  1  4  0  0  0
  4  5  1  0  0  0  0
  5  6  1  0  0  0  0
  6  7  4  0  0  0  0
  7  8  4  0  0  0  0
  8  9  4  0  0  0  0
  9 10  4  0  0  0  0
 10 11  4  0  0  0  0
  6 11  4  0  0  0  0
  5 12  1  0  0  0  0
 12 13  4  0  0  0  0
 13 14  4  0  0  0  0
 14 15  4  0  0  0  0
 15 16  4  0  0  0  0
 16 17  4  0  0  0  0
 12 17  4  0  0  0  0
  5 18  1  0  0  0  0
 18 19  4  0  0  0  0
 19 20  4  0  0  0  0
 20 21  4  0  0  0  0
 21 22  4  0  0  0  0
 22 23  4  0  0  0  0
 18 23  4  0  0  0  0
 24  2  1  4  0  0  0
 24 25  2  0  0  0  0
 25 26  1  0  0  0  0
 26 27  2  0  0  0  0
 27 28  1  0  0  0  0
 27 29  1  0  0  0  0
 29 30  1  0  0  0  0
 30 31  1  0  0  0  0
 31 32  1  0  0  0  0
 26 32  1  0  0  0  0
 32 33  1  0  0  0  0
 32 34  1  0  0  0  0
  1 35  1  0  0  0  0
  1 36  1  0  0  0  0
  1 37  1  0  0  0  0
  3 38  1  0  0  0  0
  4 39  1  0  0  0  0
  4 40  1  0  0  0  0
  7 41  1  0  0  0  0
  8 42  1  0  0  0  0
  9 43  1  0  0  0  0
 10 44  1  0  0  0  0
 11 45  1  0  0  0  0
 13 46  1  0  0  0  0
 14 47  1  0  0  0  0
 15 48  1  0  0  0  0
 16 49  1  0  0  0  0
 17 50  1  0  0  0  0
 19 51  1  0  0  0  0
 20 52  1  0  0  0  0
 21 53  1  0  0  0  0
 22 54  1  0  0  0  0
 23 55  1  0  0  0  0
 24 56  1  0  0  0  0
 25 57  1  0  0  0  0
 28 58  1  0  0  0  0
 28 59  1  0  0  0  0
 28 60  1  0  0  0  0
 29 61  1  0  0  0  0
 29 62  1  0  0  0  0
 30 63  1  0  0  0  0
 30 64  1  0  0  0  0
 31 65  1  0  0  0  0
 31 66  1  0  0  0  0
 33 67  1  0  0  0  0
 33 68  1  0  0  0  0
 33 69  1  0  0  0  0
 34 70  1  0  0  0  0
 34 71  1  0  0  0  0
 34 72  1  0  0  0  0
M  CHG  1   5   1
M  END
>  <InChIKey>
UJUZVVSRNMBGRO-RIPLDZIISA-N

>  <UN GHS>
1

>  <CASRN>
751-83-7

> <Outcome>
1

>  <Index>
791

>  <StandardizerResult>
Dearomatize (ID: Dearomatize)
Clear Stereo (ID: ClearStereo)
Wedge Clean (ID: WedgeClean)
Mesomerize (ID: Mesomerize)
Tautomerize (ID: Tautomerize)
Aromatize (ID: Aromatize)
Add Explicit Hydrogens (ID: AddExplicitH)
Clean 2D (ID: Clean2D)

> <knn Distance>


> <CpId>
791

$$$$
792
  Mrv1532301301811342D          

 78 79  0  0  0  0            999 V2000
    1.2315   -3.0463    0.0000 C   0  0  0  0  0  0  0  0  0  0  0  0
    0.7012   -3.6783    0.0000 C   0  0  0  0  0  0  0  0  0  0  0  0
    0.1709   -3.0463    0.0000 C   0  0  0  0  0  0  0  0  0  0  0  0
    1.4157   -4.0908    0.0000 C   0  0  0  0  0  0  0  0  0  0  0  0
    1.4157   -4.9158    0.0000 C   0  0  0  0  0  0  0  0  0  0  0  0
    0.7012   -5.3283    0.0000 C   0  0  0  0  0  0  0  0  0  0  0  0
   -0.0133   -4.9158    0.0000 C   0  0  0  0  0  0  0  0  0  0  0  0
   -0.2954   -5.6911    0.0000 C   0  0  0  0  0  0  0  0  0  0  0  0
   -0.8257   -4.7726    0.0000 C   0  0  0  0  0  0  0  0  0  0  0  0
   -0.0133   -4.0908    0.0000 N   0  0  0  0  0  0  0  0  0  0  0  0
    2.1301   -5.3283    0.0000 N   0  0  0  0  0  0  0  0  0  0  0  0
    2.8446   -4.9158    0.0000 C   0  0  0  0  0  0  0  0  0  0  0  0
    3.5591   -5.3283    0.0000 C   0  0  0  0  0  0  0  0  0  0  0  0
    4.2736   -4.9158    0.0000 C   0  0  0  0  0  0  0  0  0  0  0  0
    4.9880   -5.3283    0.0000 C   0  0  0  0  0  0  0  0  0  0  0  0
    5.7025   -4.9158    0.0000 C   0  0  0  0  0  0  0  0  0  0  0  0
    6.4170   -5.3283    0.0000 C   0  0  0  0  0  0  0  0  0  0  0  0
    7.1314   -4.9158    0.0000 N   0  0  0  0  0  0  0  0  0  0  0  0
    7.8459   -5.3283    0.0000 C   0  0  0  0  0  0  0  0  0  0  0  0
    8.5604   -4.9158    0.0000 C   0  0  0  0  0  0  0  0  0  0  0  0
    9.2749   -5.3283    0.0000 C   0  0  0  0  0  0  0  0  0  0  0  0
    9.5570   -4.5531    0.0000 C   0  0  0  0  0  0  0  0  0  0  0  0
   10.0873   -5.4716    0.0000 C   0  0  0  0  0  0  0  0  0  0  0  0
    9.2749   -6.1533    0.0000 N   0  0  0  0  0  0  0  0  0  0  0  0
    8.5604   -6.5658    0.0000 C   0  0  0  0  0  0  0  0  0  0  0  0
    9.0907   -7.1978    0.0000 C   0  0  0  0  0  0  0  0  0  0  0  0
    8.0301   -7.1978    0.0000 C   0  0  0  0  0  0  0  0  0  0  0  0
    7.8459   -6.1533    0.0000 C   0  0  0  0  0  0  0  0  0  0  0  0
    1.8635   -3.5766    0.0000 H   0  0  0  0  0  0  0  0  0  0  0  0
    1.7618   -2.4143    0.0000 H   0  0  0  0  0  0  0  0  0  0  0  0
    0.5995   -2.5160    0.0000 H   0  0  0  0  0  0  0  0  0  0  0  0
   -0.1880   -2.3035    0.0000 H   0  0  0  0  0  0  0  0  0  0  0  0
   -0.6541   -3.0539    0.0000 H   0  0  0  0  0  0  0  0  0  0  0  0
   -0.1743   -3.7956    0.0000 H   0  0  0  0  0  0  0  0  0  0  0  0
    2.1883   -4.3801    0.0000 H   0  0  0  0  0  0  0  0  0  0  0  0
    0.7012   -4.5033    0.0000 H   0  0  0  0  0  0  0  0  0  0  0  0
    1.4157   -5.7408    0.0000 H   0  0  0  0  0  0  0  0  0  0  0  0
    0.0692   -5.8586    0.0000 H   0  0  0  0  0  0  0  0  0  0  0  0
    0.5579   -6.1408    0.0000 H   0  0  0  0  0  0  0  0  0  0  0  0
   -0.8844   -5.1134    0.0000 H   0  0  0  0  0  0  0  0  0  0  0  0
   -1.0651   -5.9881    0.0000 H   0  0  0  0  0  0  0  0  0  0  0  0
   -0.3435   -6.5147    0.0000 H   0  0  0  0  0  0  0  0  0  0  0  0
   -0.3832   -4.0763    0.0000 H   0  0  0  0  0  0  0  0  0  0  0  0
   -1.3003   -4.0977    0.0000 H   0  0  0  0  0  0  0  0  0  0  0  0
   -1.6306   -4.9536    0.0000 H   0  0  0  0  0  0  0  0  0  0  0  0
    0.2099   -3.2966    0.0000 H   0  0  0  0  0  0  0  0  0  0  0  0
    2.5426   -6.0428    0.0000 H   0  0  0  0  0  0  0  0  0  0  0  0
    3.3132   -4.2368    0.0000 H   0  0  0  0  0  0  0  0  0  0  0  0
    2.8446   -5.7408    0.0000 H   0  0  0  0  0  0  0  0  0  0  0  0
    3.7023   -6.1408    0.0000 H   0  0  0  0  0  0  0  0  0  0  0  0
    4.1911   -5.8586    0.0000 H   0  0  0  0  0  0  0  0  0  0  0  0
    4.6438   -4.1786    0.0000 H   0  0  0  0  0  0  0  0  0  0  0  0
    3.9033   -4.1786    0.0000 H   0  0  0  0  0  0  0  0  0  0  0  0
    5.0230   -6.1526    0.0000 H   0  0  0  0  0  0  0  0  0  0  0  0
    5.7111   -5.7256    0.0000 H   0  0  0  0  0  0  0  0  0  0  0  0
    6.0728   -4.1786    0.0000 H   0  0  0  0  0  0  0  0  0  0  0  0
    5.3322   -4.1786    0.0000 H   0  0  0  0  0  0  0  0  0  0  0  0
    6.5548   -6.1417    0.0000 H   0  0  0  0  0  0  0  0  0  0  0  0
    7.0467   -5.8613    0.0000 H   0  0  0  0  0  0  0  0  0  0  0  0
    7.1314   -4.0908    0.0000 H   0  0  0  0  0  0  0  0  0  0  0  0
    7.8459   -4.5033    0.0000 H   0  0  0  0  0  0  0  0  0  0  0  0
    9.1924   -4.3855    0.0000 H   0  0  0  0  0  0  0  0  0  0  0  0
    8.7036   -4.1034    0.0000 H   0  0  0  0  0  0  0  0  0  0  0  0
   10.1460   -5.1308    0.0000 H   0  0  0  0  0  0  0  0  0  0  0  0
   10.3267   -4.2560    0.0000 H   0  0  0  0  0  0  0  0  0  0  0  0
    9.6051   -3.7295    0.0000 H   0  0  0  0  0  0  0  0  0  0  0  0
    9.6448   -6.1678    0.0000 H   0  0  0  0  0  0  0  0  0  0  0  0
   10.5619   -6.1464    0.0000 H   0  0  0  0  0  0  0  0  0  0  0  0
   10.8922   -5.2906    0.0000 H   0  0  0  0  0  0  0  0  0  0  0  0
    9.4727   -6.9542    0.0000 H   0  0  0  0  0  0  0  0  0  0  0  0
    8.2962   -7.4201    0.0000 H   0  0  0  0  0  0  0  0  0  0  0  0
    8.9653   -8.0132    0.0000 H   0  0  0  0  0  0  0  0  0  0  0  0
    9.7817   -7.6485    0.0000 H   0  0  0  0  0  0  0  0  0  0  0  0
    7.6487   -6.4662    0.0000 H   0  0  0  0  0  0  0  0  0  0  0  0
    7.2083   -7.2706    0.0000 H   0  0  0  0  0  0  0  0  0  0  0  0
    7.7833   -7.9850    0.0000 H   0  0  0  0  0  0  0  0  0  0  0  0
    8.5604   -5.7408    0.0000 H   0  0  0  0  0  0  0  0  0  0  0  0
    7.0652   -6.4200    0.0000 H   0  0  0  0  0  0  0  0  0  0  0  0
  1  2  1  0  0  0  0
  2  3  1  0  0  0  0
  2  4  1  0  0  0  0
  4  5  1  0  0  0  0
  5  6  1  0  0  0  0
  6  7  1  0  0  0  0
  7  8  1  0  0  0  0
  7  9  1  0  0  0  0
  7 10  1  0  0  0  0
  2 10  1  0  0  0  0
  5 11  1  0  0  0  0
 11 12  1  0  0  0  0
 12 13  1  0  0  0  0
 13 14  1  0  0  0  0
 14 15  1  0  0  0  0
 15 16  1  0  0  0  0
 16 17  1  0  0  0  0
 17 18  1  0  0  0  0
 18 19  1  0  0  0  0
 19 20  1  0  0  0  0
 20 21  1  0  0  0  0
 21 22  1  0  0  0  0
 21 23  1  0  0  0  0
 21 24  1  0  0  0  0
 24 25  1  0  0  0  0
 25 26  1  0  0  0  0
 25 27  1  0  0  0  0
 25 28  1  0  0  0  0
 19 28  1  0  0  0  0
  1 29  1  0  0  0  0
  1 30  1  0  0  0  0
  1 31  1  0  0  0  0
  3 32  1  0  0  0  0
  3 33  1  0  0  0  0
  3 34  1  0  0  0  0
  4 35  1  0  0  0  0
  4 36  1  0  0  0  0
  5 37  1  0  0  0  0
  6 38  1  0  0  0  0
  6 39  1  0  0  0  0
  8 40  1  0  0  0  0
  8 41  1  0  0  0  0
  8 42  1  0  0  0  0
  9 43  1  0  0  0  0
  9 44  1  0  0  0  0
  9 45  1  0  0  0  0
 10 46  1  0  0  0  0
 11 47  1  0  0  0  0
 12 48  1  0  0  0  0
 12 49  1  0  0  0  0
 13 50  1  0  0  0  0
 13 51  1  0  0  0  0
 14 52  1  0  0  0  0
 14 53  1  0  0  0  0
 15 54  1  0  0  0  0
 15 55  1  0  0  0  0
 16 56  1  0  0  0  0
 16 57  1  0  0  0  0
 17 58  1  0  0  0  0
 17 59  1  0  0  0  0
 18 60  1  0  0  0  0
 19 61  1  0  0  0  0
 20 62  1  0  0  0  0
 20 63  1  0  0  0  0
 22 64  1  0  0  0  0
 22 65  1  0  0  0  0
 22 66  1  0  0  0  0
 23 67  1  0  0  0  0
 23 68  1  0  0  0  0
 23 69  1  0  0  0  0
 24 70  1  0  0  0  0
 26 71  1  0  0  0  0
 26 72  1  0  0  0  0
 26 73  1  0  0  0  0
 27 74  1  0  0  0  0
 27 75  1  0  0  0  0
 27 76  1  0  0  0  0
 28 77  1  0  0  0  0
 28 78  1  0  0  0  0
M  END
>  <InChIKey>
UKJARPDLRWBRAX-UHFFFAOYSA-N

>  <UN GHS>
1

>  <CASRN>
61260-55-7

> <Outcome>
1

>  <Index>
792

>  <StandardizerResult>
Clear Stereo (ID: ClearStereo)
Wedge Clean (ID: WedgeClean)
Mesomerize (ID: Mesomerize)
Tautomerize (ID: Tautomerize)
Add Explicit Hydrogens (ID: AddExplicitH)
Neutralize (ID: Neutralize)
Clean 2D (ID: Clean2D)

> <knn Distance>


> <CpId>
792

$$$$
793
  Mrv1532301301811342D          

 35 34  0  0  0  0            999 V2000
    3.0143    2.5559    0.0000 C   0  0  0  0  0  0  0  0  0  0  0  0
    3.7288    2.1434    0.0000 N   0  0  0  0  0  0  0  0  0  0  0  0
    3.7288    1.3184    0.0000 C   0  0  0  0  0  0  0  0  0  0  0  0
    4.4432    2.5559    0.0000 C   0  0  0  0  0  0  0  0  0  0  0  0
    5.1577    2.1434    0.0000 C   0  0  0  0  0  0  0  0  0  0  0  0
    5.8722    2.5559    0.0000 N   0  0  0  0  0  0  0  0  0  0  0  0
    5.8722    3.3809    0.0000 C   0  0  0  0  0  0  0  0  0  0  0  0
    6.5866    2.1434    0.0000 C   0  0  0  0  0  0  0  0  0  0  0  0
    7.3011    2.5559    0.0000 C   0  0  0  0  0  0  0  0  0  0  0  0
    8.0156    2.1434    0.0000 N   0  0  0  0  0  0  0  0  0  0  0  0
    8.7300    2.5559    0.0000 C   0  0  0  0  0  0  0  0  0  0  0  0
    8.0156    1.3184    0.0000 C   0  0  0  0  0  0  0  0  0  0  0  0
    3.4268    3.2704    0.0000 H   0  0  0  0  0  0  0  0  0  0  0  0
    2.2998    2.9684    0.0000 H   0  0  0  0  0  0  0  0  0  0  0  0
    2.6018    1.8414    0.0000 H   0  0  0  0  0  0  0  0  0  0  0  0
    2.9038    1.3184    0.0000 H   0  0  0  0  0  0  0  0  0  0  0  0
    3.7288    0.4934    0.0000 H   0  0  0  0  0  0  0  0  0  0  0  0
    4.5538    1.3184    0.0000 H   0  0  0  0  0  0  0  0  0  0  0  0
    4.8135    3.2931    0.0000 H   0  0  0  0  0  0  0  0  0  0  0  0
    4.0730    3.2931    0.0000 H   0  0  0  0  0  0  0  0  0  0  0  0
    4.7874    1.4062    0.0000 H   0  0  0  0  0  0  0  0  0  0  0  0
    5.5280    1.4062    0.0000 H   0  0  0  0  0  0  0  0  0  0  0  0
    6.6972    3.3809    0.0000 H   0  0  0  0  0  0  0  0  0  0  0  0
    5.8722    4.2059    0.0000 H   0  0  0  0  0  0  0  0  0  0  0  0
    5.0472    3.3809    0.0000 H   0  0  0  0  0  0  0  0  0  0  0  0
    6.2164    1.4062    0.0000 H   0  0  0  0  0  0  0  0  0  0  0  0
    6.9569    1.4062    0.0000 H   0  0  0  0  0  0  0  0  0  0  0  0
    7.6714    3.2931    0.0000 H   0  0  0  0  0  0  0  0  0  0  0  0
    6.9308    3.2931    0.0000 H   0  0  0  0  0  0  0  0  0  0  0  0
    9.1425    1.8414    0.0000 H   0  0  0  0  0  0  0  0  0  0  0  0
    9.4445    2.9684    0.0000 H   0  0  0  0  0  0  0  0  0  0  0  0
    8.3175    3.2704    0.0000 H   0  0  0  0  0  0  0  0  0  0  0  0
    7.1906    1.3184    0.0000 H   0  0  0  0  0  0  0  0  0  0  0  0
    8.0156    0.4934    0.0000 H   0  0  0  0  0  0  0  0  0  0  0  0
    8.8406    1.3184    0.0000 H   0  0  0  0  0  0  0  0  0  0  0  0
  1  2  1  0  0  0  0
  2  3  1  0  0  0  0
  2  4  1  0  0  0  0
  4  5  1  0  0  0  0
  5  6  1  0  0  0  0
  6  7  1  0  0  0  0
  6  8  1  0  0  0  0
  8  9  1  0  0  0  0
  9 10  1  0  0  0  0
 10 11  1  0  0  0  0
 10 12  1  0  0  0  0
  1 13  1  0  0  0  0
  1 14  1  0  0  0  0
  1 15  1  0  0  0  0
  3 16  1  0  0  0  0
  3 17  1  0  0  0  0
  3 18  1  0  0  0  0
  4 19  1  0  0  0  0
  4 20  1  0  0  0  0
  5 21  1  0  0  0  0
  5 22  1  0  0  0  0
  7 23  1  0  0  0  0
  7 24  1  0  0  0  0
  7 25  1  0  0  0  0
  8 26  1  0  0  0  0
  8 27  1  0  0  0  0
  9 28  1  0  0  0  0
  9 29  1  0  0  0  0
 11 30  1  0  0  0  0
 11 31  1  0  0  0  0
 11 32  1  0  0  0  0
 12 33  1  0  0  0  0
 12 34  1  0  0  0  0
 12 35  1  0  0  0  0
M  END
>  <InChIKey>
UKODFQOELJFMII-UHFFFAOYSA-N

>  <UN GHS>
1

>  <CASRN>
3030-47-5

> <Outcome>
1

>  <Index>
793

>  <StandardizerResult>
Clear Stereo (ID: ClearStereo)
Wedge Clean (ID: WedgeClean)
Mesomerize (ID: Mesomerize)
Tautomerize (ID: Tautomerize)
Add Explicit Hydrogens (ID: AddExplicitH)
Neutralize (ID: Neutralize)
Clean 2D (ID: Clean2D)

> <knn Distance>


> <CpId>
793

$$$$
794
  Mrv1532301301811342D          

 18 18  0  0  0  0            999 V2000
    1.2831    2.3513    0.0000 C   0  0  0  0  0  0  0  0  0  0  0  0
    0.5686    1.9388    0.0000 C   0  0  0  0  0  0  0  0  0  0  0  0
    0.5686    1.1138    0.0000 C   0  0  0  0  0  0  0  0  0  0  0  0
    1.2360    0.6289    0.0000 N   0  0  0  0  0  0  0  0  0  0  0  0
    0.9811   -0.1557    0.0000 C   0  0  0  0  0  0  0  0  0  0  0  0
    0.1561   -0.1557    0.0000 C   0  0  0  0  0  0  0  0  0  0  0  0
   -0.3288   -0.8232    0.0000 C   0  0  0  0  0  0  0  0  0  0  0  0
   -0.0988    0.6289    0.0000 N   0  0  0  0  0  0  0  0  0  0  0  0
    1.6956    1.6368    0.0000 H   0  0  0  0  0  0  0  0  0  0  0  0
    1.9975    2.7638    0.0000 H   0  0  0  0  0  0  0  0  0  0  0  0
    0.8706    3.0658    0.0000 H   0  0  0  0  0  0  0  0  0  0  0  0
    0.1153    2.6281    0.0000 H   0  0  0  0  0  0  0  0  0  0  0  0
   -0.2550    1.9868    0.0000 H   0  0  0  0  0  0  0  0  0  0  0  0
    1.4660   -0.8232    0.0000 H   0  0  0  0  0  0  0  0  0  0  0  0
   -0.9963   -0.3383    0.0000 H   0  0  0  0  0  0  0  0  0  0  0  0
   -0.8137   -1.4906    0.0000 H   0  0  0  0  0  0  0  0  0  0  0  0
    0.3386   -1.3081    0.0000 H   0  0  0  0  0  0  0  0  0  0  0  0
   -0.8835    0.8838    0.0000 H   0  0  0  0  0  0  0  0  0  0  0  0
  1  2  1  0  0  0  0
  2  3  1  0  0  0  0
  3  4  4  0  0  0  0
  4  5  4  0  0  0  0
  5  6  4  0  0  0  0
  6  7  1  0  0  0  0
  6  8  4  0  0  0  0
  3  8  4  0  0  0  0
  1  9  1  0  0  0  0
  1 10  1  0  0  0  0
  1 11  1  0  0  0  0
  2 12  1  0  0  0  0
  2 13  1  0  0  0  0
  5 14  1  0  0  0  0
  7 15  1  0  0  0  0
  7 16  1  0  0  0  0
  7 17  1  0  0  0  0
  8 18  1  0  0  0  0
M  END
>  <InChIKey>
ULKLGIFJWFIQFF-UHFFFAOYSA-N

>  <UN GHS>
1

>  <CASRN>
931-36-2

> <Outcome>
1

>  <Index>
794

>  <StandardizerResult>
Dearomatize (ID: Dearomatize)
Clear Stereo (ID: ClearStereo)
Wedge Clean (ID: WedgeClean)
Mesomerize (ID: Mesomerize)
Tautomerize (ID: Tautomerize)
Aromatize (ID: Aromatize)
Add Explicit Hydrogens (ID: AddExplicitH)
Neutralize (ID: Neutralize)
Clean 2D (ID: Clean2D)

> <knn Distance>


> <CpId>
794

$$$$
797
  Mrv1532301301811342D          

 30 30  0  0  0  0            999 V2000
    1.4930    2.5362    0.0000 C   0  0  0  0  0  0  0  0  0  0  0  0
    0.7785    2.1237    0.0000 C   0  0  0  0  0  0  0  0  0  0  0  0
    0.0640    2.5362    0.0000 C   0  0  0  0  0  0  0  0  0  0  0  0
    0.7785    1.2987    0.0000 C   0  0  0  0  0  0  0  0  0  0  0  0
    1.4930    0.8862    0.0000 C   0  0  0  0  0  0  0  0  0  0  0  0
    1.4930    0.0612    0.0000 C   0  0  0  0  0  0  0  0  0  0  0  0
    0.7785   -0.3513    0.0000 C   0  0  0  0  0  0  0  0  0  0  0  0
    0.0640    0.0612    0.0000 C   0  0  0  0  0  0  0  0  0  0  0  0
    0.0640    0.8862    0.0000 C   0  0  0  0  0  0  0  0  0  0  0  0
   -0.6504   -0.3513    0.0000 C   0  0  0  0  0  0  0  0  0  0  0  0
   -0.6504   -1.1763    0.0000 C   0  0  0  0  0  0  0  0  0  0  0  0
   -1.3649    0.0612    0.0000 C   0  0  0  0  0  0  0  0  0  0  0  0
    1.9055    1.8218    0.0000 H   0  0  0  0  0  0  0  0  0  0  0  0
    2.2074    2.9487    0.0000 H   0  0  0  0  0  0  0  0  0  0  0  0
    1.0805    3.2507    0.0000 H   0  0  0  0  0  0  0  0  0  0  0  0
    0.7785    2.9487    0.0000 H   0  0  0  0  0  0  0  0  0  0  0  0
   -0.1495    3.3331    0.0000 H   0  0  0  0  0  0  0  0  0  0  0  0
   -0.7610    2.5362    0.0000 H   0  0  0  0  0  0  0  0  0  0  0  0
   -0.1495    1.7394    0.0000 H   0  0  0  0  0  0  0  0  0  0  0  0
    2.2074    1.2987    0.0000 H   0  0  0  0  0  0  0  0  0  0  0  0
    2.2074   -0.3513    0.0000 H   0  0  0  0  0  0  0  0  0  0  0  0
    0.7785   -1.1763    0.0000 H   0  0  0  0  0  0  0  0  0  0  0  0
   -0.7548    0.7853    0.0000 H   0  0  0  0  0  0  0  0  0  0  0  0
    0.0640   -0.7638    0.0000 H   0  0  0  0  0  0  0  0  0  0  0  0
   -1.4473   -0.9627    0.0000 H   0  0  0  0  0  0  0  0  0  0  0  0
   -1.0629   -1.8907    0.0000 H   0  0  0  0  0  0  0  0  0  0  0  0
   -0.0671   -1.7596    0.0000 H   0  0  0  0  0  0  0  0  0  0  0  0
   -1.7763    0.7764    0.0000 H   0  0  0  0  0  0  0  0  0  0  0  0
   -2.1775   -0.0812    0.0000 H   0  0  0  0  0  0  0  0  0  0  0  0
   -1.5086   -0.7511    0.0000 H   0  0  0  0  0  0  0  0  0  0  0  0
  1  2  1  0  0  0  0
  2  3  1  0  0  0  0
  2  4  1  0  0  0  0
  4  5  4  0  0  0  0
  5  6  4  0  0  0  0
  6  7  4  0  0  0  0
  7  8  4  0  0  0  0
  8  9  4  0  0  0  0
  4  9  4  0  0  0  0
  8 10  1  0  0  0  0
 10 11  1  0  0  0  0
 10 12  1  0  0  0  0
  1 13  1  0  0  0  0
  1 14  1  0  0  0  0
  1 15  1  0  0  0  0
  2 16  1  0  0  0  0
  3 17  1  0  0  0  0
  3 18  1  0  0  0  0
  3 19  1  0  0  0  0
  5 20  1  0  0  0  0
  6 21  1  0  0  0  0
  7 22  1  0  0  0  0
  9 23  1  0  0  0  0
 10 24  1  0  0  0  0
 11 25  1  0  0  0  0
 11 26  1  0  0  0  0
 11 27  1  0  0  0  0
 12 28  1  0  0  0  0
 12 29  1  0  0  0  0
 12 30  1  0  0  0  0
M  END
>  <InChIKey>
UNEATYXSUBPPKP-UHFFFAOYSA-N

>  <UN GHS>
2B

>  <CASRN>
99-62-7

> <Outcome>
1

>  <Index>
797

>  <StandardizerResult>
Dearomatize (ID: Dearomatize)
Clear Stereo (ID: ClearStereo)
Wedge Clean (ID: WedgeClean)
Mesomerize (ID: Mesomerize)
Tautomerize (ID: Tautomerize)
Aromatize (ID: Aromatize)
Add Explicit Hydrogens (ID: AddExplicitH)
Neutralize (ID: Neutralize)
Clean 2D (ID: Clean2D)

> <knn Distance>


> <CpId>
797

$$$$
798
  Mrv1532301301811342D          

 20 20  0  0  0  0            999 V2000
    0.7448    2.5894    0.0000 C   0  0  0  0  0  0  0  0  0  0  0  0
    0.9583    1.7925    0.0000 C   0  0  0  0  0  0  0  0  0  0  0  0
    0.3749    1.2091    0.0000 C   0  0  0  0  0  0  0  0  0  0  0  0
   -0.2084    1.7925    0.0000 C   0  0  0  0  0  0  0  0  0  0  0  0
   -1.0053    1.5789    0.0000 O   0  0  0  0  0  0  0  0  0  0  0  0
    0.9583    0.6257    0.0000 C   0  0  0  0  0  0  0  0  0  0  0  0
    0.3749    0.0424    0.0000 O   0  0  0  0  0  0  0  0  0  0  0  0
   -0.2084    0.6257    0.0000 C   0  0  0  0  0  0  0  0  0  0  0  0
    1.5417    2.8029    0.0000 H   0  0  0  0  0  0  0  0  0  0  0  0
    0.5312    3.3863    0.0000 H   0  0  0  0  0  0  0  0  0  0  0  0
   -0.0521    2.3758    0.0000 H   0  0  0  0  0  0  0  0  0  0  0  0
    1.5746    1.2440    0.0000 H   0  0  0  0  0  0  0  0  0  0  0  0
    1.7662    1.9593    0.0000 H   0  0  0  0  0  0  0  0  0  0  0  0
    0.5885    2.0060    0.0000 H   0  0  0  0  0  0  0  0  0  0  0  0
   -0.4220    0.9956    0.0000 H   0  0  0  0  0  0  0  0  0  0  0  0
   -1.8022    1.7925    0.0000 H   0  0  0  0  0  0  0  0  0  0  0  0
    1.3074   -0.1217    0.0000 H   0  0  0  0  0  0  0  0  0  0  0  0
    1.7063    0.2778    0.0000 H   0  0  0  0  0  0  0  0  0  0  0  0
   -1.0021    0.4007    0.0000 H   0  0  0  0  0  0  0  0  0  0  0  0
   -0.6313   -0.0826    0.0000 H   0  0  0  0  0  0  0  0  0  0  0  0
  1  2  1  0  0  0  0
  2  3  1  0  0  0  0
  3  4  1  0  0  0  0
  4  5  1  0  0  0  0
  3  6  1  0  0  0  0
  6  7  1  0  0  0  0
  7  8  1  0  0  0  0
  3  8  1  0  0  0  0
  1  9  1  0  0  0  0
  1 10  1  0  0  0  0
  1 11  1  0  0  0  0
  2 12  1  0  0  0  0
  2 13  1  0  0  0  0
  4 14  1  0  0  0  0
  4 15  1  0  0  0  0
  5 16  1  0  0  0  0
  6 17  1  0  0  0  0
  6 18  1  0  0  0  0
  8 19  1  0  0  0  0
  8 20  1  0  0  0  0
M  END
>  <InChIKey>
UNMJLQGKEDTEKJ-UHFFFAOYSA-N

>  <UN GHS>
2A

>  <CASRN>
3047-32-3

> <Outcome>
1

>  <Index>
798

>  <StandardizerResult>
Clear Stereo (ID: ClearStereo)
Wedge Clean (ID: WedgeClean)
Mesomerize (ID: Mesomerize)
Tautomerize (ID: Tautomerize)
Add Explicit Hydrogens (ID: AddExplicitH)
Neutralize (ID: Neutralize)
Clean 2D (ID: Clean2D)

> <knn Distance>


> <CpId>
798

$$$$
806
  Mrv1532301301811342D          

 30 29  0  0  0  0            999 V2000
   -1.3562   -3.6961    0.0000 C   0  0  0  0  0  0  0  0  0  0  0  0
   -0.6417   -3.2836    0.0000 C   0  0  0  0  0  0  0  0  0  0  0  0
    0.0728   -3.6961    0.0000 C   0  0  0  0  0  0  0  0  0  0  0  0
   -0.6417   -2.4586    0.0000 C   0  0  0  0  0  0  0  0  0  0  0  0
   -1.3562   -2.0461    0.0000 O   0  0  0  0  0  0  0  0  0  0  0  0
    0.0728   -2.0461    0.0000 O   0  0  0  0  0  0  0  0  0  0  0  0
    0.0728   -1.2211    0.0000 C   0  0  0  0  0  0  0  0  0  0  0  0
    0.7873   -0.8086    0.0000 C   0  0  0  0  0  0  0  0  0  0  0  0
    0.7873    0.0164    0.0000 N   0  3  0  0  0  0  0  0  0  0  0  0
    0.7873    0.8414    0.0000 C   0  0  0  0  0  0  0  0  0  0  0  0
    1.6123    0.0164    0.0000 C   0  0  0  0  0  0  0  0  0  0  0  0
   -0.0377    0.0164    0.0000 C   0  0  0  0  0  0  0  0  0  0  0  0
   -1.7687   -2.9816    0.0000 H   0  0  0  0  0  0  0  0  0  0  0  0
   -2.0706   -4.1086    0.0000 H   0  0  0  0  0  0  0  0  0  0  0  0
   -0.9437   -4.4106    0.0000 H   0  0  0  0  0  0  0  0  0  0  0  0
    0.0728   -4.5211    0.0000 H   0  0  0  0  0  0  0  0  0  0  0  0
    0.7873   -3.2836    0.0000 H   0  0  0  0  0  0  0  0  0  0  0  0
   -0.3806   -0.5318    0.0000 H   0  0  0  0  0  0  0  0  0  0  0  0
   -0.7508   -1.1731    0.0000 H   0  0  0  0  0  0  0  0  0  0  0  0
    1.2406   -1.4979    0.0000 H   0  0  0  0  0  0  0  0  0  0  0  0
    1.6109   -0.8566    0.0000 H   0  0  0  0  0  0  0  0  0  0  0  0
    1.6123    0.8414    0.0000 H   0  0  0  0  0  0  0  0  0  0  0  0
    0.7873    1.6664    0.0000 H   0  0  0  0  0  0  0  0  0  0  0  0
   -0.0377    0.8414    0.0000 H   0  0  0  0  0  0  0  0  0  0  0  0
    2.1949   -0.5677    0.0000 H   0  0  0  0  0  0  0  0  0  0  0  0
    2.4373    0.0157    0.0000 H   0  0  0  0  0  0  0  0  0  0  0  0
    2.1959    0.5995    0.0000 H   0  0  0  0  0  0  0  0  0  0  0  0
   -0.6635    0.5541    0.0000 H   0  0  0  0  0  0  0  0  0  0  0  0
   -0.8534   -0.1077    0.0000 H   0  0  0  0  0  0  0  0  0  0  0  0
    0.3621   -0.7052    0.0000 H   0  0  0  0  0  0  0  0  0  0  0  0
  1  2  1  0  0  0  0
  2  3  2  0  0  0  0
  2  4  1  0  0  0  0
  4  5  2  0  0  0  0
  4  6  1  0  0  0  0
  6  7  1  0  0  0  0
  7  8  1  0  0  0  0
  8  9  1  0  0  0  0
  9 10  1  0  0  0  0
  9 11  1  0  0  0  0
  9 12  1  0  0  0  0
  1 13  1  0  0  0  0
  1 14  1  0  0  0  0
  1 15  1  0  0  0  0
  3 16  1  0  0  0  0
  3 17  1  0  0  0  0
  7 18  1  0  0  0  0
  7 19  1  0  0  0  0
  8 20  1  0  0  0  0
  8 21  1  0  0  0  0
 10 22  1  0  0  0  0
 10 23  1  0  0  0  0
 10 24  1  0  0  0  0
 11 25  1  0  0  0  0
 11 26  1  0  0  0  0
 11 27  1  0  0  0  0
 12 28  1  0  0  0  0
 12 29  1  0  0  0  0
 12 30  1  0  0  0  0
M  CHG  1   9   1
M  END
>  <InChIKey>
USFMMZYROHDWPJ-UHFFFAOYSA-N

>  <UN GHS>
2B

>  <CASRN>
5039-78-1

> <Outcome>
1

>  <Index>
806

>  <StandardizerResult>
Clear Stereo (ID: ClearStereo)
Wedge Clean (ID: WedgeClean)
Mesomerize (ID: Mesomerize)
Tautomerize (ID: Tautomerize)
Add Explicit Hydrogens (ID: AddExplicitH)
Clean 2D (ID: Clean2D)

> <knn Distance>


> <CpId>
806

$$$$
809
  Mrv1532301301811342D          

121122  0  0  0  0            999 V2000
   -3.4645   -4.4715    0.0000 C   0  0  0  0  0  0  0  0  0  0  0  0
   -2.7501   -4.8840    0.0000 C   0  0  0  0  0  0  0  0  0  0  0  0
   -2.7501   -5.7090    0.0000 C   0  0  0  0  0  0  0  0  0  0  0  0
   -2.0356   -4.4715    0.0000 C   0  0  0  0  0  0  0  0  0  0  0  0
   -2.0356   -3.6465    0.0000 O   0  0  0  0  0  0  0  0  0  0  0  0
   -1.3211   -4.8840    0.0000 O   0  0  0  0  0  0  0  0  0  0  0  0
   -0.6066   -4.4715    0.0000 C   0  0  0  0  0  0  0  0  0  0  0  0
    0.1078   -4.8840    0.0000 C   0  0  0  0  0  0  0  0  0  0  0  0
    0.8615   -4.5484    0.0000 O   0  0  0  0  0  0  0  0  0  0  0  0
    1.4135   -5.1615    0.0000 C   0  0  0  0  0  0  0  0  0  0  0  0
    1.9656   -4.5484    0.0000 C   0  0  0  0  0  0  0  0  0  0  0  0
    1.7106   -3.7638    0.0000 O   0  0  0  0  0  0  0  0  0  0  0  0
    0.9037   -3.5923    0.0000 C   0  0  0  0  0  0  0  0  0  0  0  0
    0.6487   -2.8076    0.0000 C   0  0  0  0  0  0  0  0  0  0  0  0
    0.3516   -4.2054    0.0000 O   0  0  0  0  0  0  0  0  0  0  0  0
    2.0810   -5.6464    0.0000 O   0  0  0  0  0  0  0  0  0  0  0  0
    2.8346   -5.3109    0.0000 C   0  0  0  0  0  0  0  0  0  0  0  0
    2.9209   -4.4904    0.0000 O   0  0  0  0  0  0  0  0  0  0  0  0
    3.6746   -4.1548    0.0000 C   0  0  0  0  0  0  0  0  0  0  0  0
    3.7608   -3.3344    0.0000 C   0  0  0  0  0  0  0  0  0  0  0  0
    3.0934   -2.8494    0.0000 O   0  0  0  0  0  0  0  0  0  0  0  0
    3.1796   -2.0290    0.0000 C   0  0  0  0  0  0  0  0  0  0  0  0
    3.9333   -1.6934    0.0000 C   0  0  0  0  0  0  0  0  0  0  0  0
    2.5121   -1.5440    0.0000 O   0  0  0  0  0  0  0  0  0  0  0  0
    4.3420   -4.6398    0.0000 C   0  0  0  0  0  0  0  0  0  0  0  0
    5.0957   -4.3042    0.0000 O   0  0  0  0  0  0  0  0  0  0  0  0
    5.1819   -3.4837    0.0000 C   0  0  0  0  0  0  0  0  0  0  0  0
    4.5145   -2.9988    0.0000 O   0  0  0  0  0  0  0  0  0  0  0  0
    5.9356   -3.1482    0.0000 C   0  0  0  0  0  0  0  0  0  0  0  0
    6.0218   -2.3277    0.0000 C   0  0  0  0  0  0  0  0  0  0  0  0
    6.6030   -3.6331    0.0000 C   0  0  0  0  0  0  0  0  0  0  0  0
    4.2558   -5.4602    0.0000 C   0  0  0  0  0  0  0  0  0  0  0  0
    4.9232   -5.9452    0.0000 O   0  0  0  0  0  0  0  0  0  0  0  0
    4.8370   -6.7656    0.0000 C   0  0  0  0  0  0  0  0  0  0  0  0
    4.0833   -7.1012    0.0000 O   0  0  0  0  0  0  0  0  0  0  0  0
    5.5044   -7.2506    0.0000 C   0  0  0  0  0  0  0  0  0  0  0  0
    6.2581   -6.9150    0.0000 C   0  0  0  0  0  0  0  0  0  0  0  0
    5.4182   -8.0710    0.0000 C   0  0  0  0  0  0  0  0  0  0  0  0
    3.5021   -5.7958    0.0000 C   0  0  0  0  0  0  0  0  0  0  0  0
    3.4158   -6.6163    0.0000 O   0  0  0  0  0  0  0  0  0  0  0  0
    2.6622   -6.9518    0.0000 C   0  0  0  0  0  0  0  0  0  0  0  0
    1.9947   -6.4669    0.0000 O   0  0  0  0  0  0  0  0  0  0  0  0
    2.5759   -7.7723    0.0000 C   0  0  0  0  0  0  0  0  0  0  0  0
    3.2434   -8.2572    0.0000 C   0  0  0  0  0  0  0  0  0  0  0  0
    1.8223   -8.1079    0.0000 C   0  0  0  0  0  0  0  0  0  0  0  0
    1.0010   -5.8760    0.0000 C   0  0  0  0  0  0  0  0  0  0  0  0
    1.3366   -6.6297    0.0000 O   0  0  0  0  0  0  0  0  0  0  0  0
    0.8517   -7.2971    0.0000 C   0  0  0  0  0  0  0  0  0  0  0  0
    1.1872   -8.0508    0.0000 O   0  0  0  0  0  0  0  0  0  0  0  0
    0.0312   -7.2109    0.0000 C   0  0  0  0  0  0  0  0  0  0  0  0
   -0.4537   -7.8783    0.0000 C   0  0  0  0  0  0  0  0  0  0  0  0
   -0.5208   -6.5978    0.0000 C   0  0  0  0  0  0  0  0  0  0  0  0
    0.1941   -5.7045    0.0000 C   0  0  0  0  0  0  0  0  0  0  0  0
   -0.4190   -6.2565    0.0000 O   0  0  0  0  0  0  0  0  0  0  0  0
   -1.2037   -6.0016    0.0000 C   0  0  0  0  0  0  0  0  0  0  0  0
   -1.3752   -5.1946    0.0000 O   0  0  0  0  0  0  0  0  0  0  0  0
   -1.8168   -6.5536    0.0000 C   0  0  0  0  0  0  0  0  0  0  0  0
   -1.6452   -7.3606    0.0000 C   0  0  0  0  0  0  0  0  0  0  0  0
   -2.6014   -6.2986    0.0000 C   0  0  0  0  0  0  0  0  0  0  0  0
   -3.0520   -3.7570    0.0000 H   0  0  0  0  0  0  0  0  0  0  0  0
   -4.1790   -4.0590    0.0000 H   0  0  0  0  0  0  0  0  0  0  0  0
   -3.8770   -5.1859    0.0000 H   0  0  0  0  0  0  0  0  0  0  0  0
   -3.4645   -5.2965    0.0000 H   0  0  0  0  0  0  0  0  0  0  0  0
   -1.9776   -5.9988    0.0000 H   0  0  0  0  0  0  0  0  0  0  0  0
   -2.0719   -5.2391    0.0000 H   0  0  0  0  0  0  0  0  0  0  0  0
   -3.4083   -6.2063    0.0000 H   0  0  0  0  0  0  0  0  0  0  0  0
   -0.2364   -3.7342    0.0000 H   0  0  0  0  0  0  0  0  0  0  0  0
   -0.9769   -3.7342    0.0000 H   0  0  0  0  0  0  0  0  0  0  0  0
   -0.5841   -5.3333    0.0000 H   0  0  0  0  0  0  0  0  0  0  0  0
    2.3238   -5.2916    0.0000 H   0  0  0  0  0  0  0  0  0  0  0  0
    1.1586   -4.3769    0.0000 H   0  0  0  0  0  0  0  0  0  0  0  0
    1.4333   -2.5527    0.0000 H   0  0  0  0  0  0  0  0  0  0  0  0
    0.3938   -2.0230    0.0000 H   0  0  0  0  0  0  0  0  0  0  0  0
   -0.1359   -3.0626    0.0000 H   0  0  0  0  0  0  0  0  0  0  0  0
    2.7484   -6.1314    0.0000 H   0  0  0  0  0  0  0  0  0  0  0  0
    4.4282   -3.8193    0.0000 H   0  0  0  0  0  0  0  0  0  0  0  0
    3.0071   -3.6699    0.0000 H   0  0  0  0  0  0  0  0  0  0  0  0
    3.8470   -2.5139    0.0000 H   0  0  0  0  0  0  0  0  0  0  0  0
    4.7035   -1.9891    0.0000 H   0  0  0  0  0  0  0  0  0  0  0  0
    4.4182   -1.0260    0.0000 H   0  0  0  0  0  0  0  0  0  0  0  0
    3.4141   -1.0523    0.0000 H   0  0  0  0  0  0  0  0  0  0  0  0
    5.0094   -5.1247    0.0000 H   0  0  0  0  0  0  0  0  0  0  0  0
    5.2681   -2.6632    0.0000 H   0  0  0  0  0  0  0  0  0  0  0  0
    6.7920   -2.6233    0.0000 H   0  0  0  0  0  0  0  0  0  0  0  0
    6.5067   -1.6602    0.0000 H   0  0  0  0  0  0  0  0  0  0  0  0
    5.5026   -1.6865    0.0000 H   0  0  0  0  0  0  0  0  0  0  0  0
    6.1181   -4.3005    0.0000 H   0  0  0  0  0  0  0  0  0  0  0  0
    7.2705   -4.1180    0.0000 H   0  0  0  0  0  0  0  0  0  0  0  0
    7.0879   -2.9657    0.0000 H   0  0  0  0  0  0  0  0  0  0  0  0
    4.1695   -6.2807    0.0000 H   0  0  0  0  0  0  0  0  0  0  0  0
    5.5906   -6.4301    0.0000 H   0  0  0  0  0  0  0  0  0  0  0  0
    6.3871   -7.7299    0.0000 H   0  0  0  0  0  0  0  0  0  0  0  0
    7.0786   -7.0012    0.0000 H   0  0  0  0  0  0  0  0  0  0  0  0
    6.5537   -6.1448    0.0000 H   0  0  0  0  0  0  0  0  0  0  0  0
    4.5977   -7.9848    0.0000 H   0  0  0  0  0  0  0  0  0  0  0  0
    5.3319   -8.8915    0.0000 H   0  0  0  0  0  0  0  0  0  0  0  0
    6.2386   -8.1573    0.0000 H   0  0  0  0  0  0  0  0  0  0  0  0
    3.5883   -4.9753    0.0000 H   0  0  0  0  0  0  0  0  0  0  0  0
    3.3296   -7.4368    0.0000 H   0  0  0  0  0  0  0  0  0  0  0  0
    2.6022   -8.7764    0.0000 H   0  0  0  0  0  0  0  0  0  0  0  0
    3.5789   -9.0109    0.0000 H   0  0  0  0  0  0  0  0  0  0  0  0
    4.0582   -8.1282    0.0000 H   0  0  0  0  0  0  0  0  0  0  0  0
    1.6254   -8.9090    0.0000 H   0  0  0  0  0  0  0  0  0  0  0  0
    2.2676   -8.8024    0.0000 H   0  0  0  0  0  0  0  0  0  0  0  0
    1.6871   -7.2940    0.0000 H   0  0  0  0  0  0  0  0  0  0  0  0
    0.4818   -6.5171    0.0000 H   0  0  0  0  0  0  0  0  0  0  0  0
    0.3667   -7.9645    0.0000 H   0  0  0  0  0  0  0  0  0  0  0  0
   -0.9729   -7.2372    0.0000 H   0  0  0  0  0  0  0  0  0  0  0  0
   -1.2074   -8.2139    0.0000 H   0  0  0  0  0  0  0  0  0  0  0  0
   -0.3247   -8.6931    0.0000 H   0  0  0  0  0  0  0  0  0  0  0  0
    0.2970   -6.7060    0.0000 H   0  0  0  0  0  0  0  0  0  0  0  0
    0.1716   -6.1493    0.0000 H   0  0  0  0  0  0  0  0  0  0  0  0
   -1.3400   -6.6955    0.0000 H   0  0  0  0  0  0  0  0  0  0  0  0
    0.8072   -5.1524    0.0000 H   0  0  0  0  0  0  0  0  0  0  0  0
   -2.4298   -7.1056    0.0000 H   0  0  0  0  0  0  0  0  0  0  0  0
   -2.3800   -7.7358    0.0000 H   0  0  0  0  0  0  0  0  0  0  0  0
   -1.8987   -8.1457    0.0000 H   0  0  0  0  0  0  0  0  0  0  0  0
   -0.9051   -7.7250    0.0000 H   0  0  0  0  0  0  0  0  0  0  0  0
   -3.3736   -6.5890    0.0000 H   0  0  0  0  0  0  0  0  0  0  0  0
   -3.1562   -6.9092    0.0000 H   0  0  0  0  0  0  0  0  0  0  0  0
   -2.8167   -7.0950    0.0000 H   0  0  0  0  0  0  0  0  0  0  0  0
  1  2  1  0  0  0  0
  2  3  1  0  0  0  0
  2  4  1  0  0  0  0
  4  5  2  0  0  0  0
  4  6  1  0  0  0  0
  6  7  1  0  0  0  0
  7  8  1  0  0  0  0
  8  9  1  0  0  0  0
  9 10  1  0  0  0  0
 10 11  1  0  0  0  0
 11 12  1  0  0  0  0
 12 13  1  0  0  0  0
 13 14  1  0  0  0  0
 13 15  2  0  0  0  0
 10 16  1  0  0  0  0
 16 17  1  0  0  0  0
 17 18  1  0  0  0  0
 18 19  1  0  0  0  0
 19 20  1  0  0  0  0
 20 21  1  0  0  0  0
 21 22  1  0  0  0  0
 22 23  1  0  0  0  0
 22 24  2  0  0  0  0
 19 25  1  0  0  0  0
 25 26  1  0  0  0  0
 26 27  1  0  0  0  0
 27 28  2  0  0  0  0
 27 29  1  0  0  0  0
 29 30  1  0  0  0  0
 29 31  1  0  0  0  0
 25 32  1  0  0  0  0
 32 33  1  0  0  0  0
 33 34  1  0  0  0  0
 34 35  2  0  0  0  0
 34 36  1  0  0  0  0
 36 37  1  0  0  0  0
 36 38  1  0  0  0  0
 32 39  1  0  0  0  0
 17 39  1  0  0  0  0
 39 40  1  0  0  0  0
 40 41  1  0  0  0  0
 41 42  2  0  0  0  0
 41 43  1  0  0  0  0
 43 44  1  0  0  0  0
 43 45  1  0  0  0  0
 10 46  1  0  0  0  0
 46 47  1  0  0  0  0
 47 48  1  0  0  0  0
 48 49  2  0  0  0  0
 48 50  1  0  0  0  0
 50 51  1  0  0  0  0
 50 52  1  0  0  0  0
 46 53  1  0  0  0  0
  8 53  1  0  0  0  0
 53 54  1  0  0  0  0
 54 55  1  0  0  0  0
 55 56  2  0  0  0  0
 55 57  1  0  0  0  0
 57 58  1  0  0  0  0
 57 59  1  0  0  0  0
  1 60  1  0  0  0  0
  1 61  1  0  0  0  0
  1 62  1  0  0  0  0
  2 63  1  0  0  0  0
  3 64  1  0  0  0  0
  3 65  1  0  0  0  0
  3 66  1  0  0  0  0
  7 67  1  0  0  0  0
  7 68  1  0  0  0  0
  8 69  1  0  0  0  0
 11 70  1  0  0  0  0
 11 71  1  0  0  0  0
 14 72  1  0  0  0  0
 14 73  1  0  0  0  0
 14 74  1  0  0  0  0
 17 75  1  0  0  0  0
 19 76  1  0  0  0  0
 20 77  1  0  0  0  0
 20 78  1  0  0  0  0
 23 79  1  0  0  0  0
 23 80  1  0  0  0  0
 23 81  1  0  0  0  0
 25 82  1  0  0  0  0
 29 83  1  0  0  0  0
 30 84  1  0  0  0  0
 30 85  1  0  0  0  0
 30 86  1  0  0  0  0
 31 87  1  0  0  0  0
 31 88  1  0  0  0  0
 31 89  1  0  0  0  0
 32 90  1  0  0  0  0
 36 91  1  0  0  0  0
 37 92  1  0  0  0  0
 37 93  1  0  0  0  0
 37 94  1  0  0  0  0
 38 95  1  0  0  0  0
 38 96  1  0  0  0  0
 38 97  1  0  0  0  0
 39 98  1  0  0  0  0
 43 99  1  0  0  0  0
 44100  1  0  0  0  0
 44101  1  0  0  0  0
 44102  1  0  0  0  0
 45103  1  0  0  0  0
 45104  1  0  0  0  0
 45105  1  0  0  0  0
 46106  1  0  0  0  0
 50107  1  0  0  0  0
 51108  1  0  0  0  0
 51109  1  0  0  0  0
 51110  1  0  0  0  0
 52111  1  0  0  0  0
 52112  1  0  0  0  0
 52113  1  0  0  0  0
 53114  1  0  0  0  0
 57115  1  0  0  0  0
 58116  1  0  0  0  0
 58117  1  0  0  0  0
 58118  1  0  0  0  0
 59119  1  0  0  0  0
 59120  1  0  0  0  0
 59121  1  0  0  0  0
M  END
>  <InChIKey>
UVGUPMLLGBCFEJ-SWTLDUCYSA-N

>  <UN GHS>
2B

>  <CASRN>
126-13-6

> <Outcome>
1

>  <Index>
809

>  <StandardizerResult>
Clear Stereo (ID: ClearStereo)
Wedge Clean (ID: WedgeClean)
Mesomerize (ID: Mesomerize)
Tautomerize (ID: Tautomerize)
Add Explicit Hydrogens (ID: AddExplicitH)
Neutralize (ID: Neutralize)
Clean 2D (ID: Clean2D)

> <knn Distance>


> <CpId>
809

$$$$
813
  Mrv1532301301811342D          

 31 31  0  0  0  0            999 V2000
    1.3824    1.9245    0.0000 C   0  0  0  0  0  0  0  0  0  0  0  0
    0.8521    1.2926    0.0000 C   0  0  0  0  0  0  0  0  0  0  0  0
    0.3218    1.9245    0.0000 C   0  0  0  0  0  0  0  0  0  0  0  0
    1.5665    0.8801    0.0000 C   0  0  0  0  0  0  0  0  0  0  0  0
    1.5665    0.0551    0.0000 C   0  0  0  0  0  0  0  0  0  0  0  0
    2.2810   -0.3574    0.0000 O   0  0  0  0  0  0  0  0  0  0  0  0
    0.8521   -0.3574    0.0000 C   0  0  0  0  0  0  0  0  0  0  0  0
    0.1376    0.0551    0.0000 C   0  0  0  0  0  0  0  0  0  0  0  0
   -0.1446   -0.7202    0.0000 C   0  0  0  0  0  0  0  0  0  0  0  0
   -0.6749    0.1983    0.0000 C   0  0  0  0  0  0  0  0  0  0  0  0
    0.1376    0.8801    0.0000 N   0  0  0  0  0  0  0  0  0  0  0  0
   -0.5769    1.2926    0.0000 O   0  0  0  0  0  0  0  0  0  0  0  0
    2.0144    1.3942    0.0000 H   0  0  0  0  0  0  0  0  0  0  0  0
    1.9127    2.5565    0.0000 H   0  0  0  0  0  0  0  0  0  0  0  0
    0.7504    2.4548    0.0000 H   0  0  0  0  0  0  0  0  0  0  0  0
   -0.0372    2.6674    0.0000 H   0  0  0  0  0  0  0  0  0  0  0  0
   -0.5032    1.9170    0.0000 H   0  0  0  0  0  0  0  0  0  0  0  0
   -0.0235    1.1752    0.0000 H   0  0  0  0  0  0  0  0  0  0  0  0
    2.3392    0.5908    0.0000 H   0  0  0  0  0  0  0  0  0  0  0  0
    0.8521    0.4676    0.0000 H   0  0  0  0  0  0  0  0  0  0  0  0
    1.5665   -0.7699    0.0000 H   0  0  0  0  0  0  0  0  0  0  0  0
    2.9825   -0.7916    0.0000 H   0  0  0  0  0  0  0  0  0  0  0  0
    0.2201   -0.8877    0.0000 H   0  0  0  0  0  0  0  0  0  0  0  0
    0.7088   -1.1699    0.0000 H   0  0  0  0  0  0  0  0  0  0  0  0
   -0.7335   -0.1425    0.0000 H   0  0  0  0  0  0  0  0  0  0  0  0
   -0.9142   -1.0173    0.0000 H   0  0  0  0  0  0  0  0  0  0  0  0
   -0.1927   -1.5438    0.0000 H   0  0  0  0  0  0  0  0  0  0  0  0
   -0.2323    0.8946    0.0000 H   0  0  0  0  0  0  0  0  0  0  0  0
   -1.1494    0.8731    0.0000 H   0  0  0  0  0  0  0  0  0  0  0  0
   -1.4798    0.0173    0.0000 H   0  0  0  0  0  0  0  0  0  0  0  0
   -1.2895    1.7082    0.0000 H   0  0  0  0  0  0  0  0  0  0  0  0
  1  2  1  0  0  0  0
  2  3  1  0  0  0  0
  2  4  1  0  0  0  0
  4  5  1  0  0  0  0
  5  6  1  0  0  0  0
  5  7  1  0  0  0  0
  7  8  1  0  0  0  0
  8  9  1  0  0  0  0
  8 10  1  0  0  0  0
  8 11  1  0  0  0  0
  2 11  1  0  0  0  0
 11 12  1  0  0  0  0
  1 13  1  0  0  0  0
  1 14  1  0  0  0  0
  1 15  1  0  0  0  0
  3 16  1  0  0  0  0
  3 17  1  0  0  0  0
  3 18  1  0  0  0  0
  4 19  1  0  0  0  0
  4 20  1  0  0  0  0
  5 21  1  0  0  0  0
  6 22  1  0  0  0  0
  7 23  1  0  0  0  0
  7 24  1  0  0  0  0
  9 25  1  0  0  0  0
  9 26  1  0  0  0  0
  9 27  1  0  0  0  0
 10 28  1  0  0  0  0
 10 29  1  0  0  0  0
 10 30  1  0  0  0  0
 12 31  1  0  0  0  0
M  END
>  <InChIKey>
UZFMOKQJFYMBGY-UHFFFAOYSA-N

>  <UN GHS>
1

>  <CASRN>
2226-96-2

> <Outcome>
1

>  <Index>
813

>  <StandardizerResult>
Clear Stereo (ID: ClearStereo)
Wedge Clean (ID: WedgeClean)
Mesomerize (ID: Mesomerize)
Tautomerize (ID: Tautomerize)
Add Explicit Hydrogens (ID: AddExplicitH)
Neutralize (ID: Neutralize)
Clean 2D (ID: Clean2D)

> <knn Distance>


> <CpId>
813

$$$$
815
  Mrv1532301301811342D          

  8  8  0  0  0  0            999 V2000
    0.5678    1.9393    0.0000 O   0  0  0  0  0  0  0  0  0  0  0  0
    0.5678    1.1143    0.0000 C   0  0  0  0  0  0  0  0  0  0  0  0
    1.2352    0.6294    0.0000 O   0  0  0  0  0  0  0  0  0  0  0  0
    0.9803   -0.1553    0.0000 C   0  0  0  0  0  0  0  0  0  0  0  0
    0.1553   -0.1553    0.0000 C   0  0  0  0  0  0  0  0  0  0  0  0
   -0.0996    0.6294    0.0000 O   0  0  0  0  0  0  0  0  0  0  0  0
    1.4652   -0.8227    0.0000 H   0  0  0  0  0  0  0  0  0  0  0  0
   -0.3296   -0.8227    0.0000 H   0  0  0  0  0  0  0  0  0  0  0  0
  1  2  2  0  0  0  0
  2  3  1  0  0  0  0
  3  4  1  0  0  0  0
  4  5  2  0  0  0  0
  5  6  1  0  0  0  0
  2  6  1  0  0  0  0
  4  7  1  0  0  0  0
  5  8  1  0  0  0  0
M  END
>  <InChIKey>
VAYTZRYEBVHVLE-UHFFFAOYSA-N

>  <UN GHS>
2A

>  <CASRN>
872-36-6

> <Outcome>
1

>  <Index>
815

>  <StandardizerResult>
Dearomatize (ID: Dearomatize)
Clear Stereo (ID: ClearStereo)
Wedge Clean (ID: WedgeClean)
Mesomerize (ID: Mesomerize)
Tautomerize (ID: Tautomerize)
Add Explicit Hydrogens (ID: AddExplicitH)
Neutralize (ID: Neutralize)
Clean 2D (ID: Clean2D)

> <knn Distance>


> <CpId>
815

$$$$
821
  Mrv1532301301811342D          

 19 19  0  0  0  0            999 V2000
    0.0799    2.5263    0.0000 O   0  0  0  0  0  0  0  0  0  0  0  0
    0.7944    2.1138    0.0000 N   0  0  0  0  0  0  0  0  0  0  0  0
    0.7944    1.2888    0.0000 C   0  0  0  0  0  0  0  0  0  0  0  0
    1.5089    0.8763    0.0000 C   0  0  0  0  0  0  0  0  0  0  0  0
    1.5089    0.0513    0.0000 C   0  0  0  0  0  0  0  0  0  0  0  0
    0.7944   -0.3612    0.0000 C   0  0  0  0  0  0  0  0  0  0  0  0
    0.0799    0.0513    0.0000 C   0  0  0  0  0  0  0  0  0  0  0  0
    0.0799    0.8763    0.0000 C   0  0  0  0  0  0  0  0  0  0  0  0
    0.0799    1.7013    0.0000 H   0  0  0  0  0  0  0  0  0  0  0  0
    2.3325    0.9243    0.0000 H   0  0  0  0  0  0  0  0  0  0  0  0
    1.9622    1.5656    0.0000 H   0  0  0  0  0  0  0  0  0  0  0  0
    1.9622   -0.6380    0.0000 H   0  0  0  0  0  0  0  0  0  0  0  0
    2.3325    0.0033    0.0000 H   0  0  0  0  0  0  0  0  0  0  0  0
    0.4241   -1.0985    0.0000 H   0  0  0  0  0  0  0  0  0  0  0  0
    1.1646   -1.0985    0.0000 H   0  0  0  0  0  0  0  0  0  0  0  0
   -0.7437    0.0033    0.0000 H   0  0  0  0  0  0  0  0  0  0  0  0
   -0.3734   -0.6380    0.0000 H   0  0  0  0  0  0  0  0  0  0  0  0
   -0.6953    1.1584    0.0000 H   0  0  0  0  0  0  0  0  0  0  0  0
   -0.6953    0.5941    0.0000 H   0  0  0  0  0  0  0  0  0  0  0  0
  1  2  2  0  0  0  0
  2  3  1  0  0  0  0
  3  4  1  0  0  0  0
  4  5  1  0  0  0  0
  5  6  1  0  0  0  0
  6  7  1  0  0  0  0
  7  8  1  0  0  0  0
  3  8  1  0  0  0  0
  3  9  1  0  0  0  0
  4 10  1  0  0  0  0
  4 11  1  0  0  0  0
  5 12  1  0  0  0  0
  5 13  1  0  0  0  0
  6 14  1  0  0  0  0
  6 15  1  0  0  0  0
  7 16  1  0  0  0  0
  7 17  1  0  0  0  0
  8 18  1  0  0  0  0
  8 19  1  0  0  0  0
M  END
>  <InChIKey>
VEZUQRBDRNJBJY-UHFFFAOYSA-N

>  <UN GHS>
2A

>  <CASRN>
100-64-1

> <Outcome>
1

>  <Index>
821

>  <StandardizerResult>
Clear Stereo (ID: ClearStereo)
Wedge Clean (ID: WedgeClean)
Mesomerize (ID: Mesomerize)
Tautomerize (ID: Tautomerize)
Add Explicit Hydrogens (ID: AddExplicitH)
Neutralize (ID: Neutralize)
Clean 2D (ID: Clean2D)

> <knn Distance>


> <CpId>
821

$$$$
823
  Mrv1532301301811342D          

 21 20  0  0  0  0            999 V2000
    1.0461    1.4289    0.0000 C   0  0  0  0  0  0  0  0  0  0  0  0
    1.7605    1.8414    0.0000 C   0  0  0  0  0  0  0  0  0  0  0  0
    2.4750    1.4289    0.0000 C   0  0  0  0  0  0  0  0  0  0  0  0
    3.1895    1.8414    0.0000 C   0  0  0  0  0  0  0  0  0  0  0  0
    3.9040    1.4289    0.0000 O   0  0  0  0  0  0  0  0  0  0  0  0
    4.6184    1.8414    0.0000 C   0  0  0  0  0  0  0  0  0  0  0  0
    4.6184    2.6664    0.0000 O   0  0  0  0  0  0  0  0  0  0  0  0
    5.3329    1.4289    0.0000 C   0  0  0  0  0  0  0  0  0  0  0  0
    6.0474    1.8414    0.0000 O   0  0  0  0  0  0  0  0  0  0  0  0
    0.6336    2.1434    0.0000 H   0  0  0  0  0  0  0  0  0  0  0  0
    0.3316    1.0164    0.0000 H   0  0  0  0  0  0  0  0  0  0  0  0
    1.4586    0.7144    0.0000 H   0  0  0  0  0  0  0  0  0  0  0  0
    2.1308    2.5786    0.0000 H   0  0  0  0  0  0  0  0  0  0  0  0
    1.3903    2.5786    0.0000 H   0  0  0  0  0  0  0  0  0  0  0  0
    2.1048    0.6917    0.0000 H   0  0  0  0  0  0  0  0  0  0  0  0
    2.8453    0.6917    0.0000 H   0  0  0  0  0  0  0  0  0  0  0  0
    3.5597    2.5786    0.0000 H   0  0  0  0  0  0  0  0  0  0  0  0
    2.8192    2.5786    0.0000 H   0  0  0  0  0  0  0  0  0  0  0  0
    4.9626    0.6917    0.0000 H   0  0  0  0  0  0  0  0  0  0  0  0
    5.7032    0.6917    0.0000 H   0  0  0  0  0  0  0  0  0  0  0  0
    6.7618    1.4289    0.0000 H   0  0  0  0  0  0  0  0  0  0  0  0
  1  2  1  0  0  0  0
  2  3  1  0  0  0  0
  3  4  1  0  0  0  0
  4  5  1  0  0  0  0
  5  6  1  0  0  0  0
  6  7  2  0  0  0  0
  6  8  1  0  0  0  0
  8  9  1  0  0  0  0
  1 10  1  0  0  0  0
  1 11  1  0  0  0  0
  1 12  1  0  0  0  0
  2 13  1  0  0  0  0
  2 14  1  0  0  0  0
  3 15  1  0  0  0  0
  3 16  1  0  0  0  0
  4 17  1  0  0  0  0
  4 18  1  0  0  0  0
  8 19  1  0  0  0  0
  8 20  1  0  0  0  0
  9 21  1  0  0  0  0
M  END
>  <InChIKey>
VFGRALUHHHDIQI-UHFFFAOYSA-N

>  <UN GHS>
1

>  <CASRN>
7397-62-8

> <Outcome>
1

>  <Index>
823

>  <StandardizerResult>
Clear Stereo (ID: ClearStereo)
Wedge Clean (ID: WedgeClean)
Mesomerize (ID: Mesomerize)
Tautomerize (ID: Tautomerize)
Add Explicit Hydrogens (ID: AddExplicitH)
Neutralize (ID: Neutralize)
Clean 2D (ID: Clean2D)

> <knn Distance>


> <CpId>
823

$$$$
826
  Mrv1532301301811342D          

 37 38  0  0  0  0            999 V2000
   -0.6849   -0.3475    0.0000 C   0  0  0  0  0  0  0  0  0  0  0  0
   -0.6849   -1.1725    0.0000 C   0  0  0  0  0  0  0  0  0  0  0  0
    0.0295   -1.5850    0.0000 C   0  0  0  0  0  0  0  0  0  0  0  0
    0.0295   -2.4100    0.0000 C   0  0  0  0  0  0  0  0  0  0  0  0
    0.7440   -2.8225    0.0000 O   0  0  0  0  0  0  0  0  0  0  0  0
    1.4585   -2.4100    0.0000 C   0  0  0  0  0  0  0  0  0  0  0  0
    1.4585   -1.5850    0.0000 C   0  0  0  0  0  0  0  0  0  0  0  0
    2.1730   -1.1725    0.0000 C   0  0  0  0  0  0  0  0  0  0  0  0
    2.1730   -0.3475    0.0000 C   0  0  0  0  0  0  0  0  0  0  0  0
    2.8874   -1.5850    0.0000 C   0  0  0  0  0  0  0  0  0  0  0  0
    2.8874   -2.4100    0.0000 C   0  0  0  0  0  0  0  0  0  0  0  0
    2.1730   -2.8225    0.0000 C   0  0  0  0  0  0  0  0  0  0  0  0
    3.6019   -2.8225    0.0000 S   0  0  0  0  0  0  0  0  0  0  0  0
    4.3164   -3.2350    0.0000 O   0  0  0  0  0  0  0  0  0  0  0  0
    4.0144   -2.1081    0.0000 O   0  0  0  0  0  0  0  0  0  0  0  0
    3.1894   -3.5370    0.0000 O   0  0  0  0  0  0  0  0  0  0  0  0
   -0.6849   -2.8225    0.0000 C   0  0  0  0  0  0  0  0  0  0  0  0
   -1.3994   -2.4100    0.0000 C   0  0  0  0  0  0  0  0  0  0  0  0
   -1.3994   -1.5850    0.0000 C   0  0  0  0  0  0  0  0  0  0  0  0
   -2.1139   -2.8225    0.0000 S   0  0  0  0  0  0  0  0  0  0  0  0
   -2.8283   -3.2350    0.0000 O   0  0  0  0  0  0  0  0  0  0  0  0
   -2.5264   -2.1081    0.0000 O   0  0  0  0  0  0  0  0  0  0  0  0
   -1.7014   -3.5370    0.0000 O   0  0  0  0  0  0  0  0  0  0  0  0
    0.1401   -0.3475    0.0000 H   0  0  0  0  0  0  0  0  0  0  0  0
   -0.6849    0.4775    0.0000 H   0  0  0  0  0  0  0  0  0  0  0  0
   -1.5099   -0.3475    0.0000 H   0  0  0  0  0  0  0  0  0  0  0  0
    0.7440   -1.1725    0.0000 H   0  0  0  0  0  0  0  0  0  0  0  0
    0.7440   -1.9975    0.0000 H   0  0  0  0  0  0  0  0  0  0  0  0
    2.9980   -0.3475    0.0000 H   0  0  0  0  0  0  0  0  0  0  0  0
    2.1730    0.4775    0.0000 H   0  0  0  0  0  0  0  0  0  0  0  0
    1.3480   -0.3475    0.0000 H   0  0  0  0  0  0  0  0  0  0  0  0
    3.6019   -1.1725    0.0000 H   0  0  0  0  0  0  0  0  0  0  0  0
    2.1730   -3.6475    0.0000 H   0  0  0  0  0  0  0  0  0  0  0  0
    4.3164   -4.0600    0.0000 H   0  0  0  0  0  0  0  0  0  0  0  0
   -0.6849   -3.6475    0.0000 H   0  0  0  0  0  0  0  0  0  0  0  0
   -2.1139   -1.1725    0.0000 H   0  0  0  0  0  0  0  0  0  0  0  0
   -3.5428   -2.8225    0.0000 H   0  0  0  0  0  0  0  0  0  0  0  0
  1  2  1  0  0  0  0
  2  3  4  0  0  0  0
  3  4  4  0  0  0  0
  4  5  1  0  0  0  0
  5  6  1  0  0  0  0
  6  7  4  0  0  0  0
  7  8  4  0  0  0  0
  8  9  1  0  0  0  0
  8 10  4  0  0  0  0
 10 11  4  0  0  0  0
 11 12  4  0  0  0  0
  6 12  4  0  0  0  0
 11 13  1  0  0  0  0
 13 14  1  0  0  0  0
 13 15  2  0  0  0  0
 13 16  2  0  0  0  0
  4 17  4  0  0  0  0
 17 18  4  0  0  0  0
 18 19  4  0  0  0  0
  2 19  4  0  0  0  0
 18 20  1  0  0  0  0
 20 21  1  0  0  0  0
 20 22  2  0  0  0  0
 20 23  2  0  0  0  0
  1 24  1  0  0  0  0
  1 25  1  0  0  0  0
  1 26  1  0  0  0  0
  3 27  1  0  0  0  0
  7 28  1  0  0  0  0
  9 29  1  0  0  0  0
  9 30  1  0  0  0  0
  9 31  1  0  0  0  0
 10 32  1  0  0  0  0
 12 33  1  0  0  0  0
 14 34  1  0  0  0  0
 17 35  1  0  0  0  0
 19 36  1  0  0  0  0
 21 37  1  0  0  0  0
M  END
>  <InChIKey>
VGRKMGBGMTUWFI-UHFFFAOYSA-L

>  <UN GHS>
2B

>  <CASRN>
73037-34-0

> <Outcome>
1

>  <Index>
826

>  <StandardizerResult>
Dearomatize (ID: Dearomatize)
Clear Stereo (ID: ClearStereo)
Wedge Clean (ID: WedgeClean)
Mesomerize (ID: Mesomerize)
Tautomerize (ID: Tautomerize)
Aromatize (ID: Aromatize)
Add Explicit Hydrogens (ID: AddExplicitH)
Neutralize (ID: Neutralize)
Clean 2D (ID: Clean2D)

> <knn Distance>


> <CpId>
826

$$$$
834
  Mrv1532301301811342D          

 19 18  0  0  0  0            999 V2000
    0.8332    1.4799    0.0000 C   0  0  0  0  0  0  0  0  0  0  0  0
    1.2457    0.7655    0.0000 C   0  0  0  0  0  0  0  0  0  0  0  0
    2.0707    0.7655    0.0000 C   0  0  0  0  0  0  0  0  0  0  0  0
    0.8332    0.0510    0.0000 N   0  0  0  0  0  0  0  0  0  0  0  0
    1.2457   -0.6635    0.0000 C   0  0  0  0  0  0  0  0  0  0  0  0
    0.0082    0.0510    0.0000 C   0  0  0  0  0  0  0  0  0  0  0  0
    1.5477    1.8924    0.0000 H   0  0  0  0  0  0  0  0  0  0  0  0
    0.4207    2.1944    0.0000 H   0  0  0  0  0  0  0  0  0  0  0  0
    0.1187    1.0674    0.0000 H   0  0  0  0  0  0  0  0  0  0  0  0
    1.6582    1.4799    0.0000 H   0  0  0  0  0  0  0  0  0  0  0  0
    1.8572   -0.0314    0.0000 H   0  0  0  0  0  0  0  0  0  0  0  0
    2.7852    0.3530    0.0000 H   0  0  0  0  0  0  0  0  0  0  0  0
    2.6541    1.3488    0.0000 H   0  0  0  0  0  0  0  0  0  0  0  0
    0.4372   -0.8278    0.0000 H   0  0  0  0  0  0  0  0  0  0  0  0
    1.1448   -1.4823    0.0000 H   0  0  0  0  0  0  0  0  0  0  0  0
    1.9901   -1.0192    0.0000 H   0  0  0  0  0  0  0  0  0  0  0  0
    0.0082    0.8760    0.0000 H   0  0  0  0  0  0  0  0  0  0  0  0
   -0.8168    0.0510    0.0000 H   0  0  0  0  0  0  0  0  0  0  0  0
    0.0082   -0.7740    0.0000 H   0  0  0  0  0  0  0  0  0  0  0  0
  1  2  1  0  0  0  0
  2  3  1  0  0  0  0
  2  4  1  0  0  0  0
  4  5  1  0  0  0  0
  4  6  1  0  0  0  0
  1  7  1  0  0  0  0
  1  8  1  0  0  0  0
  1  9  1  0  0  0  0
  2 10  1  0  0  0  0
  3 11  1  0  0  0  0
  3 12  1  0  0  0  0
  3 13  1  0  0  0  0
  5 14  1  0  0  0  0
  5 15  1  0  0  0  0
  5 16  1  0  0  0  0
  6 17  1  0  0  0  0
  6 18  1  0  0  0  0
  6 19  1  0  0  0  0
M  END
>  <InChIKey>
VMOWKUTXPNPTEN-UHFFFAOYSA-N

>  <UN GHS>
1

>  <CASRN>
996-35-0

> <Outcome>
1

>  <Index>
834

>  <StandardizerResult>
Clear Stereo (ID: ClearStereo)
Wedge Clean (ID: WedgeClean)
Mesomerize (ID: Mesomerize)
Tautomerize (ID: Tautomerize)
Add Explicit Hydrogens (ID: AddExplicitH)
Neutralize (ID: Neutralize)
Clean 2D (ID: Clean2D)

> <knn Distance>


> <CpId>
834

$$$$
836
  Mrv1532301301811342D          

 24 24  0  0  0  0            999 V2000
    1.4289    3.3000    0.0000 C   0  0  0  0  0  0  0  0  0  0  0  0
    1.4289    2.4750    0.0000 O   0  0  0  0  0  0  0  0  0  0  0  0
    0.7145    2.0625    0.0000 C   0  0  0  0  0  0  0  0  0  0  0  0
   -0.0000    2.4750    0.0000 O   0  0  0  0  0  0  0  0  0  0  0  0
    0.7145    1.2375    0.0000 C   0  0  0  0  0  0  0  0  0  0  0  0
    1.4289    0.8250    0.0000 C   0  0  0  0  0  0  0  0  0  0  0  0
    1.4289    0.0000    0.0000 C   0  0  0  0  0  0  0  0  0  0  0  0
    0.7145   -0.4125    0.0000 C   0  0  0  0  0  0  0  0  0  0  0  0
   -0.0000    0.0000    0.0000 C   0  0  0  0  0  0  0  0  0  0  0  0
   -0.0000    0.8250    0.0000 C   0  0  0  0  0  0  0  0  0  0  0  0
   -0.7145   -0.4125    0.0000 C   0  0  0  0  0  0  0  0  0  0  0  0
   -0.7145   -1.2375    0.0000 O   0  0  0  0  0  0  0  0  0  0  0  0
   -1.4289    0.0000    0.0000 O   0  0  0  0  0  0  0  0  0  0  0  0
   -2.1434   -0.4125    0.0000 C   0  0  0  0  0  0  0  0  0  0  0  0
    2.2539    3.3000    0.0000 H   0  0  0  0  0  0  0  0  0  0  0  0
    1.4289    4.1250    0.0000 H   0  0  0  0  0  0  0  0  0  0  0  0
    0.6039    3.3000    0.0000 H   0  0  0  0  0  0  0  0  0  0  0  0
    2.1434    1.2375    0.0000 H   0  0  0  0  0  0  0  0  0  0  0  0
    2.1434   -0.4125    0.0000 H   0  0  0  0  0  0  0  0  0  0  0  0
    0.7145   -1.2375    0.0000 H   0  0  0  0  0  0  0  0  0  0  0  0
   -0.7145    1.2375    0.0000 H   0  0  0  0  0  0  0  0  0  0  0  0
   -2.5559    0.3020    0.0000 H   0  0  0  0  0  0  0  0  0  0  0  0
   -2.8579   -0.8250    0.0000 H   0  0  0  0  0  0  0  0  0  0  0  0
   -1.7309   -1.1270    0.0000 H   0  0  0  0  0  0  0  0  0  0  0  0
  1  2  1  0  0  0  0
  2  3  1  0  0  0  0
  3  4  2  0  0  0  0
  3  5  1  0  0  0  0
  5  6  4  0  0  0  0
  6  7  4  0  0  0  0
  7  8  4  0  0  0  0
  8  9  4  0  0  0  0
  9 10  4  0  0  0  0
  5 10  4  0  0  0  0
  9 11  1  0  0  0  0
 11 12  2  0  0  0  0
 11 13  1  0  0  0  0
 13 14  1  0  0  0  0
  1 15  1  0  0  0  0
  1 16  1  0  0  0  0
  1 17  1  0  0  0  0
  6 18  1  0  0  0  0
  7 19  1  0  0  0  0
  8 20  1  0  0  0  0
 10 21  1  0  0  0  0
 14 22  1  0  0  0  0
 14 23  1  0  0  0  0
 14 24  1  0  0  0  0
M  END
>  <InChIKey>
VNGOYPQMJFJDLV-UHFFFAOYSA-N

>  <UN GHS>
2A

>  <CASRN>
1459-93-4

> <Outcome>
1

>  <Index>
836

>  <StandardizerResult>
Dearomatize (ID: Dearomatize)
Clear Stereo (ID: ClearStereo)
Wedge Clean (ID: WedgeClean)
Mesomerize (ID: Mesomerize)
Tautomerize (ID: Tautomerize)
Aromatize (ID: Aromatize)
Add Explicit Hydrogens (ID: AddExplicitH)
Neutralize (ID: Neutralize)
Clean 2D (ID: Clean2D)

> <knn Distance>


> <CpId>
836

$$$$
843
  Mrv1532301301811342D          

 33 34  0  0  0  0            999 V2000
    2.8579   -0.8250    0.0000 N   0  0  0  0  0  0  0  0  0  0  0  0
    2.8579   -1.6500    0.0000 S   0  0  0  0  0  0  0  0  0  0  0  0
    2.0329   -1.6500    0.0000 O   0  0  0  0  0  0  0  0  0  0  0  0
    3.6829   -1.6500    0.0000 O   0  0  0  0  0  0  0  0  0  0  0  0
    2.8579   -2.4750    0.0000 C   0  0  0  0  0  0  0  0  0  0  0  0
    3.5724   -2.8875    0.0000 C   0  0  0  0  0  0  0  0  0  0  0  0
    3.5724   -3.7125    0.0000 C   0  0  0  0  0  0  0  0  0  0  0  0
    2.8579   -4.1250    0.0000 C   0  0  0  0  0  0  0  0  0  0  0  0
    2.8579   -4.9500    0.0000 N   0  0  0  0  0  0  0  0  0  0  0  0
    2.1434   -5.3625    0.0000 C   0  0  0  0  0  0  0  0  0  0  0  0
    1.4289   -4.9500    0.0000 S   0  0  0  0  0  0  0  0  0  0  0  0
    2.1434   -6.1875    0.0000 N   0  0  0  0  0  0  0  0  0  0  0  0
    1.4289   -6.6000    0.0000 C   0  0  0  0  0  0  0  0  0  0  0  0
    1.4289   -7.4250    0.0000 C   0  0  0  0  0  0  0  0  0  0  0  0
    0.7145   -7.8375    0.0000 C   0  0  0  0  0  0  0  0  0  0  0  0
    0.0000   -7.4250    0.0000 C   0  0  0  0  0  0  0  0  0  0  0  0
   -0.7145   -7.8375    0.0000 F   0  0  0  0  0  0  0  0  0  0  0  0
    0.0000   -6.6000    0.0000 C   0  0  0  0  0  0  0  0  0  0  0  0
    0.7145   -6.1875    0.0000 C   0  0  0  0  0  0  0  0  0  0  0  0
    2.1434   -3.7125    0.0000 C   0  0  0  0  0  0  0  0  0  0  0  0
    2.1434   -2.8875    0.0000 C   0  0  0  0  0  0  0  0  0  0  0  0
    3.5724   -0.4125    0.0000 H   0  0  0  0  0  0  0  0  0  0  0  0
    2.1434   -0.4125    0.0000 H   0  0  0  0  0  0  0  0  0  0  0  0
    4.2868   -2.4750    0.0000 H   0  0  0  0  0  0  0  0  0  0  0  0
    4.2868   -4.1250    0.0000 H   0  0  0  0  0  0  0  0  0  0  0  0
    3.5724   -5.3625    0.0000 H   0  0  0  0  0  0  0  0  0  0  0  0
    2.8579   -6.6000    0.0000 H   0  0  0  0  0  0  0  0  0  0  0  0
    2.1434   -7.8375    0.0000 H   0  0  0  0  0  0  0  0  0  0  0  0
    0.7145   -8.6625    0.0000 H   0  0  0  0  0  0  0  0  0  0  0  0
   -0.7145   -6.1875    0.0000 H   0  0  0  0  0  0  0  0  0  0  0  0
    0.7145   -5.3625    0.0000 H   0  0  0  0  0  0  0  0  0  0  0  0
    1.4289   -4.1250    0.0000 H   0  0  0  0  0  0  0  0  0  0  0  0
    1.4289   -2.4750    0.0000 H   0  0  0  0  0  0  0  0  0  0  0  0
  1  2  1  0  0  0  0
  2  3  2  0  0  0  0
  2  4  2  0  0  0  0
  2  5  1  0  0  0  0
  5  6  4  0  0  0  0
  6  7  4  0  0  0  0
  7  8  4  0  0  0  0
  8  9  1  0  0  0  0
  9 10  1  0  0  0  0
 10 11  2  0  0  0  0
 10 12  1  0  0  0  0
 12 13  1  0  0  0  0
 13 14  4  0  0  0  0
 14 15  4  0  0  0  0
 15 16  4  0  0  0  0
 16 17  1  0  0  0  0
 16 18  4  0  0  0  0
 18 19  4  0  0  0  0
 13 19  4  0  0  0  0
  8 20  4  0  0  0  0
 20 21  4  0  0  0  0
  5 21  4  0  0  0  0
  1 22  1  0  0  0  0
  1 23  1  0  0  0  0
  6 24  1  0  0  0  0
  7 25  1  0  0  0  0
  9 26  1  0  0  0  0
 12 27  1  0  0  0  0
 14 28  1  0  0  0  0
 15 29  1  0  0  0  0
 18 30  1  0  0  0  0
 19 31  1  0  0  0  0
 20 32  1  0  0  0  0
 21 33  1  0  0  0  0
M  END
>  <InChIKey>
VUDOFEJVAFMLEC-UHFFFAOYSA-N

>  <UN GHS>
2A

>  <CASRN>
6156-18-9

> <Outcome>
1

>  <Index>
843

>  <StandardizerResult>
Dearomatize (ID: Dearomatize)
Clear Stereo (ID: ClearStereo)
Wedge Clean (ID: WedgeClean)
Mesomerize (ID: Mesomerize)
Tautomerize (ID: Tautomerize)
Aromatize (ID: Aromatize)
Add Explicit Hydrogens (ID: AddExplicitH)
Neutralize (ID: Neutralize)
Clean 2D (ID: Clean2D)

> <knn Distance>


> <CpId>
843

$$$$
844
  Mrv1532301301811342D          

 11 10  0  0  0  0            999 V2000
    2.0633   -0.7131    0.0000 N   0  0  0  0  0  0  0  0  0  0  0  0
    1.2383   -0.7131    0.0000 C   0  0  0  0  0  0  0  0  0  0  0  0
    0.8258    0.0014    0.0000 C   0  0  0  0  0  0  0  0  0  0  0  0
    0.0008    0.0014    0.0000 C   0  0  0  0  0  0  0  0  0  0  0  0
    2.4758   -1.4276    0.0000 H   0  0  0  0  0  0  0  0  0  0  0  0
    2.4758    0.0014    0.0000 H   0  0  0  0  0  0  0  0  0  0  0  0
    0.5490   -1.1664    0.0000 H   0  0  0  0  0  0  0  0  0  0  0  0
    1.1903   -1.5367    0.0000 H   0  0  0  0  0  0  0  0  0  0  0  0
    1.2383    0.7158    0.0000 H   0  0  0  0  0  0  0  0  0  0  0  0
   -0.4117    0.7158    0.0000 H   0  0  0  0  0  0  0  0  0  0  0  0
   -0.4117   -0.7131    0.0000 H   0  0  0  0  0  0  0  0  0  0  0  0
  1  2  1  0  0  0  0
  2  3  1  0  0  0  0
  3  4  2  0  0  0  0
  1  5  1  0  0  0  0
  1  6  1  0  0  0  0
  2  7  1  0  0  0  0
  2  8  1  0  0  0  0
  3  9  1  0  0  0  0
  4 10  1  0  0  0  0
  4 11  1  0  0  0  0
M  END
>  <InChIKey>
VVJKKWFAADXIJK-UHFFFAOYSA-N

>  <UN GHS>
1

>  <CASRN>
107-11-9

> <Outcome>
1

>  <Index>
844

>  <StandardizerResult>
Clear Stereo (ID: ClearStereo)
Wedge Clean (ID: WedgeClean)
Mesomerize (ID: Mesomerize)
Tautomerize (ID: Tautomerize)
Add Explicit Hydrogens (ID: AddExplicitH)
Neutralize (ID: Neutralize)
Clean 2D (ID: Clean2D)

> <knn Distance>


> <CpId>
844

$$$$
845
  Mrv1532301301811342D          

  9  8  0  0  0  0            999 V2000
    2.0615   -0.7162    0.0000 N   0  0  0  0  0  0  0  0  0  0  0  0
    1.2365   -0.7162    0.0000 C   0  0  0  0  0  0  0  0  0  0  0  0
    0.8240   -1.4306    0.0000 O   0  0  0  0  0  0  0  0  0  0  0  0
    0.8240   -0.0017    0.0000 C   0  0  0  0  0  0  0  0  0  0  0  0
   -0.0010   -0.0017    0.0000 Cl  0  0  0  0  0  0  0  0  0  0  0  0
    2.4740   -1.4306    0.0000 H   0  0  0  0  0  0  0  0  0  0  0  0
    2.4740   -0.0017    0.0000 H   0  0  0  0  0  0  0  0  0  0  0  0
    1.5133    0.4516    0.0000 H   0  0  0  0  0  0  0  0  0  0  0  0
    0.8720    0.8219    0.0000 H   0  0  0  0  0  0  0  0  0  0  0  0
  1  2  1  0  0  0  0
  2  3  2  0  0  0  0
  2  4  1  0  0  0  0
  4  5  1  0  0  0  0
  1  6  1  0  0  0  0
  1  7  1  0  0  0  0
  4  8  1  0  0  0  0
  4  9  1  0  0  0  0
M  END
>  <InChIKey>
VXIVSQZSERGHQP-UHFFFAOYSA-N

>  <UN GHS>
2A

>  <CASRN>
79-07-2

> <Outcome>
1

>  <Index>
845

>  <StandardizerResult>
Clear Stereo (ID: ClearStereo)
Wedge Clean (ID: WedgeClean)
Mesomerize (ID: Mesomerize)
Tautomerize (ID: Tautomerize)
Add Explicit Hydrogens (ID: AddExplicitH)
Neutralize (ID: Neutralize)
Clean 2D (ID: Clean2D)

> <knn Distance>


> <CpId>
845

$$$$
847
  Mrv1532301301811342D          

 12 11  0  0  0  0            999 V2000
    2.0625    0.7145    0.0000 O   0  0  0  0  0  0  0  0  0  0  0  0
    1.2375    0.7145    0.0000 C   0  0  0  0  0  0  0  0  0  0  0  0
    0.8250    1.4289    0.0000 O   0  0  0  0  0  0  0  0  0  0  0  0
    0.8250    0.0000    0.0000 C   0  0  0  0  0  0  0  0  0  0  0  0
    0.0000    0.0000    0.0000 C   0  0  0  0  0  0  0  0  0  0  0  0
   -0.4125   -0.7145    0.0000 C   0  0  0  0  0  0  0  0  0  0  0  0
    0.0000   -1.4289    0.0000 O   0  0  0  0  0  0  0  0  0  0  0  0
   -1.2375   -0.7145    0.0000 O   0  0  0  0  0  0  0  0  0  0  0  0
    2.4750    0.0000    0.0000 H   0  0  0  0  0  0  0  0  0  0  0  0
    1.2375   -0.7145    0.0000 H   0  0  0  0  0  0  0  0  0  0  0  0
   -0.4125    0.7145    0.0000 H   0  0  0  0  0  0  0  0  0  0  0  0
   -0.4125   -2.1434    0.0000 H   0  0  0  0  0  0  0  0  0  0  0  0
  1  2  1  0  0  0  0
  2  3  2  0  0  0  0
  4  2  1  4  0  0  0
  4  5  2  0  0  0  0
  5  6  1  0  0  0  0
  6  7  1  0  0  0  0
  6  8  2  0  0  0  0
  1  9  1  0  0  0  0
  4 10  1  0  0  0  0
  5 11  1  0  0  0  0
  7 12  1  0  0  0  0
M  END
>  <InChIKey>
VZCYOOQTPOCHFL-OWOJBTEDSA-N

>  <UN GHS>
2A

>  <CASRN>
110-17-8

> <Outcome>
1

>  <Index>
847

>  <StandardizerResult>
Clear Stereo (ID: ClearStereo)
Wedge Clean (ID: WedgeClean)
Mesomerize (ID: Mesomerize)
Tautomerize (ID: Tautomerize)
Add Explicit Hydrogens (ID: AddExplicitH)
Neutralize (ID: Neutralize)
Clean 2D (ID: Clean2D)

> <knn Distance>


> <CpId>
847

$$$$
851
  Mrv1532301301811342D          

 52 52  0  0  0  0            999 V2000
    3.5693   -7.8913    0.0000 C   0  0  0  0  0  0  0  0  0  0  0  0
    4.2838   -7.4788    0.0000 C   0  0  0  0  0  0  0  0  0  0  0  0
    4.9983   -7.8913    0.0000 C   0  0  0  0  0  0  0  0  0  0  0  0
    5.7128   -7.4788    0.0000 C   0  0  0  0  0  0  0  0  0  0  0  0
    6.4272   -7.8913    0.0000 C   0  0  0  0  0  0  0  0  0  0  0  0
    7.1417   -7.4788    0.0000 C   0  0  0  0  0  0  0  0  0  0  0  0
    7.8562   -7.8913    0.0000 C   0  0  0  0  0  0  0  0  0  0  0  0
    8.5706   -7.4788    0.0000 C   0  0  0  0  0  0  0  0  0  0  0  0
    9.2851   -7.8913    0.0000 C   0  0  0  0  0  0  0  0  0  0  0  0
    9.9996   -7.4788    0.0000 C   0  0  0  0  0  0  0  0  0  0  0  0
   10.7141   -7.8913    0.0000 C   0  0  0  0  0  0  0  0  0  0  0  0
   11.4285   -7.4788    0.0000 C   0  0  0  0  0  0  0  0  0  0  0  0
   12.1430   -7.8913    0.0000 C   0  0  0  0  0  0  0  0  0  0  0  0
   12.8575   -7.4788    0.0000 C   0  0  0  0  0  0  0  0  0  0  0  0
   13.5719   -7.8913    0.0000 C   0  0  0  0  0  0  0  0  0  0  0  0
   13.5719   -8.7163    0.0000 C   0  0  0  0  0  0  0  0  0  0  0  0
   12.8575   -9.1288    0.0000 C   0  0  0  0  0  0  0  0  0  0  0  0
   12.1430   -8.7163    0.0000 C   0  0  0  0  0  0  0  0  0  0  0  0
   11.4285   -9.1288    0.0000 S   0  0  0  0  0  0  0  0  0  0  0  0
   10.7141   -9.5413    0.0000 O   0  0  0  0  0  0  0  0  0  0  0  0
   11.0160   -8.4144    0.0000 O   0  0  0  0  0  0  0  0  0  0  0  0
   11.8410   -9.8433    0.0000 O   0  0  0  0  0  0  0  0  0  0  0  0
    3.1568   -7.1769    0.0000 H   0  0  0  0  0  0  0  0  0  0  0  0
    2.8549   -8.3038    0.0000 H   0  0  0  0  0  0  0  0  0  0  0  0
    3.9818   -8.6058    0.0000 H   0  0  0  0  0  0  0  0  0  0  0  0
    4.6541   -6.7416    0.0000 H   0  0  0  0  0  0  0  0  0  0  0  0
    3.9136   -6.7416    0.0000 H   0  0  0  0  0  0  0  0  0  0  0  0
    4.6280   -8.6286    0.0000 H   0  0  0  0  0  0  0  0  0  0  0  0
    5.3686   -8.6286    0.0000 H   0  0  0  0  0  0  0  0  0  0  0  0
    6.0830   -6.7416    0.0000 H   0  0  0  0  0  0  0  0  0  0  0  0
    5.3425   -6.7416    0.0000 H   0  0  0  0  0  0  0  0  0  0  0  0
    6.0570   -8.6286    0.0000 H   0  0  0  0  0  0  0  0  0  0  0  0
    6.7975   -8.6286    0.0000 H   0  0  0  0  0  0  0  0  0  0  0  0
    7.5120   -6.7416    0.0000 H   0  0  0  0  0  0  0  0  0  0  0  0
    6.7714   -6.7416    0.0000 H   0  0  0  0  0  0  0  0  0  0  0  0
    7.4859   -8.6286    0.0000 H   0  0  0  0  0  0  0  0  0  0  0  0
    8.2264   -8.6286    0.0000 H   0  0  0  0  0  0  0  0  0  0  0  0
    8.9409   -6.7416    0.0000 H   0  0  0  0  0  0  0  0  0  0  0  0
    8.2004   -6.7416    0.0000 H   0  0  0  0  0  0  0  0  0  0  0  0
    8.9149   -8.6286    0.0000 H   0  0  0  0  0  0  0  0  0  0  0  0
    9.6554   -8.6286    0.0000 H   0  0  0  0  0  0  0  0  0  0  0  0
   10.3698   -6.7416    0.0000 H   0  0  0  0  0  0  0  0  0  0  0  0
    9.6293   -6.7416    0.0000 H   0  0  0  0  0  0  0  0  0  0  0  0
   10.1307   -8.4747    0.0000 H   0  0  0  0  0  0  0  0  0  0  0  0
   10.7141   -7.0663    0.0000 H   0  0  0  0  0  0  0  0  0  0  0  0
   12.0605   -6.9485    0.0000 H   0  0  0  0  0  0  0  0  0  0  0  0
   11.5718   -6.6664    0.0000 H   0  0  0  0  0  0  0  0  0  0  0  0
   13.2925   -6.7778    0.0000 H   0  0  0  0  0  0  0  0  0  0  0  0
   14.2864   -7.4788    0.0000 H   0  0  0  0  0  0  0  0  0  0  0  0
   14.2864   -9.1288    0.0000 H   0  0  0  0  0  0  0  0  0  0  0  0
   12.8575   -9.9538    0.0000 H   0  0  0  0  0  0  0  0  0  0  0  0
    9.9996   -9.1288    0.0000 H   0  0  0  0  0  0  0  0  0  0  0  0
  1  2  1  0  0  0  0
  2  3  1  0  0  0  0
  3  4  1  0  0  0  0
  4  5  1  0  0  0  0
  5  6  1  0  0  0  0
  6  7  1  0  0  0  0
  7  8  1  0  0  0  0
  8  9  1  0  0  0  0
  9 10  1  0  0  0  0
 10 11  1  0  0  0  0
 11 12  1  0  0  0  0
 12 13  1  0  0  0  0
 13 14  4  0  0  0  0
 14 15  4  0  0  0  0
 15 16  4  0  0  0  0
 16 17  4  0  0  0  0
 17 18  4  0  0  0  0
 13 18  4  0  0  0  0
 18 19  1  0  0  0  0
 19 20  1  0  0  0  0
 19 21  2  0  0  0  0
 19 22  2  0  0  0  0
  1 23  1  0  0  0  0
  1 24  1  0  0  0  0
  1 25  1  0  0  0  0
  2 26  1  0  0  0  0
  2 27  1  0  0  0  0
  3 28  1  0  0  0  0
  3 29  1  0  0  0  0
  4 30  1  0  0  0  0
  4 31  1  0  0  0  0
  5 32  1  0  0  0  0
  5 33  1  0  0  0  0
  6 34  1  0  0  0  0
  6 35  1  0  0  0  0
  7 36  1  0  0  0  0
  7 37  1  0  0  0  0
  8 38  1  0  0  0  0
  8 39  1  0  0  0  0
  9 40  1  0  0  0  0
  9 41  1  0  0  0  0
 10 42  1  0  0  0  0
 10 43  1  0  0  0  0
 11 44  1  0  0  0  0
 11 45  1  0  0  0  0
 12 46  1  0  0  0  0
 12 47  1  0  0  0  0
 14 48  1  0  0  0  0
 15 49  1  0  0  0  0
 16 50  1  0  0  0  0
 17 51  1  0  0  0  0
 20 52  1  0  0  0  0
M  END
>  <InChIKey>
WBIQQQGBSDOWNP-UHFFFAOYSA-N

>  <UN GHS>
2A

>  <CASRN>
85536-14-7

> <Outcome>
1

>  <Index>
851

>  <StandardizerResult>
Dearomatize (ID: Dearomatize)
Clear Stereo (ID: ClearStereo)
Wedge Clean (ID: WedgeClean)
Mesomerize (ID: Mesomerize)
Tautomerize (ID: Tautomerize)
Aromatize (ID: Aromatize)
Add Explicit Hydrogens (ID: AddExplicitH)
Neutralize (ID: Neutralize)
Clean 2D (ID: Clean2D)

> <knn Distance>


> <CpId>
851

$$$$
855
  Mrv1532301301811342D          

 19 18  0  0  0  0            999 V2000
   -0.1756    0.6995    0.0000 C   0  0  0  0  0  0  0  0  0  0  0  0
    0.5389    1.1120    0.0000 C   0  0  0  0  0  0  0  0  0  0  0  0
    1.2534    0.6995    0.0000 C   0  0  0  0  0  0  0  0  0  0  0  0
    1.9679    1.1120    0.0000 C   0  0  0  0  0  0  0  0  0  0  0  0
    1.9679    1.9370    0.0000 O   0  0  0  0  0  0  0  0  0  0  0  0
    2.6823    0.6995    0.0000 C   0  0  0  0  0  0  0  0  0  0  0  0
    3.3968    1.1120    0.0000 O   0  0  0  0  0  0  0  0  0  0  0  0
   -0.5881    1.4140    0.0000 H   0  0  0  0  0  0  0  0  0  0  0  0
   -0.8900    0.2870    0.0000 H   0  0  0  0  0  0  0  0  0  0  0  0
    0.2369   -0.0149    0.0000 H   0  0  0  0  0  0  0  0  0  0  0  0
    0.9092    1.8493    0.0000 H   0  0  0  0  0  0  0  0  0  0  0  0
    0.1687    1.8493    0.0000 H   0  0  0  0  0  0  0  0  0  0  0  0
    0.8831   -0.0377    0.0000 H   0  0  0  0  0  0  0  0  0  0  0  0
    1.6237   -0.0377    0.0000 H   0  0  0  0  0  0  0  0  0  0  0  0
    1.2534    1.5245    0.0000 H   0  0  0  0  0  0  0  0  0  0  0  0
    2.3804    2.6515    0.0000 H   0  0  0  0  0  0  0  0  0  0  0  0
    2.3121   -0.0377    0.0000 H   0  0  0  0  0  0  0  0  0  0  0  0
    3.0526   -0.0377    0.0000 H   0  0  0  0  0  0  0  0  0  0  0  0
    4.1113    0.6995    0.0000 H   0  0  0  0  0  0  0  0  0  0  0  0
  1  2  1  0  0  0  0
  2  3  1  0  0  0  0
  3  4  1  0  0  0  0
  4  5  1  0  0  0  0
  4  6  1  0  0  0  0
  6  7  1  0  0  0  0
  1  8  1  0  0  0  0
  1  9  1  0  0  0  0
  1 10  1  0  0  0  0
  2 11  1  0  0  0  0
  2 12  1  0  0  0  0
  3 13  1  0  0  0  0
  3 14  1  0  0  0  0
  4 15  1  0  0  0  0
  5 16  1  0  0  0  0
  6 17  1  0  0  0  0
  6 18  1  0  0  0  0
  7 19  1  0  0  0  0
M  END
>  <InChIKey>
WCVRQHFDJLLWFE-UHFFFAOYSA-N

>  <UN GHS>
2A

>  <CASRN>
5343-92-0

> <Outcome>
1

>  <Index>
855

>  <StandardizerResult>
Clear Stereo (ID: ClearStereo)
Wedge Clean (ID: WedgeClean)
Mesomerize (ID: Mesomerize)
Tautomerize (ID: Tautomerize)
Add Explicit Hydrogens (ID: AddExplicitH)
Neutralize (ID: Neutralize)
Clean 2D (ID: Clean2D)

> <knn Distance>


> <CpId>
855

$$$$
856
  Mrv1532301301811342D          

 30 29  0  0  0  0            999 V2000
    2.9404    2.5065    0.0000 C   0  0  0  0  0  0  0  0  0  0  0  0
    3.6548    2.0940    0.0000 O   0  0  0  0  0  0  0  0  0  0  0  0
    4.3693    2.5065    0.0000 C   0  0  0  0  0  0  0  0  0  0  0  0
    4.3693    3.3315    0.0000 O   0  0  0  0  0  0  0  0  0  0  0  0
    5.0838    2.0940    0.0000 C   0  0  0  0  0  0  0  0  0  0  0  0
    5.0838    1.2690    0.0000 C   0  0  0  0  0  0  0  0  0  0  0  0
    5.7982    2.5065    0.0000 C   0  0  0  0  0  0  0  0  0  0  0  0
    6.5127    2.0940    0.0000 C   0  0  0  0  0  0  0  0  0  0  0  0
    7.2272    2.5065    0.0000 C   0  0  0  0  0  0  0  0  0  0  0  0
    7.2272    3.3315    0.0000 O   0  0  0  0  0  0  0  0  0  0  0  0
    7.9417    2.0940    0.0000 N   0  0  0  0  0  0  0  0  0  0  0  0
    8.6561    2.5065    0.0000 C   0  0  0  0  0  0  0  0  0  0  0  0
    7.9417    1.2690    0.0000 C   0  0  0  0  0  0  0  0  0  0  0  0
    3.3529    3.2210    0.0000 H   0  0  0  0  0  0  0  0  0  0  0  0
    2.2259    2.9190    0.0000 H   0  0  0  0  0  0  0  0  0  0  0  0
    2.5279    1.7921    0.0000 H   0  0  0  0  0  0  0  0  0  0  0  0
    4.3693    1.6815    0.0000 H   0  0  0  0  0  0  0  0  0  0  0  0
    4.5004    0.6857    0.0000 H   0  0  0  0  0  0  0  0  0  0  0  0
    5.4963    0.5546    0.0000 H   0  0  0  0  0  0  0  0  0  0  0  0
    5.8807    1.4826    0.0000 H   0  0  0  0  0  0  0  0  0  0  0  0
    6.1685    3.2438    0.0000 H   0  0  0  0  0  0  0  0  0  0  0  0
    5.4280    3.2438    0.0000 H   0  0  0  0  0  0  0  0  0  0  0  0
    7.0095    1.4354    0.0000 H   0  0  0  0  0  0  0  0  0  0  0  0
    6.5127    2.9190    0.0000 H   0  0  0  0  0  0  0  0  0  0  0  0
    9.0686    1.7921    0.0000 H   0  0  0  0  0  0  0  0  0  0  0  0
    9.3706    2.9190    0.0000 H   0  0  0  0  0  0  0  0  0  0  0  0
    8.2436    3.2210    0.0000 H   0  0  0  0  0  0  0  0  0  0  0  0
    7.5280    0.5552    0.0000 H   0  0  0  0  0  0  0  0  0  0  0  0
    8.4713    0.6365    0.0000 H   0  0  0  0  0  0  0  0  0  0  0  0
    8.7170    1.5508    0.0000 H   0  0  0  0  0  0  0  0  0  0  0  0
  1  2  1  0  0  0  0
  2  3  1  0  0  0  0
  3  4  2  0  0  0  0
  3  5  1  0  0  0  0
  5  6  1  0  0  0  0
  5  7  1  0  0  0  0
  7  8  1  0  0  0  0
  8  9  1  0  0  0  0
  9 10  2  0  0  0  0
  9 11  1  0  0  0  0
 11 12  1  0  0  0  0
 11 13  1  0  0  0  0
  1 14  1  0  0  0  0
  1 15  1  0  0  0  0
  1 16  1  0  0  0  0
  5 17  1  0  0  0  0
  6 18  1  0  0  0  0
  6 19  1  0  0  0  0
  6 20  1  0  0  0  0
  7 21  1  0  0  0  0
  7 22  1  0  0  0  0
  8 23  1  0  0  0  0
  8 24  1  0  0  0  0
 12 25  1  0  0  0  0
 12 26  1  0  0  0  0
 12 27  1  0  0  0  0
 13 28  1  0  0  0  0
 13 29  1  0  0  0  0
 13 30  1  0  0  0  0
M  END
>  <InChIKey>
WEFZXWJJPHGTTN-UHFFFAOYSA-N

>  <UN GHS>
2A

>  <CASRN>
1174627-68-9

> <Outcome>
1

>  <Index>
856

>  <StandardizerResult>
Clear Stereo (ID: ClearStereo)
Wedge Clean (ID: WedgeClean)
Mesomerize (ID: Mesomerize)
Tautomerize (ID: Tautomerize)
Add Explicit Hydrogens (ID: AddExplicitH)
Neutralize (ID: Neutralize)
Clean 2D (ID: Clean2D)

> <knn Distance>


> <CpId>
856

$$$$
857
  Mrv1532301301811342D          

  6  5  0  0  0  0            999 V2000
    2.2000    0.0000    0.0000 C   0  0  0  0  0  0  0  0  0  0  0  0
    1.3750    0.0000    0.0000 C   0  0  0  0  0  0  0  0  0  0  0  0
    0.5500    0.0000    0.0000 N   0  0  0  0  0  0  0  0  0  0  0  0
    2.2000   -0.8250    0.0000 H   0  0  0  0  0  0  0  0  0  0  0  0
    3.0250   -0.0000    0.0000 H   0  0  0  0  0  0  0  0  0  0  0  0
    2.2000    0.8250    0.0000 H   0  0  0  0  0  0  0  0  0  0  0  0
  1  2  1  0  0  0  0
  2  3  3  0  0  0  0
  1  4  1  0  0  0  0
  1  5  1  0  0  0  0
  1  6  1  0  0  0  0
M  END
>  <InChIKey>
WEVYAHXRMPXWCK-UHFFFAOYSA-N

>  <UN GHS>
2A

>  <CASRN>
75-05-8

> <Outcome>
1

>  <Index>
857

>  <StandardizerResult>
Mesomerize (ID: Mesomerize)
Tautomerize (ID: Tautomerize)
Add Explicit Hydrogens (ID: AddExplicitH)
Neutralize (ID: Neutralize)
Clean 2D (ID: Clean2D)

> <knn Distance>


> <CpId>
857

$$$$
858
  Mrv1532301301811342D          

 67 67  0  0  0  0            999 V2000
   -4.1353   -0.2824    0.0000 C   0  0  0  0  0  0  0  0  0  0  0  0
   -4.1353   -1.1074    0.0000 C   0  0  0  0  0  0  0  0  0  0  0  0
   -3.4209   -1.5199    0.0000 C   0  0  0  0  0  0  0  0  0  0  0  0
   -3.4209   -2.3449    0.0000 C   0  0  0  0  0  0  0  0  0  0  0  0
   -2.7064   -2.7574    0.0000 C   0  0  0  0  0  0  0  0  0  0  0  0
   -2.7064   -3.5824    0.0000 C   0  0  0  0  0  0  0  0  0  0  0  0
   -1.9919   -3.9949    0.0000 C   0  0  0  0  0  0  0  0  0  0  0  0
   -1.2774   -3.5824    0.0000 C   0  0  0  0  0  0  0  0  0  0  0  0
   -0.5630   -3.9949    0.0000 C   0  0  0  0  0  0  0  0  0  0  0  0
   -0.5630   -4.8199    0.0000 C   0  0  0  0  0  0  0  0  0  0  0  0
    0.1515   -5.2324    0.0000 C   0  0  0  0  0  0  0  0  0  0  0  0
    0.8660   -4.8199    0.0000 C   0  0  0  0  0  0  0  0  0  0  0  0
    1.5804   -5.2324    0.0000 C   0  0  0  0  0  0  0  0  0  0  0  0
    2.2949   -4.8199    0.0000 C   0  0  0  0  0  0  0  0  0  0  0  0
    3.0094   -5.2324    0.0000 C   0  0  0  0  0  0  0  0  0  0  0  0
    3.7239   -4.8199    0.0000 C   0  0  0  0  0  0  0  0  0  0  0  0
    4.4383   -5.2324    0.0000 C   0  0  0  0  0  0  0  0  0  0  0  0
    5.1528   -4.8199    0.0000 C   0  0  0  0  0  0  0  0  0  0  0  0
    5.2390   -3.9994    0.0000 N   0  0  0  0  0  0  0  0  0  0  0  0
    6.0460   -3.8279    0.0000 C   0  0  0  0  0  0  0  0  0  0  0  0
    6.4585   -4.5423    0.0000 C   0  0  0  0  0  0  0  0  0  0  0  0
    5.9065   -5.1554    0.0000 N   0  0  0  0  0  0  0  0  0  0  0  0
    6.0780   -5.9624    0.0000 C   0  0  0  0  0  0  0  0  0  0  0  0
    6.8626   -6.2174    0.0000 C   0  0  0  0  0  0  0  0  0  0  0  0
    7.4757   -5.6653    0.0000 O   0  0  0  0  0  0  0  0  0  0  0  0
   -3.3103   -0.2824    0.0000 H   0  0  0  0  0  0  0  0  0  0  0  0
   -4.1353    0.5426    0.0000 H   0  0  0  0  0  0  0  0  0  0  0  0
   -4.9603   -0.2824    0.0000 H   0  0  0  0  0  0  0  0  0  0  0  0
   -4.9589   -1.1554    0.0000 H   0  0  0  0  0  0  0  0  0  0  0  0
   -4.5887   -1.7967    0.0000 H   0  0  0  0  0  0  0  0  0  0  0  0
   -2.5972   -1.4719    0.0000 H   0  0  0  0  0  0  0  0  0  0  0  0
   -2.9675   -0.8306    0.0000 H   0  0  0  0  0  0  0  0  0  0  0  0
   -4.2445   -2.3929    0.0000 H   0  0  0  0  0  0  0  0  0  0  0  0
   -3.8742   -3.0342    0.0000 H   0  0  0  0  0  0  0  0  0  0  0  0
   -1.8828   -2.7094    0.0000 H   0  0  0  0  0  0  0  0  0  0  0  0
   -2.2530   -2.0681    0.0000 H   0  0  0  0  0  0  0  0  0  0  0  0
   -3.5300   -3.6304    0.0000 H   0  0  0  0  0  0  0  0  0  0  0  0
   -3.1597   -4.2717    0.0000 H   0  0  0  0  0  0  0  0  0  0  0  0
   -2.3622   -4.7321    0.0000 H   0  0  0  0  0  0  0  0  0  0  0  0
   -1.6217   -4.7321    0.0000 H   0  0  0  0  0  0  0  0  0  0  0  0
   -0.9072   -2.8451    0.0000 H   0  0  0  0  0  0  0  0  0  0  0  0
   -1.6477   -2.8451    0.0000 H   0  0  0  0  0  0  0  0  0  0  0  0
    0.1515   -3.5824    0.0000 H   0  0  0  0  0  0  0  0  0  0  0  0
   -1.2774   -5.2324    0.0000 H   0  0  0  0  0  0  0  0  0  0  0  0
   -0.2188   -5.9696    0.0000 H   0  0  0  0  0  0  0  0  0  0  0  0
    0.5218   -5.9696    0.0000 H   0  0  0  0  0  0  0  0  0  0  0  0
    1.2362   -4.0826    0.0000 H   0  0  0  0  0  0  0  0  0  0  0  0
    0.4957   -4.0826    0.0000 H   0  0  0  0  0  0  0  0  0  0  0  0
    1.2102   -5.9696    0.0000 H   0  0  0  0  0  0  0  0  0  0  0  0
    1.9507   -5.9696    0.0000 H   0  0  0  0  0  0  0  0  0  0  0  0
    2.6652   -4.0826    0.0000 H   0  0  0  0  0  0  0  0  0  0  0  0
    1.9247   -4.0826    0.0000 H   0  0  0  0  0  0  0  0  0  0  0  0
    2.6391   -5.9696    0.0000 H   0  0  0  0  0  0  0  0  0  0  0  0
    3.3796   -5.9696    0.0000 H   0  0  0  0  0  0  0  0  0  0  0  0
    4.0941   -4.0826    0.0000 H   0  0  0  0  0  0  0  0  0  0  0  0
    3.3536   -4.0826    0.0000 H   0  0  0  0  0  0  0  0  0  0  0  0
    4.0681   -5.9696    0.0000 H   0  0  0  0  0  0  0  0  0  0  0  0
    4.8086   -5.9696    0.0000 H   0  0  0  0  0  0  0  0  0  0  0  0
    6.6961   -3.3200    0.0000 H   0  0  0  0  0  0  0  0  0  0  0  0
    5.9885   -3.0049    0.0000 H   0  0  0  0  0  0  0  0  0  0  0  0
    7.1425   -5.0037    0.0000 H   0  0  0  0  0  0  0  0  0  0  0  0
    7.2234   -4.2333    0.0000 H   0  0  0  0  0  0  0  0  0  0  0  0
    5.2824   -6.1806    0.0000 H   0  0  0  0  0  0  0  0  0  0  0  0
    5.7779   -6.7309    0.0000 H   0  0  0  0  0  0  0  0  0  0  0  0
    6.6537   -7.0155    0.0000 H   0  0  0  0  0  0  0  0  0  0  0  0
    7.3781   -6.8615    0.0000 H   0  0  0  0  0  0  0  0  0  0  0  0
    8.2866   -5.8176    0.0000 H   0  0  0  0  0  0  0  0  0  0  0  0
  1  2  1  0  0  0  0
  2  3  1  0  0  0  0
  3  4  1  0  0  0  0
  4  5  1  0  0  0  0
  5  6  1  0  0  0  0
  6  7  1  0  0  0  0
  7  8  1  0  0  0  0
  9  8  1  4  0  0  0
  9 10  2  0  0  0  0
 10 11  1  0  0  0  0
 11 12  1  0  0  0  0
 12 13  1  0  0  0  0
 13 14  1  0  0  0  0
 14 15  1  0  0  0  0
 15 16  1  0  0  0  0
 16 17  1  0  0  0  0
 17 18  1  0  0  0  0
 18 19  2  0  0  0  0
 19 20  1  0  0  0  0
 20 21  1  0  0  0  0
 21 22  1  0  0  0  0
 18 22  1  0  0  0  0
 22 23  1  0  0  0  0
 23 24  1  0  0  0  0
 24 25  1  0  0  0  0
  1 26  1  0  0  0  0
  1 27  1  0  0  0  0
  1 28  1  0  0  0  0
  2 29  1  0  0  0  0
  2 30  1  0  0  0  0
  3 31  1  0  0  0  0
  3 32  1  0  0  0  0
  4 33  1  0  0  0  0
  4 34  1  0  0  0  0
  5 35  1  0  0  0  0
  5 36  1  0  0  0  0
  6 37  1  0  0  0  0
  6 38  1  0  0  0  0
  7 39  1  0  0  0  0
  7 40  1  0  0  0  0
  8 41  1  0  0  0  0
  8 42  1  0  0  0  0
  9 43  1  0  0  0  0
 10 44  1  0  0  0  0
 11 45  1  0  0  0  0
 11 46  1  0  0  0  0
 12 47  1  0  0  0  0
 12 48  1  0  0  0  0
 13 49  1  0  0  0  0
 13 50  1  0  0  0  0
 14 51  1  0  0  0  0
 14 52  1  0  0  0  0
 15 53  1  0  0  0  0
 15 54  1  0  0  0  0
 16 55  1  0  0  0  0
 16 56  1  0  0  0  0
 17 57  1  0  0  0  0
 17 58  1  0  0  0  0
 20 59  1  0  0  0  0
 20 60  1  0  0  0  0
 21 61  1  0  0  0  0
 21 62  1  0  0  0  0
 23 63  1  0  0  0  0
 23 64  1  0  0  0  0
 24 65  1  0  0  0  0
 24 66  1  0  0  0  0
 25 67  1  0  0  0  0
M  END
>  <InChIKey>
WGTDLPBPQKAPMN-KTKRTIGZSA-N

>  <UN GHS>
1

>  <CASRN>
95-38-5

> <Outcome>
1

>  <Index>
858

>  <StandardizerResult>
Clear Stereo (ID: ClearStereo)
Wedge Clean (ID: WedgeClean)
Mesomerize (ID: Mesomerize)
Tautomerize (ID: Tautomerize)
Add Explicit Hydrogens (ID: AddExplicitH)
Neutralize (ID: Neutralize)
Clean 2D (ID: Clean2D)

> <knn Distance>


> <CpId>
858

$$$$
859
  Mrv1532301301811342D          

147154  0  0  0  0            999 V2000
    6.9260   -2.7794    0.0000 O   0  0  0  0  0  0  0  0  0  0  0  0
    6.2070   -2.3748    0.0000 C   0  0  0  0  0  0  0  0  0  0  0  0
    6.1979   -1.5498    0.0000 C   0  0  0  0  0  0  0  0  0  0  0  0
    6.9104   -1.1404    0.0000 O   0  0  0  0  0  0  0  0  0  0  0  0
    6.9345   -0.2960    0.0000 C   0  0  0  0  0  0  0  0  0  0  0  0
    7.7908   -0.1704    0.0000 O   0  0  0  0  0  0  0  0  0  0  0  0
    8.6151   -0.4071    0.0000 C   0  0  0  0  0  0  0  0  0  0  0  0
    8.7609   -1.2381    0.0000 C   0  0  0  0  0  0  0  0  0  0  0  0
    8.1216   -1.7595    0.0000 C   0  0  0  0  0  0  0  0  0  0  0  0
    8.2535   -2.5739    0.0000 O   0  0  0  0  0  0  0  0  0  0  0  0
    9.5252   -1.5399    0.0000 O   0  0  0  0  0  0  0  0  0  0  0  0
   10.2003   -1.0322    0.0000 C   0  0  0  0  0  0  0  0  0  0  0  0
   10.8325   -1.6234    0.0000 O   0  0  0  0  0  0  0  0  0  0  0  0
   11.1613   -2.4155    0.0000 C   0  0  0  0  0  0  0  0  0  0  0  0
   10.6025   -3.0475    0.0000 C   0  0  0  0  0  0  0  0  0  0  0  0
    9.7963   -2.8728    0.0000 C   0  0  0  0  0  0  0  0  0  0  0  0
    9.2418   -3.4837    0.0000 O   0  0  0  0  0  0  0  0  0  0  0  0
   10.8432   -3.8333    0.0000 O   0  0  0  0  0  0  0  0  0  0  0  0
   11.6610   -4.0446    0.0000 C   0  0  0  0  0  0  0  0  0  0  0  0
   11.5929   -4.9074    0.0000 O   0  0  0  0  0  0  0  0  0  0  0  0
   11.1787   -5.6584    0.0000 C   0  0  0  0  0  0  0  0  0  0  0  0
   11.5292   -6.4303    0.0000 C   0  0  0  0  0  0  0  0  0  0  0  0
   12.3514   -6.4983    0.0000 C   0  0  0  0  0  0  0  0  0  0  0  0
   12.8214   -5.8203    0.0000 O   0  0  0  0  0  0  0  0  0  0  0  0
   11.0628   -7.1248    0.0000 O   0  0  0  0  0  0  0  0  0  0  0  0
   10.2165   -7.0648    0.0000 C   0  0  0  0  0  0  0  0  0  0  0  0
    9.4995   -7.5495    0.0000 O   0  0  0  0  0  0  0  0  0  0  0  0
    8.6541   -7.6939    0.0000 C   0  0  0  0  0  0  0  0  0  0  0  0
    8.2691   -8.4491    0.0000 C   0  0  0  0  0  0  0  0  0  0  0  0
    8.7286   -9.1344    0.0000 C   0  0  0  0  0  0  0  0  0  0  0  0
    8.3649   -9.8749    0.0000 O   0  0  0  0  0  0  0  0  0  0  0  0
    7.4354   -8.5176    0.0000 O   0  0  0  0  0  0  0  0  0  0  0  0
    6.9546   -7.8185    0.0000 C   0  0  0  0  0  0  0  0  0  0  0  0
    6.1286   -7.5601    0.0000 O   0  0  0  0  0  0  0  0  0  0  0  0
    5.4887   -6.9892    0.0000 C   0  0  0  0  0  0  0  0  0  0  0  0
    4.6581   -7.1591    0.0000 C   0  0  0  0  0  0  0  0  0  0  0  0
    4.4089   -7.9456    0.0000 C   0  0  0  0  0  0  0  0  0  0  0  0
    3.6031   -8.1229    0.0000 O   0  0  0  0  0  0  0  0  0  0  0  0
    4.0848   -6.5499    0.0000 O   0  0  0  0  0  0  0  0  0  0  0  0
    4.3316   -5.7382    0.0000 C   0  0  0  0  0  0  0  0  0  0  0  0
    4.0186   -4.9313    0.0000 O   0  0  0  0  0  0  0  0  0  0  0  0
    4.0660   -4.0750    0.0000 C   0  0  0  0  0  0  0  0  0  0  0  0
    3.4153   -3.5316    0.0000 C   0  0  0  0  0  0  0  0  0  0  0  0
    2.6450   -3.8270    0.0000 C   0  0  0  0  0  0  0  0  0  0  0  0
    2.0040   -3.3077    0.0000 O   0  0  0  0  0  0  0  0  0  0  0  0
    3.5341   -2.7035    0.0000 O   0  0  0  0  0  0  0  0  0  0  0  0
    4.3227   -2.3904    0.0000 C   0  0  0  0  0  0  0  0  0  0  0  0
    4.7584   -1.6425    0.0000 O   0  0  0  0  0  0  0  0  0  0  0  0
    5.4573   -1.1457    0.0000 C   0  0  0  0  0  0  0  0  0  0  0  0
    5.4765   -0.2982    0.0000 C   0  0  0  0  0  0  0  0  0  0  0  0
    4.7653    0.1198    0.0000 O   0  0  0  0  0  0  0  0  0  0  0  0
    6.1980    0.1253    0.0000 C   0  0  0  0  0  0  0  0  0  0  0  0
    6.1934    0.9502    0.0000 O   0  0  0  0  0  0  0  0  0  0  0  0
    4.9678   -2.9356    0.0000 C   0  0  0  0  0  0  0  0  0  0  0  0
    5.7403   -2.6460    0.0000 O   0  0  0  0  0  0  0  0  0  0  0  0
    4.8437   -3.7480    0.0000 C   0  0  0  0  0  0  0  0  0  0  0  0
    5.4943   -4.2552    0.0000 O   0  0  0  0  0  0  0  0  0  0  0  0
    5.1601   -5.5738    0.0000 C   0  0  0  0  0  0  0  0  0  0  0  0
    5.4153   -4.7892    0.0000 O   0  0  0  0  0  0  0  0  0  0  0  0
    5.7179   -6.1773    0.0000 C   0  0  0  0  0  0  0  0  0  0  0  0
    6.5201   -5.9849    0.0000 O   0  0  0  0  0  0  0  0  0  0  0  0
    7.3427   -7.0682    0.0000 C   0  0  0  0  0  0  0  0  0  0  0  0
    6.8884   -6.3796    0.0000 O   0  0  0  0  0  0  0  0  0  0  0  0
    8.1623   -7.0085    0.0000 C   0  0  0  0  0  0  0  0  0  0  0  0
    8.5120   -6.2613    0.0000 O   0  0  0  0  0  0  0  0  0  0  0  0
    9.8718   -6.2936    0.0000 C   0  0  0  0  0  0  0  0  0  0  0  0
    9.0502   -6.2194    0.0000 O   0  0  0  0  0  0  0  0  0  0  0  0
   10.3361   -5.6156    0.0000 C   0  0  0  0  0  0  0  0  0  0  0  0
    9.9700   -4.8763    0.0000 O   0  0  0  0  0  0  0  0  0  0  0  0
   12.2356   -3.4204    0.0000 C   0  0  0  0  0  0  0  0  0  0  0  0
   13.0409   -3.5995    0.0000 O   0  0  0  0  0  0  0  0  0  0  0  0
   11.9833   -2.6227    0.0000 C   0  0  0  0  0  0  0  0  0  0  0  0
   12.5491   -2.0223    0.0000 O   0  0  0  0  0  0  0  0  0  0  0  0
   10.0706   -0.1938    0.0000 C   0  0  0  0  0  0  0  0  0  0  0  0
   10.7127    0.3242    0.0000 O   0  0  0  0  0  0  0  0  0  0  0  0
    9.2896    0.1063    0.0000 C   0  0  0  0  0  0  0  0  0  0  0  0
    9.1730    0.9230    0.0000 O   0  0  0  0  0  0  0  0  0  0  0  0
    6.9351   -3.6043    0.0000 H   0  0  0  0  0  0  0  0  0  0  0  0
    6.2127   -3.1997    0.0000 H   0  0  0  0  0  0  0  0  0  0  0  0
    6.9169   -1.9544    0.0000 H   0  0  0  0  0  0  0  0  0  0  0  0
    5.4908   -1.9748    0.0000 H   0  0  0  0  0  0  0  0  0  0  0  0
    7.0878    0.5146    0.0000 H   0  0  0  0  0  0  0  0  0  0  0  0
    8.4629    0.4037    0.0000 H   0  0  0  0  0  0  0  0  0  0  0  0
    7.9877   -0.9502    0.0000 H   0  0  0  0  0  0  0  0  0  0  0  0
    7.3497   -1.4683    0.0000 H   0  0  0  0  0  0  0  0  0  0  0  0
    7.4828   -2.2817    0.0000 H   0  0  0  0  0  0  0  0  0  0  0  0
    8.7751   -3.2131    0.0000 H   0  0  0  0  0  0  0  0  0  0  0  0
   10.9297   -0.6467    0.0000 H   0  0  0  0  0  0  0  0  0  0  0  0
   11.7004   -1.7910    0.0000 H   0  0  0  0  0  0  0  0  0  0  0  0
   10.3456   -2.2636    0.0000 H   0  0  0  0  0  0  0  0  0  0  0  0
    9.5427   -2.0878    0.0000 H   0  0  0  0  0  0  0  0  0  0  0  0
    8.9898   -2.6990    0.0000 H   0  0  0  0  0  0  0  0  0  0  0  0
    9.3685   -4.2990    0.0000 H   0  0  0  0  0  0  0  0  0  0  0  0
   12.4172   -4.3745    0.0000 H   0  0  0  0  0  0  0  0  0  0  0  0
   10.7774   -4.9376    0.0000 H   0  0  0  0  0  0  0  0  0  0  0  0
   12.0042   -5.7558    0.0000 H   0  0  0  0  0  0  0  0  0  0  0  0
   12.3313   -7.3230    0.0000 H   0  0  0  0  0  0  0  0  0  0  0  0
   13.0009   -7.0069    0.0000 H   0  0  0  0  0  0  0  0  0  0  0  0
   13.5667   -5.4667    0.0000 H   0  0  0  0  0  0  0  0  0  0  0  0
   10.4300   -7.8617    0.0000 H   0  0  0  0  0  0  0  0  0  0  0  0
    8.9675   -6.9307    0.0000 H   0  0  0  0  0  0  0  0  0  0  0  0
    9.0927   -8.4000    0.0000 H   0  0  0  0  0  0  0  0  0  0  0  0
    9.1872   -9.8202    0.0000 H   0  0  0  0  0  0  0  0  0  0  0  0
    9.5519   -9.0811    0.0000 H   0  0  0  0  0  0  0  0  0  0  0  0
    7.6795  -10.3341    0.0000 H   0  0  0  0  0  0  0  0  0  0  0  0
    6.4647   -8.4823    0.0000 H   0  0  0  0  0  0  0  0  0  0  0  0
    6.2807   -6.7584    0.0000 H   0  0  0  0  0  0  0  0  0  0  0  0
    5.2100   -7.7723    0.0000 H   0  0  0  0  0  0  0  0  0  0  0  0
    4.1586   -8.7317    0.0000 H   0  0  0  0  0  0  0  0  0  0  0  0
    4.9638   -8.5560    0.0000 H   0  0  0  0  0  0  0  0  0  0  0  0
    2.8168   -7.8734    0.0000 H   0  0  0  0  0  0  0  0  0  0  0  0
    3.5072   -5.7690    0.0000 H   0  0  0  0  0  0  0  0  0  0  0  0
    4.7403   -4.5503    0.0000 H   0  0  0  0  0  0  0  0  0  0  0  0
    3.2800   -4.3454    0.0000 H   0  0  0  0  0  0  0  0  0  0  0  0
    1.8744   -4.1215    0.0000 H   0  0  0  0  0  0  0  0  0  0  0  0
    2.5137   -4.6415    0.0000 H   0  0  0  0  0  0  0  0  0  0  0  0
    1.7088   -2.5373    0.0000 H   0  0  0  0  0  0  0  0  0  0  0  0
    3.7845   -1.7651    0.0000 H   0  0  0  0  0  0  0  0  0  0  0  0
    4.7285   -0.7591    0.0000 H   0  0  0  0  0  0  0  0  0  0  0  0
    6.1878   -0.7162    0.0000 H   0  0  0  0  0  0  0  0  0  0  0  0
    4.3706    0.8443    0.0000 H   0  0  0  0  0  0  0  0  0  0  0  0
    5.4810    0.5332    0.0000 H   0  0  0  0  0  0  0  0  0  0  0  0
    6.6018    1.6671    0.0000 H   0  0  0  0  0  0  0  0  0  0  0  0
    5.6083   -3.4555    0.0000 H   0  0  0  0  0  0  0  0  0  0  0  0
    6.0187   -1.8694    0.0000 H   0  0  0  0  0  0  0  0  0  0  0  0
    4.1930   -3.2407    0.0000 H   0  0  0  0  0  0  0  0  0  0  0  0
    6.3107   -4.3738    0.0000 H   0  0  0  0  0  0  0  0  0  0  0  0
    5.9660   -5.3971    0.0000 H   0  0  0  0  0  0  0  0  0  0  0  0
    6.2048   -4.5497    0.0000 H   0  0  0  0  0  0  0  0  0  0  0  0
    4.9156   -6.3697    0.0000 H   0  0  0  0  0  0  0  0  0  0  0  0
    7.1219   -5.4205    0.0000 H   0  0  0  0  0  0  0  0  0  0  0  0
    7.7070   -6.3280    0.0000 H   0  0  0  0  0  0  0  0  0  0  0  0
    7.1933   -5.6130    0.0000 H   0  0  0  0  0  0  0  0  0  0  0  0
    7.8125   -7.7557    0.0000 H   0  0  0  0  0  0  0  0  0  0  0  0
    8.4459   -5.4389    0.0000 H   0  0  0  0  0  0  0  0  0  0  0  0
    9.5203   -5.5473    0.0000 H   0  0  0  0  0  0  0  0  0  0  0  0
    8.6410   -5.5031    0.0000 H   0  0  0  0  0  0  0  0  0  0  0  0
   10.7023   -6.3549    0.0000 H   0  0  0  0  0  0  0  0  0  0  0  0
   10.3066   -4.1231    0.0000 H   0  0  0  0  0  0  0  0  0  0  0  0
   12.7929   -2.8121    0.0000 H   0  0  0  0  0  0  0  0  0  0  0  0
   13.6489   -4.1571    0.0000 H   0  0  0  0  0  0  0  0  0  0  0  0
   11.4175   -3.2231    0.0000 H   0  0  0  0  0  0  0  0  0  0  0  0
   13.1227   -1.4294    0.0000 H   0  0  0  0  0  0  0  0  0  0  0  0
    9.9424    0.6212    0.0000 H   0  0  0  0  0  0  0  0  0  0  0  0
   11.5278    0.4518    0.0000 H   0  0  0  0  0  0  0  0  0  0  0  0
    9.4063   -0.7104    0.0000 H   0  0  0  0  0  0  0  0  0  0  0  0
    9.0670    1.7412    0.0000 H   0  0  0  0  0  0  0  0  0  0  0  0
  1  2  1  0  0  0  0
  2  3  1  0  0  0  0
  3  4  1  0  0  0  0
  4  5  1  0  0  0  0
  5  6  1  0  0  0  0
  6  7  1  0  0  0  0
  7  8  1  0  0  0  0
  8  9  1  0  0  0  0
  9 10  1  0  0  0  0
  8 11  1  0  0  0  0
 11 12  1  0  0  0  0
 12 13  1  0  0  0  0
 13 14  1  0  0  0  0
 14 15  1  0  0  0  0
 15 16  1  0  0  0  0
 16 17  1  0  0  0  0
 15 18  1  0  0  0  0
 18 19  1  0  0  0  0
 19 20  1  0  0  0  0
 20 21  1  0  0  0  0
 21 22  1  0  0  0  0
 22 23  1  0  0  0  0
 23 24  1  0  0  0  0
 22 25  1  0  0  0  0
 25 26  1  0  0  0  0
 26 27  1  0  0  0  0
 27 28  1  0  0  0  0
 28 29  1  0  0  0  0
 29 30  1  0  0  0  0
 30 31  1  0  0  0  0
 29 32  1  0  0  0  0
 32 33  1  0  0  0  0
 33 34  1  0  0  0  0
 34 35  1  0  0  0  0
 35 36  1  0  0  0  0
 36 37  1  0  0  0  0
 37 38  1  0  0  0  0
 36 39  1  0  0  0  0
 39 40  1  0  0  0  0
 40 41  1  0  0  0  0
 41 42  1  0  0  0  0
 42 43  1  0  0  0  0
 43 44  1  0  0  0  0
 44 45  1  0  0  0  0
 43 46  1  0  0  0  0
 46 47  1  0  0  0  0
 47 48  1  0  0  0  0
 48 49  1  0  0  0  0
  3 49  1  0  0  0  0
 49 50  1  0  0  0  0
 50 51  1  0  0  0  0
 50 52  1  0  0  0  0
  5 52  1  0  0  0  0
 52 53  1  0  0  0  0
 47 54  1  0  0  0  0
 54 55  1  0  0  0  0
 54 56  1  0  0  0  0
 42 56  1  0  0  0  0
 56 57  1  0  0  0  0
 40 58  1  0  0  0  0
 58 59  1  0  0  0  0
 58 60  1  0  0  0  0
 35 60  1  0  0  0  0
 60 61  1  0  0  0  0
 33 62  1  0  0  0  0
 62 63  1  0  0  0  0
 62 64  1  0  0  0  0
 28 64  1  0  0  0  0
 64 65  1  0  0  0  0
 26 66  1  0  0  0  0
 66 67  1  0  0  0  0
 66 68  1  0  0  0  0
 21 68  1  0  0  0  0
 68 69  1  0  0  0  0
 19 70  1  0  0  0  0
 70 71  1  0  0  0  0
 70 72  1  0  0  0  0
 14 72  1  0  0  0  0
 72 73  1  0  0  0  0
 12 74  1  0  0  0  0
 74 75  1  0  0  0  0
 74 76  1  0  0  0  0
  7 76  1  0  0  0  0
 76 77  1  0  0  0  0
  1 78  1  0  0  0  0
  2 79  1  0  0  0  0
  2 80  1  0  0  0  0
  3 81  1  0  0  0  0
  5 82  1  0  0  0  0
  7 83  1  0  0  0  0
  8 84  1  0  0  0  0
  9 85  1  0  0  0  0
  9 86  1  0  0  0  0
 10 87  1  0  0  0  0
 12 88  1  0  0  0  0
 14 89  1  0  0  0  0
 15 90  1  0  0  0  0
 16 91  1  0  0  0  0
 16 92  1  0  0  0  0
 17 93  1  0  0  0  0
 19 94  1  0  0  0  0
 21 95  1  0  0  0  0
 22 96  1  0  0  0  0
 23 97  1  0  0  0  0
 23 98  1  0  0  0  0
 24 99  1  0  0  0  0
 26100  1  0  0  0  0
 28101  1  0  0  0  0
 29102  1  0  0  0  0
 30103  1  0  0  0  0
 30104  1  0  0  0  0
 31105  1  0  0  0  0
 33106  1  0  0  0  0
 35107  1  0  0  0  0
 36108  1  0  0  0  0
 37109  1  0  0  0  0
 37110  1  0  0  0  0
 38111  1  0  0  0  0
 40112  1  0  0  0  0
 42113  1  0  0  0  0
 43114  1  0  0  0  0
 44115  1  0  0  0  0
 44116  1  0  0  0  0
 45117  1  0  0  0  0
 47118  1  0  0  0  0
 49119  1  0  0  0  0
 50120  1  0  0  0  0
 51121  1  0  0  0  0
 52122  1  0  0  0  0
 53123  1  0  0  0  0
 54124  1  0  0  0  0
 55125  1  0  0  0  0
 56126  1  0  0  0  0
 57127  1  0  0  0  0
 58128  1  0  0  0  0
 59129  1  0  0  0  0
 60130  1  0  0  0  0
 61131  1  0  0  0  0
 62132  1  0  0  0  0
 63133  1  0  0  0  0
 64134  1  0  0  0  0
 65135  1  0  0  0  0
 66136  1  0  0  0  0
 67137  1  0  0  0  0
 68138  1  0  0  0  0
 69139  1  0  0  0  0
 70140  1  0  0  0  0
 71141  1  0  0  0  0
 72142  1  0  0  0  0
 73143  1  0  0  0  0
 74144  1  0  0  0  0
 75145  1  0  0  0  0
 76146  1  0  0  0  0
 77147  1  0  0  0  0
M  END
>  <InChIKey>
WHGYBXFWUBPSRW-UHFFFAOYSA-N

>  <UN GHS>
2B

>  <CASRN>
7585-39-9

> <Outcome>
1

>  <Index>
859

>  <StandardizerResult>
Clear Stereo (ID: ClearStereo)
Wedge Clean (ID: WedgeClean)
Mesomerize (ID: Mesomerize)
Tautomerize (ID: Tautomerize)
Add Explicit Hydrogens (ID: AddExplicitH)
Neutralize (ID: Neutralize)
Clean 2D (ID: Clean2D)

> <knn Distance>


> <CpId>
859

$$$$
860
  Mrv1532301301811342D          

 15 14  0  0  0  0            999 V2000
    2.5085   -1.4493    0.0000 C   0  0  0  0  0  0  0  0  0  0  0  0
    2.0960   -0.7348    0.0000 C   0  0  0  0  0  0  0  0  0  0  0  0
    1.2710   -0.7348    0.0000 C   0  0  0  0  0  0  0  0  0  0  0  0
    0.8585   -1.4493    0.0000 C   0  0  0  0  0  0  0  0  0  0  0  0
    0.8585   -0.0203    0.0000 N   0  0  0  0  0  0  0  0  0  0  0  0
    0.0335   -0.0203    0.0000 O   0  0  0  0  0  0  0  0  0  0  0  0
    1.7940   -1.8618    0.0000 H   0  0  0  0  0  0  0  0  0  0  0  0
    2.9210   -2.1638    0.0000 H   0  0  0  0  0  0  0  0  0  0  0  0
    3.2230   -1.0368    0.0000 H   0  0  0  0  0  0  0  0  0  0  0  0
    2.7853   -0.2815    0.0000 H   0  0  0  0  0  0  0  0  0  0  0  0
    2.1439    0.0888    0.0000 H   0  0  0  0  0  0  0  0  0  0  0  0
    1.6835   -1.4493    0.0000 H   0  0  0  0  0  0  0  0  0  0  0  0
    0.2751   -0.8659    0.0000 H   0  0  0  0  0  0  0  0  0  0  0  0
    0.1440   -1.8618    0.0000 H   0  0  0  0  0  0  0  0  0  0  0  0
    1.0720   -2.2462    0.0000 H   0  0  0  0  0  0  0  0  0  0  0  0
  1  2  1  0  0  0  0
  2  3  1  0  0  0  0
  3  4  1  0  0  0  0
  3  5  1  0  0  0  0
  5  6  2  0  0  0  0
  1  7  1  0  0  0  0
  1  8  1  0  0  0  0
  1  9  1  0  0  0  0
  2 10  1  0  0  0  0
  2 11  1  0  0  0  0
  3 12  1  0  0  0  0
  4 13  1  0  0  0  0
  4 14  1  0  0  0  0
  4 15  1  0  0  0  0
M  END
>  <InChIKey>
WHIVNJATOVLWBW-SNAWJCMRSA-N

>  <UN GHS>
1

>  <CASRN>
96-29-7

> <Outcome>
1

>  <Index>
860

>  <StandardizerResult>
Clear Stereo (ID: ClearStereo)
Wedge Clean (ID: WedgeClean)
Mesomerize (ID: Mesomerize)
Tautomerize (ID: Tautomerize)
Add Explicit Hydrogens (ID: AddExplicitH)
Neutralize (ID: Neutralize)
Clean 2D (ID: Clean2D)

> <knn Distance>


> <CpId>
860

$$$$
876
  Mrv1532301301811342D          

 15 15  0  0  0  0            999 V2000
   -0.0000    2.4750    0.0000 O   0  0  0  0  0  0  0  0  0  0  0  0
    0.7145    2.0625    0.0000 C   0  0  0  0  0  0  0  0  0  0  0  0
    1.4289    2.4750    0.0000 O   0  0  0  0  0  0  0  0  0  0  0  0
    0.7145    1.2375    0.0000 C   0  0  0  0  0  0  0  0  0  0  0  0
    1.4289    0.8250    0.0000 C   0  0  0  0  0  0  0  0  0  0  0  0
    1.4289    0.0000    0.0000 C   0  0  0  0  0  0  0  0  0  0  0  0
    0.7145   -0.4125    0.0000 C   0  0  0  0  0  0  0  0  0  0  0  0
   -0.0000    0.0000    0.0000 C   0  0  0  0  0  0  0  0  0  0  0  0
   -0.0000    0.8250    0.0000 C   0  0  0  0  0  0  0  0  0  0  0  0
   -0.0000    3.3000    0.0000 H   0  0  0  0  0  0  0  0  0  0  0  0
    2.1434    1.2375    0.0000 H   0  0  0  0  0  0  0  0  0  0  0  0
    2.1434   -0.4125    0.0000 H   0  0  0  0  0  0  0  0  0  0  0  0
    0.7145   -1.2375    0.0000 H   0  0  0  0  0  0  0  0  0  0  0  0
   -0.7145   -0.4125    0.0000 H   0  0  0  0  0  0  0  0  0  0  0  0
   -0.7145    1.2375    0.0000 H   0  0  0  0  0  0  0  0  0  0  0  0
  1  2  1  0  0  0  0
  2  3  2  0  0  0  0
  2  4  1  0  0  0  0
  4  5  4  0  0  0  0
  5  6  4  0  0  0  0
  6  7  4  0  0  0  0
  7  8  4  0  0  0  0
  8  9  4  0  0  0  0
  4  9  4  0  0  0  0
  1 10  1  0  0  0  0
  5 11  1  0  0  0  0
  6 12  1  0  0  0  0
  7 13  1  0  0  0  0
  8 14  1  0  0  0  0
  9 15  1  0  0  0  0
M  END
>  <InChIKey>
WPYMKLBDIGXBTP-UHFFFAOYSA-M

>  <UN GHS>
2B

>  <CASRN>
532-32-1

> <Outcome>
1

>  <Index>
876

>  <StandardizerResult>
Dearomatize (ID: Dearomatize)
Clear Stereo (ID: ClearStereo)
Wedge Clean (ID: WedgeClean)
Mesomerize (ID: Mesomerize)
Tautomerize (ID: Tautomerize)
Aromatize (ID: Aromatize)
Add Explicit Hydrogens (ID: AddExplicitH)
Neutralize (ID: Neutralize)
Clean 2D (ID: Clean2D)

> <knn Distance>


> <CpId>
876

$$$$
877
  Mrv1532301301811342D          

 10  9  0  0  0  0            999 V2000
    2.0625   -0.7145    0.0000 C   0  0  0  0  0  0  0  0  0  0  0  0
    1.2375   -0.7145    0.0000 S   0  0  0  0  0  0  0  0  0  0  0  0
    0.8250   -0.0000    0.0000 S   0  0  0  0  0  0  0  0  0  0  0  0
    0.0000   -0.0000    0.0000 C   0  0  0  0  0  0  0  0  0  0  0  0
    2.0625   -1.5395    0.0000 H   0  0  0  0  0  0  0  0  0  0  0  0
    2.8875   -0.7145    0.0000 H   0  0  0  0  0  0  0  0  0  0  0  0
    2.0625    0.1105    0.0000 H   0  0  0  0  0  0  0  0  0  0  0  0
    0.0000    0.8250    0.0000 H   0  0  0  0  0  0  0  0  0  0  0  0
   -0.8250   -0.0000    0.0000 H   0  0  0  0  0  0  0  0  0  0  0  0
   -0.0000   -0.8250    0.0000 H   0  0  0  0  0  0  0  0  0  0  0  0
  1  2  1  0  0  0  0
  2  3  1  0  0  0  0
  3  4  1  0  0  0  0
  1  5  1  0  0  0  0
  1  6  1  0  0  0  0
  1  7  1  0  0  0  0
  4  8  1  0  0  0  0
  4  9  1  0  0  0  0
  4 10  1  0  0  0  0
M  END
>  <InChIKey>
WQOXQRCZOLPYPM-UHFFFAOYSA-N

>  <UN GHS>
2A

>  <CASRN>
624-92-0

> <Outcome>
1

>  <Index>
877

>  <StandardizerResult>
Clear Stereo (ID: ClearStereo)
Wedge Clean (ID: WedgeClean)
Mesomerize (ID: Mesomerize)
Tautomerize (ID: Tautomerize)
Add Explicit Hydrogens (ID: AddExplicitH)
Neutralize (ID: Neutralize)
Clean 2D (ID: Clean2D)

> <knn Distance>


> <CpId>
877

$$$$
878
  Mrv1532301301811342D          

 16 15  0  0  0  0            999 V2000
    2.4461    0.0431    0.0000 C   0  0  0  0  0  0  0  0  0  0  0  0
    2.0336    0.7576    0.0000 O   0  0  0  0  0  0  0  0  0  0  0  0
    1.2086    0.7576    0.0000 B   0  0  0  0  0  0  0  0  0  0  0  0
    0.7961    1.4720    0.0000 O   0  0  0  0  0  0  0  0  0  0  0  0
   -0.0289    1.4720    0.0000 C   0  0  0  0  0  0  0  0  0  0  0  0
    0.7961    0.0431    0.0000 O   0  0  0  0  0  0  0  0  0  0  0  0
   -0.0289    0.0431    0.0000 C   0  0  0  0  0  0  0  0  0  0  0  0
    1.7316   -0.3694    0.0000 H   0  0  0  0  0  0  0  0  0  0  0  0
    2.8586   -0.6714    0.0000 H   0  0  0  0  0  0  0  0  0  0  0  0
    3.1606    0.4556    0.0000 H   0  0  0  0  0  0  0  0  0  0  0  0
   -0.0289    2.2970    0.0000 H   0  0  0  0  0  0  0  0  0  0  0  0
   -0.8539    1.4720    0.0000 H   0  0  0  0  0  0  0  0  0  0  0  0
   -0.0289    0.6470    0.0000 H   0  0  0  0  0  0  0  0  0  0  0  0
   -0.7911    0.3588    0.0000 H   0  0  0  0  0  0  0  0  0  0  0  0
   -0.6123   -0.5403    0.0000 H   0  0  0  0  0  0  0  0  0  0  0  0
    0.2868   -0.7191    0.0000 H   0  0  0  0  0  0  0  0  0  0  0  0
  1  2  1  0  0  0  0
  2  3  1  0  0  0  0
  3  4  1  0  0  0  0
  4  5  1  0  0  0  0
  3  6  1  0  0  0  0
  6  7  1  0  0  0  0
  1  8  1  0  0  0  0
  1  9  1  0  0  0  0
  1 10  1  0  0  0  0
  5 11  1  0  0  0  0
  5 12  1  0  0  0  0
  5 13  1  0  0  0  0
  7 14  1  0  0  0  0
  7 15  1  0  0  0  0
  7 16  1  0  0  0  0
M  END
>  <InChIKey>
WRECIMRULFAWHA-UHFFFAOYSA-N

>  <UN GHS>
2A

>  <CASRN>
121-43-7

> <Outcome>
1

>  <Index>
878

>  <StandardizerResult>
Clear Stereo (ID: ClearStereo)
Wedge Clean (ID: WedgeClean)
Mesomerize (ID: Mesomerize)
Tautomerize (ID: Tautomerize)
Add Explicit Hydrogens (ID: AddExplicitH)
Neutralize (ID: Neutralize)
Clean 2D (ID: Clean2D)

> <knn Distance>


> <CpId>
878

$$$$
879
  Mrv1532301301811342D          

 16 15  0  0  0  0            999 V2000
    2.4750    1.4289    0.0000 C   0  0  0  0  0  0  0  0  0  0  0  0
    2.0625    0.7145    0.0000 O   0  0  0  0  0  0  0  0  0  0  0  0
    1.2375    0.7145    0.0000 C   0  0  0  0  0  0  0  0  0  0  0  0
    0.8250    1.4289    0.0000 O   0  0  0  0  0  0  0  0  0  0  0  0
    0.8250   -0.0000    0.0000 C   0  0  0  0  0  0  0  0  0  0  0  0
    0.0000   -0.0000    0.0000 C   0  0  0  0  0  0  0  0  0  0  0  0
   -0.4125   -0.7145    0.0000 C   0  0  0  0  0  0  0  0  0  0  0  0
   -0.4125    0.7145    0.0000 O   0  0  0  0  0  0  0  0  0  0  0  0
    3.1895    1.0164    0.0000 H   0  0  0  0  0  0  0  0  0  0  0  0
    2.8875    2.1434    0.0000 H   0  0  0  0  0  0  0  0  0  0  0  0
    1.7605    1.8414    0.0000 H   0  0  0  0  0  0  0  0  0  0  0  0
    1.2375   -0.7145    0.0000 H   0  0  0  0  0  0  0  0  0  0  0  0
   -1.1270   -0.3020    0.0000 H   0  0  0  0  0  0  0  0  0  0  0  0
   -0.8250   -1.4290    0.0000 H   0  0  0  0  0  0  0  0  0  0  0  0
    0.3020   -1.1270    0.0000 H   0  0  0  0  0  0  0  0  0  0  0  0
    0.0000    1.4289    0.0000 H   0  0  0  0  0  0  0  0  0  0  0  0
  1  2  1  0  0  0  0
  2  3  1  0  0  0  0
  3  4  2  0  0  0  0
  5  3  1  4  0  0  0
  5  6  2  0  0  0  0
  6  7  1  0  0  0  0
  6  8  1  0  0  0  0
  1  9  1  0  0  0  0
  1 10  1  0  0  0  0
  1 11  1  0  0  0  0
  5 12  1  0  0  0  0
  7 13  1  0  0  0  0
  7 14  1  0  0  0  0
  7 15  1  0  0  0  0
  8 16  1  0  0  0  0
M  END
>  <InChIKey>
WRQNANDWMGAFTP-UHFFFAOYSA-N

>  <UN GHS>
1

>  <CASRN>
105-45-3

> <Outcome>
1

>  <Index>
879

>  <StandardizerResult>
Clear Stereo (ID: ClearStereo)
Wedge Clean (ID: WedgeClean)
Mesomerize (ID: Mesomerize)
Tautomerize (ID: Tautomerize)
Add Explicit Hydrogens (ID: AddExplicitH)
Neutralize (ID: Neutralize)
Clean 2D (ID: Clean2D)

> <knn Distance>


> <CpId>
879

$$$$
880
  Mrv1532301301811342D          

 16 15  0  0  0  0            999 V2000
    2.4750    1.4289    0.0000 C   0  0  0  0  0  0  0  0  0  0  0  0
    2.0625    0.7145    0.0000 C   0  0  0  0  0  0  0  0  0  0  0  0
    1.2375    0.7145    0.0000 C   0  0  0  0  0  0  0  0  0  0  0  0
    0.8250   -0.0000    0.0000 C   0  0  0  0  0  0  0  0  0  0  0  0
    0.0000   -0.0000    0.0000 C   0  0  0  0  0  0  0  0  0  0  0  0
   -0.4125   -0.7145    0.0000 C   0  0  0  0  0  0  0  0  0  0  0  0
    0.0000   -1.4289    0.0000 O   0  0  0  0  0  0  0  0  0  0  0  0
   -1.2375   -0.7145    0.0000 O   0  0  0  0  0  0  0  0  0  0  0  0
    3.1895    1.0164    0.0000 H   0  0  0  0  0  0  0  0  0  0  0  0
    2.8875    2.1434    0.0000 H   0  0  0  0  0  0  0  0  0  0  0  0
    1.7605    1.8414    0.0000 H   0  0  0  0  0  0  0  0  0  0  0  0
    2.4750   -0.0000    0.0000 H   0  0  0  0  0  0  0  0  0  0  0  0
    0.8250    1.4289    0.0000 H   0  0  0  0  0  0  0  0  0  0  0  0
    1.2375   -0.7145    0.0000 H   0  0  0  0  0  0  0  0  0  0  0  0
   -0.4125    0.7145    0.0000 H   0  0  0  0  0  0  0  0  0  0  0  0
   -0.4125   -2.1434    0.0000 H   0  0  0  0  0  0  0  0  0  0  0  0
  2  1  1  4  0  0  0
  2  3  2  0  0  0  0
  4  3  1  4  0  0  0
  4  5  2  0  0  0  0
  5  6  1  0  0  0  0
  6  7  1  0  0  0  0
  6  8  2  0  0  0  0
  1  9  1  0  0  0  0
  1 10  1  0  0  0  0
  1 11  1  0  0  0  0
  2 12  1  0  0  0  0
  3 13  1  0  0  0  0
  4 14  1  0  0  0  0
  5 15  1  0  0  0  0
  7 16  1  0  0  0  0
M  END
>  <InChIKey>
WSWCOQWTEOXDQX-MQQKCMAXSA-N

>  <UN GHS>
2A

>  <CASRN>
110-44-1

> <Outcome>
1

>  <Index>
880

>  <StandardizerResult>
Clear Stereo (ID: ClearStereo)
Wedge Clean (ID: WedgeClean)
Mesomerize (ID: Mesomerize)
Tautomerize (ID: Tautomerize)
Add Explicit Hydrogens (ID: AddExplicitH)
Neutralize (ID: Neutralize)
Clean 2D (ID: Clean2D)

> <knn Distance>


> <CpId>
880

$$$$
882
  Mrv1532301301811342D          

 65 64  0  0  0  0            999 V2000
    2.4592   -8.8023    0.0000 C   0  0  0  0  0  0  0  0  0  0  0  0
    2.0467   -8.0879    0.0000 C   0  0  0  0  0  0  0  0  0  0  0  0
    2.4592   -7.3734    0.0000 C   0  0  0  0  0  0  0  0  0  0  0  0
    2.0467   -6.6589    0.0000 C   0  0  0  0  0  0  0  0  0  0  0  0
    2.4592   -5.9444    0.0000 O   0  0  0  0  0  0  0  0  0  0  0  0
    2.0467   -5.2300    0.0000 C   0  0  0  0  0  0  0  0  0  0  0  0
    2.4592   -4.5155    0.0000 C   0  0  0  0  0  0  0  0  0  0  0  0
    2.0467   -3.8010    0.0000 O   0  0  0  0  0  0  0  0  0  0  0  0
    2.4592   -3.0866    0.0000 P   0  0  0  0  0  0  0  0  0  0  0  0
    3.1736   -3.4991    0.0000 O   0  0  0  0  0  0  0  0  0  0  0  0
    2.8717   -2.3721    0.0000 O   0  0  0  0  0  0  0  0  0  0  0  0
    3.6967   -2.3721    0.0000 C   0  0  0  0  0  0  0  0  0  0  0  0
    4.1092   -3.0866    0.0000 C   0  0  0  0  0  0  0  0  0  0  0  0
    4.9342   -3.0866    0.0000 O   0  0  0  0  0  0  0  0  0  0  0  0
    5.3467   -3.8010    0.0000 C   0  0  0  0  0  0  0  0  0  0  0  0
    6.1717   -3.8010    0.0000 C   0  0  0  0  0  0  0  0  0  0  0  0
    6.5842   -4.5155    0.0000 C   0  0  0  0  0  0  0  0  0  0  0  0
    7.4092   -4.5155    0.0000 C   0  0  0  0  0  0  0  0  0  0  0  0
    1.7447   -2.6741    0.0000 O   0  0  0  0  0  0  0  0  0  0  0  0
    1.7447   -1.8491    0.0000 C   0  0  0  0  0  0  0  0  0  0  0  0
    2.4592   -1.4366    0.0000 C   0  0  0  0  0  0  0  0  0  0  0  0
    3.1736   -1.8491    0.0000 O   0  0  0  0  0  0  0  0  0  0  0  0
    3.8881   -1.4366    0.0000 C   0  0  0  0  0  0  0  0  0  0  0  0
    4.6026   -1.8491    0.0000 C   0  0  0  0  0  0  0  0  0  0  0  0
    5.3171   -1.4366    0.0000 C   0  0  0  0  0  0  0  0  0  0  0  0
    6.0315   -1.8491    0.0000 C   0  0  0  0  0  0  0  0  0  0  0  0
    1.7447   -9.2148    0.0000 H   0  0  0  0  0  0  0  0  0  0  0  0
    2.8717   -9.5168    0.0000 H   0  0  0  0  0  0  0  0  0  0  0  0
    3.1736   -8.3898    0.0000 H   0  0  0  0  0  0  0  0  0  0  0  0
    1.3094   -7.7176    0.0000 H   0  0  0  0  0  0  0  0  0  0  0  0
    1.3094   -8.4581    0.0000 H   0  0  0  0  0  0  0  0  0  0  0  0
    3.1964   -7.7436    0.0000 H   0  0  0  0  0  0  0  0  0  0  0  0
    3.1964   -7.0031    0.0000 H   0  0  0  0  0  0  0  0  0  0  0  0
    1.3094   -6.2887    0.0000 H   0  0  0  0  0  0  0  0  0  0  0  0
    1.3094   -7.0292    0.0000 H   0  0  0  0  0  0  0  0  0  0  0  0
    1.3094   -4.8597    0.0000 H   0  0  0  0  0  0  0  0  0  0  0  0
    1.3094   -5.6002    0.0000 H   0  0  0  0  0  0  0  0  0  0  0  0
    3.1964   -4.8858    0.0000 H   0  0  0  0  0  0  0  0  0  0  0  0
    3.1964   -4.1452    0.0000 H   0  0  0  0  0  0  0  0  0  0  0  0
    4.5110   -2.2399    0.0000 H   0  0  0  0  0  0  0  0  0  0  0  0
    3.2842   -3.0866    0.0000 H   0  0  0  0  0  0  0  0  0  0  0  0
    3.8270   -3.8618    0.0000 H   0  0  0  0  0  0  0  0  0  0  0  0
    4.3913   -3.8618    0.0000 H   0  0  0  0  0  0  0  0  0  0  0  0
    4.9648   -4.5323    0.0000 H   0  0  0  0  0  0  0  0  0  0  0  0
    5.7742   -4.5066    0.0000 H   0  0  0  0  0  0  0  0  0  0  0  0
    6.8610   -3.3477    0.0000 H   0  0  0  0  0  0  0  0  0  0  0  0
    6.2196   -2.9774    0.0000 H   0  0  0  0  0  0  0  0  0  0  0  0
    6.2968   -5.2888    0.0000 H   0  0  0  0  0  0  0  0  0  0  0  0
    6.8630   -5.2919    0.0000 H   0  0  0  0  0  0  0  0  0  0  0  0
    7.9521   -5.1366    0.0000 H   0  0  0  0  0  0  0  0  0  0  0  0
    8.1414   -4.1353    0.0000 H   0  0  0  0  0  0  0  0  0  0  0  0
    7.2135   -3.7140    0.0000 H   0  0  0  0  0  0  0  0  0  0  0  0
    1.2914   -1.1598    0.0000 H   0  0  0  0  0  0  0  0  0  0  0  0
    0.9211   -1.8011    0.0000 H   0  0  0  0  0  0  0  0  0  0  0  0
    2.8294   -0.6993    0.0000 H   0  0  0  0  0  0  0  0  0  0  0  0
    2.0889   -0.6993    0.0000 H   0  0  0  0  0  0  0  0  0  0  0  0
    4.2584   -0.6993    0.0000 H   0  0  0  0  0  0  0  0  0  0  0  0
    3.5179   -0.6993    0.0000 H   0  0  0  0  0  0  0  0  0  0  0  0
    5.2650   -2.3409    0.0000 H   0  0  0  0  0  0  0  0  0  0  0  0
    3.8455   -2.1768    0.0000 H   0  0  0  0  0  0  0  0  0  0  0  0
    5.6873   -0.6993    0.0000 H   0  0  0  0  0  0  0  0  0  0  0  0
    4.9468   -0.6993    0.0000 H   0  0  0  0  0  0  0  0  0  0  0  0
    6.2729   -2.6380    0.0000 H   0  0  0  0  0  0  0  0  0  0  0  0
    6.8563   -1.8297    0.0000 H   0  0  0  0  0  0  0  0  0  0  0  0
    6.2357   -1.0497    0.0000 H   0  0  0  0  0  0  0  0  0  0  0  0
  1  2  1  0  0  0  0
  2  3  1  0  0  0  0
  3  4  1  0  0  0  0
  4  5  1  0  0  0  0
  5  6  1  0  0  0  0
  6  7  1  0  0  0  0
  7  8  1  0  0  0  0
  8  9  1  0  0  0  0
  9 10  2  0  0  0  0
  9 11  1  0  0  0  0
 11 12  1  0  0  0  0
 12 13  1  0  0  0  0
 13 14  1  0  0  0  0
 14 15  1  0  0  0  0
 15 16  1  0  0  0  0
 16 17  1  0  0  0  0
 17 18  1  0  0  0  0
  9 19  1  0  0  0  0
 19 20  1  0  0  0  0
 20 21  1  0  0  0  0
 21 22  1  0  0  0  0
 22 23  1  0  0  0  0
 23 24  1  0  0  0  0
 24 25  1  0  0  0  0
 25 26  1  0  0  0  0
  1 27  1  0  0  0  0
  1 28  1  0  0  0  0
  1 29  1  0  0  0  0
  2 30  1  0  0  0  0
  2 31  1  0  0  0  0
  3 32  1  0  0  0  0
  3 33  1  0  0  0  0
  4 34  1  0  0  0  0
  4 35  1  0  0  0  0
  6 36  1  0  0  0  0
  6 37  1  0  0  0  0
  7 38  1  0  0  0  0
  7 39  1  0  0  0  0
 12 40  1  0  0  0  0
 12 41  1  0  0  0  0
 13 42  1  0  0  0  0
 13 43  1  0  0  0  0
 15 44  1  0  0  0  0
 15 45  1  0  0  0  0
 16 46  1  0  0  0  0
 16 47  1  0  0  0  0
 17 48  1  0  0  0  0
 17 49  1  0  0  0  0
 18 50  1  0  0  0  0
 18 51  1  0  0  0  0
 18 52  1  0  0  0  0
 20 53  1  0  0  0  0
 20 54  1  0  0  0  0
 21 55  1  0  0  0  0
 21 56  1  0  0  0  0
 23 57  1  0  0  0  0
 23 58  1  0  0  0  0
 24 59  1  0  0  0  0
 24 60  1  0  0  0  0
 25 61  1  0  0  0  0
 25 62  1  0  0  0  0
 26 63  1  0  0  0  0
 26 64  1  0  0  0  0
 26 65  1  0  0  0  0
M  END
>  <InChIKey>
WTLBZVNBAKMVDP-UHFFFAOYSA-N

>  <UN GHS>
2B

>  <CASRN>
78-51-3

> <Outcome>
1

>  <Index>
882

>  <StandardizerResult>
Clear Stereo (ID: ClearStereo)
Wedge Clean (ID: WedgeClean)
Mesomerize (ID: Mesomerize)
Tautomerize (ID: Tautomerize)
Add Explicit Hydrogens (ID: AddExplicitH)
Neutralize (ID: Neutralize)
Clean 2D (ID: Clean2D)

> <knn Distance>


> <CpId>
882

$$$$
883
  Mrv1532301301811342D          

 28 28  0  0  0  0            999 V2000
   -0.7145    3.7125    0.0000 O   0  0  0  0  0  0  0  0  0  0  0  0
   -0.0000    3.3000    0.0000 C   0  0  0  0  0  0  0  0  0  0  0  0
   -0.0000    2.4750    0.0000 C   0  0  0  0  0  0  0  0  0  0  0  0
    0.7145    2.0625    0.0000 O   0  0  0  0  0  0  0  0  0  0  0  0
    0.7145    1.2375    0.0000 C   0  0  0  0  0  0  0  0  0  0  0  0
    1.4289    0.8250    0.0000 C   0  0  0  0  0  0  0  0  0  0  0  0
    1.4289   -0.0000    0.0000 C   0  0  0  0  0  0  0  0  0  0  0  0
    0.7145   -0.4125    0.0000 C   0  0  0  0  0  0  0  0  0  0  0  0
    0.7145   -1.2375    0.0000 O   0  0  0  0  0  0  0  0  0  0  0  0
    1.4289   -1.6500    0.0000 C   0  0  0  0  0  0  0  0  0  0  0  0
    1.4289   -2.4750    0.0000 C   0  0  0  0  0  0  0  0  0  0  0  0
    2.1434   -2.8875    0.0000 O   0  0  0  0  0  0  0  0  0  0  0  0
   -0.0000   -0.0000    0.0000 C   0  0  0  0  0  0  0  0  0  0  0  0
   -0.0000    0.8250    0.0000 C   0  0  0  0  0  0  0  0  0  0  0  0
   -0.7145    4.5375    0.0000 H   0  0  0  0  0  0  0  0  0  0  0  0
    0.8236    3.3480    0.0000 H   0  0  0  0  0  0  0  0  0  0  0  0
    0.4533    3.9893    0.0000 H   0  0  0  0  0  0  0  0  0  0  0  0
   -0.8236    2.4270    0.0000 H   0  0  0  0  0  0  0  0  0  0  0  0
   -0.4534    1.7857    0.0000 H   0  0  0  0  0  0  0  0  0  0  0  0
    2.1434    1.2375    0.0000 H   0  0  0  0  0  0  0  0  0  0  0  0
    2.1434   -0.4125    0.0000 H   0  0  0  0  0  0  0  0  0  0  0  0
    2.2525   -1.6020    0.0000 H   0  0  0  0  0  0  0  0  0  0  0  0
    1.8823   -0.9607    0.0000 H   0  0  0  0  0  0  0  0  0  0  0  0
    0.6053   -2.5230    0.0000 H   0  0  0  0  0  0  0  0  0  0  0  0
    0.9756   -3.1643    0.0000 H   0  0  0  0  0  0  0  0  0  0  0  0
    2.1434   -3.7125    0.0000 H   0  0  0  0  0  0  0  0  0  0  0  0
   -0.7145   -0.4125    0.0000 H   0  0  0  0  0  0  0  0  0  0  0  0
   -0.7145    1.2375    0.0000 H   0  0  0  0  0  0  0  0  0  0  0  0
  1  2  1  0  0  0  0
  2  3  1  0  0  0  0
  3  4  1  0  0  0  0
  4  5  1  0  0  0  0
  5  6  4  0  0  0  0
  6  7  4  0  0  0  0
  7  8  4  0  0  0  0
  8  9  1  0  0  0  0
  9 10  1  0  0  0  0
 10 11  1  0  0  0  0
 11 12  1  0  0  0  0
  8 13  4  0  0  0  0
 13 14  4  0  0  0  0
  5 14  4  0  0  0  0
  1 15  1  0  0  0  0
  2 16  1  0  0  0  0
  2 17  1  0  0  0  0
  3 18  1  0  0  0  0
  3 19  1  0  0  0  0
  6 20  1  0  0  0  0
  7 21  1  0  0  0  0
 10 22  1  0  0  0  0
 10 23  1  0  0  0  0
 11 24  1  0  0  0  0
 11 25  1  0  0  0  0
 12 26  1  0  0  0  0
 13 27  1  0  0  0  0
 14 28  1  0  0  0  0
M  END
>  <InChIKey>
WTPYFJNYAMXZJG-UHFFFAOYSA-N

>  <UN GHS>
2B

>  <CASRN>
104-38-1

> <Outcome>
1

>  <Index>
883

>  <StandardizerResult>
Dearomatize (ID: Dearomatize)
Clear Stereo (ID: ClearStereo)
Wedge Clean (ID: WedgeClean)
Mesomerize (ID: Mesomerize)
Tautomerize (ID: Tautomerize)
Aromatize (ID: Aromatize)
Add Explicit Hydrogens (ID: AddExplicitH)
Neutralize (ID: Neutralize)
Clean 2D (ID: Clean2D)

> <knn Distance>


> <CpId>
883

$$$$
884
  Mrv1532301301811342D          

 28 27  0  0  0  0            999 V2000
   -0.6415   -0.7244    0.0000 C   0  0  0  0  0  0  0  0  0  0  0  0
    0.0730   -1.1369    0.0000 C   0  0  0  0  0  0  0  0  0  0  0  0
    0.0730   -1.9619    0.0000 C   0  0  0  0  0  0  0  0  0  0  0  0
   -0.6415   -2.3744    0.0000 C   0  0  0  0  0  0  0  0  0  0  0  0
   -0.6415   -3.1994    0.0000 O   0  0  0  0  0  0  0  0  0  0  0  0
    0.7875   -0.7244    0.0000 C   0  0  0  0  0  0  0  0  0  0  0  0
    0.7875    0.1006    0.0000 C   0  0  0  0  0  0  0  0  0  0  0  0
    0.7875    0.9256    0.0000 C   0  0  0  0  0  0  0  0  0  0  0  0
    1.6125    0.1006    0.0000 C   0  0  0  0  0  0  0  0  0  0  0  0
   -0.0375    0.1006    0.0000 C   0  0  0  0  0  0  0  0  0  0  0  0
   -0.2290   -0.0099    0.0000 H   0  0  0  0  0  0  0  0  0  0  0  0
   -1.3559   -0.3119    0.0000 H   0  0  0  0  0  0  0  0  0  0  0  0
   -1.0540   -1.4388    0.0000 H   0  0  0  0  0  0  0  0  0  0  0  0
   -0.6415   -1.5494    0.0000 H   0  0  0  0  0  0  0  0  0  0  0  0
    0.5263   -2.6511    0.0000 H   0  0  0  0  0  0  0  0  0  0  0  0
    0.8966   -2.0098    0.0000 H   0  0  0  0  0  0  0  0  0  0  0  0
   -1.4665   -2.3744    0.0000 H   0  0  0  0  0  0  0  0  0  0  0  0
    1.2408   -1.4136    0.0000 H   0  0  0  0  0  0  0  0  0  0  0  0
    1.6111   -0.7723    0.0000 H   0  0  0  0  0  0  0  0  0  0  0  0
    1.6125    0.9256    0.0000 H   0  0  0  0  0  0  0  0  0  0  0  0
    0.7875    1.7506    0.0000 H   0  0  0  0  0  0  0  0  0  0  0  0
   -0.0375    0.9256    0.0000 H   0  0  0  0  0  0  0  0  0  0  0  0
    2.1951   -0.4834    0.0000 H   0  0  0  0  0  0  0  0  0  0  0  0
    2.4375    0.1000    0.0000 H   0  0  0  0  0  0  0  0  0  0  0  0
    2.1961    0.6838    0.0000 H   0  0  0  0  0  0  0  0  0  0  0  0
   -0.1808   -0.7118    0.0000 H   0  0  0  0  0  0  0  0  0  0  0  0
    0.4928   -0.5313    0.0000 H   0  0  0  0  0  0  0  0  0  0  0  0
   -0.7520    0.5131    0.0000 H   0  0  0  0  0  0  0  0  0  0  0  0
  1  2  1  0  0  0  0
  2  3  1  0  0  0  0
  3  4  1  0  0  0  0
  4  5  2  0  0  0  0
  2  6  1  0  0  0  0
  6  7  1  0  0  0  0
  7  8  1  0  0  0  0
  7  9  1  0  0  0  0
  7 10  1  0  0  0  0
  1 11  1  0  0  0  0
  1 12  1  0  0  0  0
  1 13  1  0  0  0  0
  2 14  1  0  0  0  0
  3 15  1  0  0  0  0
  3 16  1  0  0  0  0
  4 17  1  0  0  0  0
  6 18  1  0  0  0  0
  6 19  1  0  0  0  0
  8 20  1  0  0  0  0
  8 21  1  0  0  0  0
  8 22  1  0  0  0  0
  9 23  1  0  0  0  0
  9 24  1  0  0  0  0
  9 25  1  0  0  0  0
 10 26  1  0  0  0  0
 10 27  1  0  0  0  0
 10 28  1  0  0  0  0
M  END
>  <InChIKey>
WTPYRCJDOZVZON-UHFFFAOYSA-N

>  <UN GHS>
2B

>  <CASRN>
5435-64-3

> <Outcome>
1

>  <Index>
884

>  <StandardizerResult>
Clear Stereo (ID: ClearStereo)
Wedge Clean (ID: WedgeClean)
Mesomerize (ID: Mesomerize)
Tautomerize (ID: Tautomerize)
Add Explicit Hydrogens (ID: AddExplicitH)
Neutralize (ID: Neutralize)
Clean 2D (ID: Clean2D)

> <knn Distance>


> <CpId>
884

$$$$
885
  Mrv1532301301811342D          

 29 29  0  0  0  0            999 V2000
    2.5072    0.7557    0.0000 C   0  0  0  0  0  0  0  0  0  0  0  0
    1.7927    0.3432    0.0000 C   0  0  0  0  0  0  0  0  0  0  0  0
    1.7927   -0.4818    0.0000 C   0  0  0  0  0  0  0  0  0  0  0  0
    1.0782   -0.8943    0.0000 C   0  0  0  0  0  0  0  0  0  0  0  0
    0.3637   -0.4818    0.0000 C   0  0  0  0  0  0  0  0  0  0  0  0
    0.3637    0.3432    0.0000 C   0  0  0  0  0  0  0  0  0  0  0  0
    1.0782    0.7557    0.0000 C   0  0  0  0  0  0  0  0  0  0  0  0
   -0.3507   -0.8943    0.0000 C   0  0  0  0  0  0  0  0  0  0  0  0
   -1.0652   -1.3068    0.0000 C   0  0  0  0  0  0  0  0  0  0  0  0
   -0.7632   -0.1798    0.0000 C   0  0  0  0  0  0  0  0  0  0  0  0
    0.0618   -1.6087    0.0000 O   0  0  0  0  0  0  0  0  0  0  0  0
    2.9197    0.0413    0.0000 H   0  0  0  0  0  0  0  0  0  0  0  0
    3.2216    1.1682    0.0000 H   0  0  0  0  0  0  0  0  0  0  0  0
    2.0947    1.4702    0.0000 H   0  0  0  0  0  0  0  0  0  0  0  0
    2.5072   -0.8943    0.0000 H   0  0  0  0  0  0  0  0  0  0  0  0
    0.7080   -1.6315    0.0000 H   0  0  0  0  0  0  0  0  0  0  0  0
    1.4485   -1.6315    0.0000 H   0  0  0  0  0  0  0  0  0  0  0  0
   -0.3507   -0.0693    0.0000 H   0  0  0  0  0  0  0  0  0  0  0  0
    0.2205    1.1557    0.0000 H   0  0  0  0  0  0  0  0  0  0  0  0
   -0.2682    0.8735    0.0000 H   0  0  0  0  0  0  0  0  0  0  0  0
    1.6918    1.3072    0.0000 H   0  0  0  0  0  0  0  0  0  0  0  0
    1.1780    1.5747    0.0000 H   0  0  0  0  0  0  0  0  0  0  0  0
   -1.4777   -0.5923    0.0000 H   0  0  0  0  0  0  0  0  0  0  0  0
   -1.7797   -1.7193    0.0000 H   0  0  0  0  0  0  0  0  0  0  0  0
   -0.6527   -2.0212    0.0000 H   0  0  0  0  0  0  0  0  0  0  0  0
   -0.3983    0.5601    0.0000 H   0  0  0  0  0  0  0  0  0  0  0  0
   -1.0789    0.5824    0.0000 H   0  0  0  0  0  0  0  0  0  0  0  0
   -1.5444    0.0854    0.0000 H   0  0  0  0  0  0  0  0  0  0  0  0
    0.2612   -2.4093    0.0000 H   0  0  0  0  0  0  0  0  0  0  0  0
  1  2  1  0  0  0  0
  2  3  2  0  0  0  0
  3  4  1  0  0  0  0
  4  5  1  0  0  0  0
  5  6  1  0  0  0  0
  6  7  1  0  0  0  0
  2  7  1  0  0  0  0
  5  8  1  0  0  0  0
  8  9  1  0  0  0  0
  8 10  1  0  0  0  0
  8 11  1  0  0  0  0
  1 12  1  0  0  0  0
  1 13  1  0  0  0  0
  1 14  1  0  0  0  0
  3 15  1  0  0  0  0
  4 16  1  0  0  0  0
  4 17  1  0  0  0  0
  5 18  1  0  0  0  0
  6 19  1  0  0  0  0
  6 20  1  0  0  0  0
  7 21  1  0  0  0  0
  7 22  1  0  0  0  0
  9 23  1  0  0  0  0
  9 24  1  0  0  0  0
  9 25  1  0  0  0  0
 10 26  1  0  0  0  0
 10 27  1  0  0  0  0
 10 28  1  0  0  0  0
 11 29  1  0  0  0  0
M  END
>  <InChIKey>
WUOACPNHFRMFPN-UHFFFAOYSA-N

>  <UN GHS>
2A

>  <CASRN>
8000-41-7

> <Outcome>
1

>  <Index>
885

>  <StandardizerResult>
Clear Stereo (ID: ClearStereo)
Wedge Clean (ID: WedgeClean)
Mesomerize (ID: Mesomerize)
Tautomerize (ID: Tautomerize)
Add Explicit Hydrogens (ID: AddExplicitH)
Neutralize (ID: Neutralize)
Clean 2D (ID: Clean2D)

> <knn Distance>


> <CpId>
885

$$$$
886
  Mrv1532301301811342D          

 30 30  0  0  0  0            999 V2000
    1.2779    2.3901    0.0000 C   0  0  0  0  0  0  0  0  0  0  0  0
    0.5634    1.9776    0.0000 C   0  0  0  0  0  0  0  0  0  0  0  0
    0.5634    1.1526    0.0000 C   0  0  0  0  0  0  0  0  0  0  0  0
    1.2309    0.6677    0.0000 C   0  0  0  0  0  0  0  0  0  0  0  0
    0.9759   -0.1170    0.0000 C   0  0  0  0  0  0  0  0  0  0  0  0
    0.1509   -0.1170    0.0000 C   0  0  0  0  0  0  0  0  0  0  0  0
   -0.3340   -0.7844    0.0000 C   0  0  0  0  0  0  0  0  0  0  0  0
    0.0016   -1.5381    0.0000 C   0  0  0  0  0  0  0  0  0  0  0  0
   -0.4834   -2.2055    0.0000 C   0  0  0  0  0  0  0  0  0  0  0  0
   -0.1478   -2.9592    0.0000 O   0  0  0  0  0  0  0  0  0  0  0  0
   -1.3038   -2.1193    0.0000 O   0  0  0  0  0  0  0  0  0  0  0  0
   -0.1040    0.6677    0.0000 C   0  0  0  0  0  0  0  0  0  0  0  0
    1.6904    1.6756    0.0000 H   0  0  0  0  0  0  0  0  0  0  0  0
    1.9924    2.8026    0.0000 H   0  0  0  0  0  0  0  0  0  0  0  0
    0.8654    3.1045    0.0000 H   0  0  0  0  0  0  0  0  0  0  0  0
    0.1101    2.6669    0.0000 H   0  0  0  0  0  0  0  0  0  0  0  0
   -0.2602    2.0255    0.0000 H   0  0  0  0  0  0  0  0  0  0  0  0
   -0.1717    1.5271    0.0000 H   0  0  0  0  0  0  0  0  0  0  0  0
    2.0433    0.5244    0.0000 H   0  0  0  0  0  0  0  0  0  0  0  0
    1.8040    1.2611    0.0000 H   0  0  0  0  0  0  0  0  0  0  0  0
    1.0907   -0.9339    0.0000 H   0  0  0  0  0  0  0  0  0  0  0  0
    1.7174   -0.4786    0.0000 H   0  0  0  0  0  0  0  0  0  0  0  0
   -0.6639    0.0121    0.0000 H   0  0  0  0  0  0  0  0  0  0  0  0
   -1.1578   -0.8288    0.0000 H   0  0  0  0  0  0  0  0  0  0  0  0
   -0.9333   -1.3514    0.0000 H   0  0  0  0  0  0  0  0  0  0  0  0
    0.6961   -1.9834    0.0000 H   0  0  0  0  0  0  0  0  0  0  0  0
    0.7735   -1.2469    0.0000 H   0  0  0  0  0  0  0  0  0  0  0  0
   -0.6327   -3.6266    0.0000 H   0  0  0  0  0  0  0  0  0  0  0  0
   -0.8886    0.9226    0.0000 H   0  0  0  0  0  0  0  0  0  0  0  0
    0.6806    0.4127    0.0000 H   0  0  0  0  0  0  0  0  0  0  0  0
  1  2  1  0  0  0  0
  2  3  1  0  0  0  0
  3  4  1  0  0  0  0
  4  5  1  0  0  0  0
  5  6  1  0  0  0  0
  6  7  1  0  0  0  0
  7  8  1  0  0  0  0
  8  9  1  0  0  0  0
  9 10  1  0  0  0  0
  9 11  2  0  0  0  0
  6 12  1  0  0  0  0
  3 12  1  0  0  0  0
  1 13  1  0  0  0  0
  1 14  1  0  0  0  0
  1 15  1  0  0  0  0
  2 16  1  0  0  0  0
  2 17  1  0  0  0  0
  3 18  1  0  0  0  0
  4 19  1  0  0  0  0
  4 20  1  0  0  0  0
  5 21  1  0  0  0  0
  5 22  1  0  0  0  0
  6 23  1  0  0  0  0
  7 24  1  0  0  0  0
  7 25  1  0  0  0  0
  8 26  1  0  0  0  0
  8 27  1  0  0  0  0
 10 28  1  0  0  0  0
 12 29  1  0  0  0  0
 12 30  1  0  0  0  0
M  END
>  <InChIKey>
WVRFSLWCFASCIS-UHFFFAOYSA-N

>  <UN GHS>
2A

>  <CASRN>
1338-24-5

> <Outcome>
1

>  <Index>
886

>  <StandardizerResult>
Clear Stereo (ID: ClearStereo)
Wedge Clean (ID: WedgeClean)
Mesomerize (ID: Mesomerize)
Tautomerize (ID: Tautomerize)
Add Explicit Hydrogens (ID: AddExplicitH)
Neutralize (ID: Neutralize)
Clean 2D (ID: Clean2D)

> <knn Distance>


> <CpId>
886

$$$$
887
  Mrv1532301301811342D          

 21 20  0  0  0  0            999 V2000
    1.2809    2.1877    0.0000 C   0  0  0  0  0  0  0  0  0  0  0  0
    0.8684    1.4732    0.0000 C   0  0  0  0  0  0  0  0  0  0  0  0
    0.0434    1.4732    0.0000 C   0  0  0  0  0  0  0  0  0  0  0  0
    1.2809    0.7588    0.0000 C   0  0  0  0  0  0  0  0  0  0  0  0
    0.8684    0.0443    0.0000 C   0  0  0  0  0  0  0  0  0  0  0  0
    1.2809   -0.6702    0.0000 C   0  0  0  0  0  0  0  0  0  0  0  0
    0.0434    0.0443    0.0000 O   0  0  0  0  0  0  0  0  0  0  0  0
    1.9954    1.7752    0.0000 H   0  0  0  0  0  0  0  0  0  0  0  0
    1.6934    2.9022    0.0000 H   0  0  0  0  0  0  0  0  0  0  0  0
    0.5665    2.6002    0.0000 H   0  0  0  0  0  0  0  0  0  0  0  0
    0.4559    2.1877    0.0000 H   0  0  0  0  0  0  0  0  0  0  0  0
   -0.5399    2.0566    0.0000 H   0  0  0  0  0  0  0  0  0  0  0  0
   -0.6710    1.0607    0.0000 H   0  0  0  0  0  0  0  0  0  0  0  0
    0.2569    0.6763    0.0000 H   0  0  0  0  0  0  0  0  0  0  0  0
    2.0182    0.3885    0.0000 H   0  0  0  0  0  0  0  0  0  0  0  0
    2.0182    1.1290    0.0000 H   0  0  0  0  0  0  0  0  0  0  0  0
    1.6934    0.0443    0.0000 H   0  0  0  0  0  0  0  0  0  0  0  0
    0.4840   -0.8837    0.0000 H   0  0  0  0  0  0  0  0  0  0  0  0
    1.2809   -1.4952    0.0000 H   0  0  0  0  0  0  0  0  0  0  0  0
    2.0778   -0.8837    0.0000 H   0  0  0  0  0  0  0  0  0  0  0  0
   -0.6268   -0.4368    0.0000 H   0  0  0  0  0  0  0  0  0  0  0  0
  1  2  1  0  0  0  0
  2  3  1  0  0  0  0
  2  4  1  0  0  0  0
  4  5  1  0  0  0  0
  5  6  1  0  0  0  0
  5  7  1  0  0  0  0
  1  8  1  0  0  0  0
  1  9  1  0  0  0  0
  1 10  1  0  0  0  0
  2 11  1  0  0  0  0
  3 12  1  0  0  0  0
  3 13  1  0  0  0  0
  3 14  1  0  0  0  0
  4 15  1  0  0  0  0
  4 16  1  0  0  0  0
  5 17  1  0  0  0  0
  6 18  1  0  0  0  0
  6 19  1  0  0  0  0
  6 20  1  0  0  0  0
  7 21  1  0  0  0  0
M  END
>  <InChIKey>
WVYWICLMDOOCFB-UHFFFAOYSA-N

>  <UN GHS>
2A

>  <CASRN>
108-11-2

> <Outcome>
1

>  <Index>
887

>  <StandardizerResult>
Clear Stereo (ID: ClearStereo)
Wedge Clean (ID: WedgeClean)
Mesomerize (ID: Mesomerize)
Tautomerize (ID: Tautomerize)
Add Explicit Hydrogens (ID: AddExplicitH)
Neutralize (ID: Neutralize)
Clean 2D (ID: Clean2D)

> <knn Distance>


> <CpId>
887

$$$$
888
  Mrv1532301301811342D          

 49 50  0  0  0  0            999 V2000
   -1.4241   -4.1586    0.0000 C   0  0  0  0  0  0  0  0  0  0  0  0
   -0.7096   -3.7461    0.0000 C   0  0  0  0  0  0  0  0  0  0  0  0
    0.0049   -4.1586    0.0000 C   0  0  0  0  0  0  0  0  0  0  0  0
   -0.7096   -2.9211    0.0000 C   0  0  0  0  0  0  0  0  0  0  0  0
   -1.4241   -2.5086    0.0000 C   0  0  0  0  0  0  0  0  0  0  0  0
   -1.4241   -1.6836    0.0000 C   0  0  0  0  0  0  0  0  0  0  0  0
   -0.7096   -1.2711    0.0000 C   0  0  0  0  0  0  0  0  0  0  0  0
   -0.7096   -0.4461    0.0000 C   0  0  0  0  0  0  0  0  0  0  0  0
    0.0049   -1.6836    0.0000 C   0  0  0  0  0  0  0  0  0  0  0  0
    0.0049   -2.5086    0.0000 C   0  0  0  0  0  0  0  0  0  0  0  0
    0.7194   -2.9211    0.0000 C   0  0  0  0  0  0  0  0  0  0  0  0
    0.7194   -3.7461    0.0000 O   0  0  0  0  0  0  0  0  0  0  0  0
    1.4338   -2.5086    0.0000 N   0  0  0  0  0  0  0  0  0  0  0  0
    2.1483   -2.9211    0.0000 C   0  0  0  0  0  0  0  0  0  0  0  0
    2.8628   -2.5086    0.0000 C   0  0  0  0  0  0  0  0  0  0  0  0
    3.5772   -2.9211    0.0000 C   0  0  0  0  0  0  0  0  0  0  0  0
    4.2917   -2.5086    0.0000 C   0  0  0  0  0  0  0  0  0  0  0  0
    5.0062   -2.9211    0.0000 C   0  0  0  0  0  0  0  0  0  0  0  0
    5.0062   -3.7461    0.0000 C   0  0  0  0  0  0  0  0  0  0  0  0
    4.2917   -4.1586    0.0000 C   0  0  0  0  0  0  0  0  0  0  0  0
    3.5772   -3.7461    0.0000 N   0  0  0  0  0  0  0  0  0  0  0  0
   -1.8366   -3.4441    0.0000 H   0  0  0  0  0  0  0  0  0  0  0  0
   -2.1385   -4.5711    0.0000 H   0  0  0  0  0  0  0  0  0  0  0  0
   -1.0116   -4.8731    0.0000 H   0  0  0  0  0  0  0  0  0  0  0  0
   -0.7096   -4.5711    0.0000 H   0  0  0  0  0  0  0  0  0  0  0  0
    0.1481   -4.9711    0.0000 H   0  0  0  0  0  0  0  0  0  0  0  0
    0.6369   -4.6889    0.0000 H   0  0  0  0  0  0  0  0  0  0  0  0
    0.0049   -3.3336    0.0000 H   0  0  0  0  0  0  0  0  0  0  0  0
   -1.4241   -3.3336    0.0000 H   0  0  0  0  0  0  0  0  0  0  0  0
   -2.1993   -2.2264    0.0000 H   0  0  0  0  0  0  0  0  0  0  0  0
   -2.1993   -2.7908    0.0000 H   0  0  0  0  0  0  0  0  0  0  0  0
   -1.5948   -0.8765    0.0000 H   0  0  0  0  0  0  0  0  0  0  0  0
   -2.0834   -1.1877    0.0000 H   0  0  0  0  0  0  0  0  0  0  0  0
    0.0049   -0.8586    0.0000 H   0  0  0  0  0  0  0  0  0  0  0  0
   -0.1262    0.1373    0.0000 H   0  0  0  0  0  0  0  0  0  0  0  0
   -1.1221    0.2684    0.0000 H   0  0  0  0  0  0  0  0  0  0  0  0
   -1.5065   -0.6596    0.0000 H   0  0  0  0  0  0  0  0  0  0  0  0
    0.7801   -1.9658    0.0000 H   0  0  0  0  0  0  0  0  0  0  0  0
    0.7801   -1.4014    0.0000 H   0  0  0  0  0  0  0  0  0  0  0  0
   -0.7096   -2.0961    0.0000 H   0  0  0  0  0  0  0  0  0  0  0  0
    1.9053   -1.8316    0.0000 H   0  0  0  0  0  0  0  0  0  0  0  0
    1.7780   -3.6584    0.0000 H   0  0  0  0  0  0  0  0  0  0  0  0
    2.5186   -3.6584    0.0000 H   0  0  0  0  0  0  0  0  0  0  0  0
    3.2330   -1.7714    0.0000 H   0  0  0  0  0  0  0  0  0  0  0  0
    2.4925   -1.7714    0.0000 H   0  0  0  0  0  0  0  0  0  0  0  0
    4.2917   -1.6836    0.0000 H   0  0  0  0  0  0  0  0  0  0  0  0
    5.7207   -2.5086    0.0000 H   0  0  0  0  0  0  0  0  0  0  0  0
    5.7207   -4.1586    0.0000 H   0  0  0  0  0  0  0  0  0  0  0  0
    4.2917   -4.9836    0.0000 H   0  0  0  0  0  0  0  0  0  0  0  0
  1  2  1  0  0  0  0
  2  3  1  0  0  0  0
  2  4  1  0  0  0  0
  4  5  1  0  0  0  0
  5  6  1  0  0  0  0
  6  7  1  0  0  0  0
  7  8  1  0  0  0  0
  7  9  1  0  0  0  0
  9 10  1  0  0  0  0
  4 10  1  0  0  0  0
 10 11  1  0  0  0  0
 11 12  2  0  0  0  0
 11 13  1  0  0  0  0
 13 14  1  0  0  0  0
 14 15  1  0  0  0  0
 15 16  1  0  0  0  0
 16 17  4  0  0  0  0
 17 18  4  0  0  0  0
 18 19  4  0  0  0  0
 19 20  4  0  0  0  0
 20 21  4  0  0  0  0
 16 21  4  0  0  0  0
  1 22  1  0  0  0  0
  1 23  1  0  0  0  0
  1 24  1  0  0  0  0
  2 25  1  0  0  0  0
  3 26  1  0  0  0  0
  3 27  1  0  0  0  0
  3 28  1  0  0  0  0
  4 29  1  0  0  0  0
  5 30  1  0  0  0  0
  5 31  1  0  0  0  0
  6 32  1  0  0  0  0
  6 33  1  0  0  0  0
  7 34  1  0  0  0  0
  8 35  1  0  0  0  0
  8 36  1  0  0  0  0
  8 37  1  0  0  0  0
  9 38  1  0  0  0  0
  9 39  1  0  0  0  0
 10 40  1  0  0  0  0
 13 41  1  0  0  0  0
 14 42  1  0  0  0  0
 14 43  1  0  0  0  0
 15 44  1  0  0  0  0
 15 45  1  0  0  0  0
 17 46  1  0  0  0  0
 18 47  1  0  0  0  0
 19 48  1  0  0  0  0
 20 49  1  0  0  0  0
M  END
>  <InChIKey>
WXABJFUNSDXVNH-UHFFFAOYSA-N

>  <UN GHS>
2B

>  <CASRN>
847565-09-7

> <Outcome>
1

>  <Index>
888

>  <StandardizerResult>
Dearomatize (ID: Dearomatize)
Clear Stereo (ID: ClearStereo)
Wedge Clean (ID: WedgeClean)
Mesomerize (ID: Mesomerize)
Tautomerize (ID: Tautomerize)
Aromatize (ID: Aromatize)
Add Explicit Hydrogens (ID: AddExplicitH)
Neutralize (ID: Neutralize)
Clean 2D (ID: Clean2D)

> <knn Distance>


> <CpId>
888

$$$$
889
  Mrv1532301301811342D          

 12 11  0  0  0  0            999 V2000
    2.0632   -0.7132    0.0000 C   0  0  0  0  0  0  0  0  0  0  0  0
    1.2382   -0.7132    0.0000 C   0  0  0  0  0  0  0  0  0  0  0  0
    0.8257    0.0013    0.0000 S   0  0  0  0  0  0  0  0  0  0  0  0
    0.0007    0.0013    0.0000 C   0  0  0  0  0  0  0  0  0  0  0  0
    2.0632   -1.5382    0.0000 H   0  0  0  0  0  0  0  0  0  0  0  0
    2.8882   -0.7132    0.0000 H   0  0  0  0  0  0  0  0  0  0  0  0
    2.0632    0.1118    0.0000 H   0  0  0  0  0  0  0  0  0  0  0  0
    0.5490   -1.1666    0.0000 H   0  0  0  0  0  0  0  0  0  0  0  0
    1.1903   -1.5368    0.0000 H   0  0  0  0  0  0  0  0  0  0  0  0
    0.0007    0.8263    0.0000 H   0  0  0  0  0  0  0  0  0  0  0  0
   -0.8243    0.0013    0.0000 H   0  0  0  0  0  0  0  0  0  0  0  0
    0.0007   -0.8237    0.0000 H   0  0  0  0  0  0  0  0  0  0  0  0
  1  2  1  0  0  0  0
  2  3  1  0  0  0  0
  3  4  1  0  0  0  0
  1  5  1  0  0  0  0
  1  6  1  0  0  0  0
  1  7  1  0  0  0  0
  2  8  1  0  0  0  0
  2  9  1  0  0  0  0
  4 10  1  0  0  0  0
  4 11  1  0  0  0  0
  4 12  1  0  0  0  0
M  END
>  <InChIKey>
WXEHBUMAEPOYKP-UHFFFAOYSA-N

>  <UN GHS>
2A

>  <CASRN>
624-89-5

> <Outcome>
1

>  <Index>
889

>  <StandardizerResult>
Clear Stereo (ID: ClearStereo)
Wedge Clean (ID: WedgeClean)
Mesomerize (ID: Mesomerize)
Tautomerize (ID: Tautomerize)
Add Explicit Hydrogens (ID: AddExplicitH)
Neutralize (ID: Neutralize)
Clean 2D (ID: Clean2D)

> <knn Distance>


> <CpId>
889

$$$$
890
  Mrv1532301301811342D          

 48 47  0  0  0  0            999 V2000
    3.7183   -3.1314    0.0000 C   0  0  0  0  0  0  0  0  0  0  0  0
    3.0038   -2.7189    0.0000 C   0  0  0  0  0  0  0  0  0  0  0  0
    2.2893   -3.1314    0.0000 C   0  0  0  0  0  0  0  0  0  0  0  0
    2.2893   -3.9564    0.0000 C   0  0  0  0  0  0  0  0  0  0  0  0
    1.5749   -2.7189    0.0000 N   0  0  0  0  0  0  0  0  0  0  0  0
    1.5749   -1.8939    0.0000 O   0  0  0  0  0  0  0  0  0  0  0  0
    0.8604   -1.4814    0.0000 Si  0  0  0  0  0  0  0  0  0  0  0  0
    0.1459   -1.0689    0.0000 O   0  0  0  0  0  0  0  0  0  0  0  0
   -0.5685   -1.4814    0.0000 N   0  0  0  0  0  0  0  0  0  0  0  0
   -0.5685   -2.3064    0.0000 C   0  0  0  0  0  0  0  0  0  0  0  0
   -1.2830   -2.7189    0.0000 C   0  0  0  0  0  0  0  0  0  0  0  0
    0.1459   -2.7189    0.0000 C   0  0  0  0  0  0  0  0  0  0  0  0
    0.1459   -3.5439    0.0000 C   0  0  0  0  0  0  0  0  0  0  0  0
    1.2729   -0.7669    0.0000 O   0  0  0  0  0  0  0  0  0  0  0  0
    0.8604   -0.0525    0.0000 N   0  0  0  0  0  0  0  0  0  0  0  0
    0.0354   -0.0525    0.0000 C   0  0  0  0  0  0  0  0  0  0  0  0
   -0.3771    0.6620    0.0000 C   0  0  0  0  0  0  0  0  0  0  0  0
   -0.3771   -0.7669    0.0000 C   0  0  0  0  0  0  0  0  0  0  0  0
   -1.2021   -0.7669    0.0000 C   0  0  0  0  0  0  0  0  0  0  0  0
    0.4479   -2.1959    0.0000 C   0  0  0  0  0  0  0  0  0  0  0  0
    0.8604   -2.9104    0.0000 C   0  0  0  0  0  0  0  0  0  0  0  0
    3.3058   -3.8459    0.0000 H   0  0  0  0  0  0  0  0  0  0  0  0
    4.4327   -3.5439    0.0000 H   0  0  0  0  0  0  0  0  0  0  0  0
    4.1308   -2.4169    0.0000 H   0  0  0  0  0  0  0  0  0  0  0  0
    3.3741   -1.9817    0.0000 H   0  0  0  0  0  0  0  0  0  0  0  0
    2.6335   -1.9817    0.0000 H   0  0  0  0  0  0  0  0  0  0  0  0
    1.4643   -3.9564    0.0000 H   0  0  0  0  0  0  0  0  0  0  0  0
    2.2893   -4.7814    0.0000 H   0  0  0  0  0  0  0  0  0  0  0  0
    3.1143   -3.9564    0.0000 H   0  0  0  0  0  0  0  0  0  0  0  0
   -1.6955   -2.0044    0.0000 H   0  0  0  0  0  0  0  0  0  0  0  0
   -1.9975   -3.1314    0.0000 H   0  0  0  0  0  0  0  0  0  0  0  0
   -0.8705   -3.4334    0.0000 H   0  0  0  0  0  0  0  0  0  0  0  0
   -0.5685   -3.1314    0.0000 H   0  0  0  0  0  0  0  0  0  0  0  0
   -0.0676   -1.9220    0.0000 H   0  0  0  0  0  0  0  0  0  0  0  0
   -0.5468   -3.9919    0.0000 H   0  0  0  0  0  0  0  0  0  0  0  0
    0.2290   -4.3647    0.0000 H   0  0  0  0  0  0  0  0  0  0  0  0
    0.9144   -3.8439    0.0000 H   0  0  0  0  0  0  0  0  0  0  0  0
    0.3374    1.0745    0.0000 H   0  0  0  0  0  0  0  0  0  0  0  0
   -0.7896    1.3765    0.0000 H   0  0  0  0  0  0  0  0  0  0  0  0
   -1.0916    0.2495    0.0000 H   0  0  0  0  0  0  0  0  0  0  0  0
   -0.7896   -0.0525    0.0000 H   0  0  0  0  0  0  0  0  0  0  0  0
    0.4198   -0.5534    0.0000 H   0  0  0  0  0  0  0  0  0  0  0  0
   -1.6501   -0.0742    0.0000 H   0  0  0  0  0  0  0  0  0  0  0  0
   -2.0229   -0.8501    0.0000 H   0  0  0  0  0  0  0  0  0  0  0  0
   -1.5021   -1.5354    0.0000 H   0  0  0  0  0  0  0  0  0  0  0  0
    1.2729   -2.1959    0.0000 H   0  0  0  0  0  0  0  0  0  0  0  0
    1.3593   -3.5674    0.0000 H   0  0  0  0  0  0  0  0  0  0  0  0
    1.6409   -3.1775    0.0000 H   0  0  0  0  0  0  0  0  0  0  0  0
  1  2  1  0  0  0  0
  2  3  1  0  0  0  0
  3  4  1  0  0  0  0
  3  5  2  0  0  0  0
  5  6  1  4  0  0  0
  6  7  1  0  0  0  0
  7  8  1  0  0  0  0
  9  8  1  4  0  0  0
  9 10  2  0  0  0  0
 10 11  1  0  0  0  0
 10 12  1  0  0  0  0
 12 13  1  0  0  0  0
  7 14  1  0  0  0  0
 15 14  1  4  0  0  0
 15 16  2  0  0  0  0
 16 17  1  0  0  0  0
 16 18  1  0  0  0  0
 18 19  1  0  0  0  0
  7 20  1  0  0  0  0
 20 21  2  0  0  0  0
  1 22  1  0  0  0  0
  1 23  1  0  0  0  0
  1 24  1  0  0  0  0
  2 25  1  0  0  0  0
  2 26  1  0  0  0  0
  4 27  1  0  0  0  0
  4 28  1  0  0  0  0
  4 29  1  0  0  0  0
 11 30  1  0  0  0  0
 11 31  1  0  0  0  0
 11 32  1  0  0  0  0
 12 33  1  0  0  0  0
 12 34  1  0  0  0  0
 13 35  1  0  0  0  0
 13 36  1  0  0  0  0
 13 37  1  0  0  0  0
 17 38  1  0  0  0  0
 17 39  1  0  0  0  0
 17 40  1  0  0  0  0
 18 41  1  0  0  0  0
 18 42  1  0  0  0  0
 19 43  1  0  0  0  0
 19 44  1  0  0  0  0
 19 45  1  0  0  0  0
 20 46  1  0  0  0  0
 21 47  1  0  0  0  0
 21 48  1  0  0  0  0
M  END
>  <InChIKey>
WXWYJCSIHQKADM-ZNAKCYKMSA-N

>  <UN GHS>
2A

>  <CASRN>
2224-33-1

> <Outcome>
1

>  <Index>
890

>  <StandardizerResult>
Clear Stereo (ID: ClearStereo)
Wedge Clean (ID: WedgeClean)
Mesomerize (ID: Mesomerize)
Tautomerize (ID: Tautomerize)
Add Explicit Hydrogens (ID: AddExplicitH)
Neutralize (ID: Neutralize)
Clean 2D (ID: Clean2D)

> <knn Distance>


> <CpId>
890

$$$$
895
  Mrv1532301301811342D          

 37 36  0  0  0  0            999 V2000
    2.2018    3.0905    0.0000 C   0  0  0  0  0  0  0  0  0  0  0  0
    1.4874    2.6780    0.0000 C   0  0  0  0  0  0  0  0  0  0  0  0
    1.4874    1.8530    0.0000 O   0  0  0  0  0  0  0  0  0  0  0  0
    0.7729    1.4405    0.0000 Si  0  0  0  0  0  0  0  0  0  0  0  0
    0.0584    1.0280    0.0000 C   0  0  0  0  0  0  0  0  0  0  0  0
   -0.6560    1.4405    0.0000 C   0  0  0  0  0  0  0  0  0  0  0  0
   -1.3705    1.0280    0.0000 C   0  0  0  0  0  0  0  0  0  0  0  0
   -1.3705    0.2030    0.0000 N   0  0  0  0  0  0  0  0  0  0  0  0
    0.3604    2.1550    0.0000 O   0  0  0  0  0  0  0  0  0  0  0  0
   -0.4646    2.1550    0.0000 C   0  0  0  0  0  0  0  0  0  0  0  0
   -0.8771    2.8694    0.0000 C   0  0  0  0  0  0  0  0  0  0  0  0
    1.1854    0.7260    0.0000 O   0  0  0  0  0  0  0  0  0  0  0  0
    0.7729    0.0116    0.0000 C   0  0  0  0  0  0  0  0  0  0  0  0
   -0.0521    0.0116    0.0000 C   0  0  0  0  0  0  0  0  0  0  0  0
    2.6143    2.3760    0.0000 H   0  0  0  0  0  0  0  0  0  0  0  0
    2.9163    3.5030    0.0000 H   0  0  0  0  0  0  0  0  0  0  0  0
    1.7893    3.8050    0.0000 H   0  0  0  0  0  0  0  0  0  0  0  0
    1.0340    3.3673    0.0000 H   0  0  0  0  0  0  0  0  0  0  0  0
    0.6638    2.7260    0.0000 H   0  0  0  0  0  0  0  0  0  0  0  0
   -0.3118    0.2908    0.0000 H   0  0  0  0  0  0  0  0  0  0  0  0
    0.4287    0.2908    0.0000 H   0  0  0  0  0  0  0  0  0  0  0  0
   -1.3106    1.9427    0.0000 H   0  0  0  0  0  0  0  0  0  0  0  0
    0.1062    1.7562    0.0000 H   0  0  0  0  0  0  0  0  0  0  0  0
   -2.1339    1.3409    0.0000 H   0  0  0  0  0  0  0  0  0  0  0  0
   -2.1527    0.7657    0.0000 H   0  0  0  0  0  0  0  0  0  0  0  0
   -1.4687   -0.6161    0.0000 H   0  0  0  0  0  0  0  0  0  0  0  0
   -0.6482   -0.1956    0.0000 H   0  0  0  0  0  0  0  0  0  0  0  0
    0.1674    2.6853    0.0000 H   0  0  0  0  0  0  0  0  0  0  0  0
   -0.3213    2.9674    0.0000 H   0  0  0  0  0  0  0  0  0  0  0  0
   -0.7694    3.6874    0.0000 H   0  0  0  0  0  0  0  0  0  0  0  0
   -1.6248    3.2181    0.0000 H   0  0  0  0  0  0  0  0  0  0  0  0
   -1.4345    2.2612    0.0000 H   0  0  0  0  0  0  0  0  0  0  0  0
    0.8209   -0.8120    0.0000 H   0  0  0  0  0  0  0  0  0  0  0  0
    1.4622   -0.4418    0.0000 H   0  0  0  0  0  0  0  0  0  0  0  0
   -0.2964   -0.7764    0.0000 H   0  0  0  0  0  0  0  0  0  0  0  0
    0.4373   -0.6526    0.0000 H   0  0  0  0  0  0  0  0  0  0  0  0
    0.0693    0.8276    0.0000 H   0  0  0  0  0  0  0  0  0  0  0  0
  1  2  1  0  0  0  0
  2  3  1  0  0  0  0
  3  4  1  0  0  0  0
  4  5  1  0  0  0  0
  5  6  1  0  0  0  0
  6  7  1  0  0  0  0
  7  8  1  0  0  0  0
  4  9  1  0  0  0  0
  9 10  1  0  0  0  0
 10 11  1  0  0  0  0
  4 12  1  0  0  0  0
 12 13  1  0  0  0  0
 13 14  1  0  0  0  0
  1 15  1  0  0  0  0
  1 16  1  0  0  0  0
  1 17  1  0  0  0  0
  2 18  1  0  0  0  0
  2 19  1  0  0  0  0
  5 20  1  0  0  0  0
  5 21  1  0  0  0  0
  6 22  1  0  0  0  0
  6 23  1  0  0  0  0
  7 24  1  0  0  0  0
  7 25  1  0  0  0  0
  8 26  1  0  0  0  0
  8 27  1  0  0  0  0
 10 28  1  0  0  0  0
 10 29  1  0  0  0  0
 11 30  1  0  0  0  0
 11 31  1  0  0  0  0
 11 32  1  0  0  0  0
 13 33  1  0  0  0  0
 13 34  1  0  0  0  0
 14 35  1  0  0  0  0
 14 36  1  0  0  0  0
 14 37  1  0  0  0  0
M  END
>  <InChIKey>
WYTZZXDRDKSJID-UHFFFAOYSA-N

>  <UN GHS>
1

>  <CASRN>
919-30-2

> <Outcome>
1

>  <Index>
895

>  <StandardizerResult>
Clear Stereo (ID: ClearStereo)
Wedge Clean (ID: WedgeClean)
Mesomerize (ID: Mesomerize)
Tautomerize (ID: Tautomerize)
Add Explicit Hydrogens (ID: AddExplicitH)
Neutralize (ID: Neutralize)
Clean 2D (ID: Clean2D)

> <knn Distance>


> <CpId>
895

$$$$
896
  Mrv1532301301811342D          

 16 16  0  0  0  0            999 V2000
    0.7145    2.0625    0.0000 N   0  0  0  0  0  0  0  0  0  0  0  0
    0.7145    1.2375    0.0000 C   0  0  0  0  0  0  0  0  0  0  0  0
    1.4289    0.8250    0.0000 C   0  0  0  0  0  0  0  0  0  0  0  0
    1.4289    0.0000    0.0000 C   0  0  0  0  0  0  0  0  0  0  0  0
    0.7145   -0.4125    0.0000 C   0  0  0  0  0  0  0  0  0  0  0  0
   -0.0000    0.0000    0.0000 C   0  0  0  0  0  0  0  0  0  0  0  0
   -0.7145   -0.4125    0.0000 N   0  0  0  0  0  0  0  0  0  0  0  0
   -0.0000    0.8250    0.0000 C   0  0  0  0  0  0  0  0  0  0  0  0
    1.4289    2.4750    0.0000 H   0  0  0  0  0  0  0  0  0  0  0  0
   -0.0000    2.4750    0.0000 H   0  0  0  0  0  0  0  0  0  0  0  0
    2.1434    1.2375    0.0000 H   0  0  0  0  0  0  0  0  0  0  0  0
    2.1434   -0.4125    0.0000 H   0  0  0  0  0  0  0  0  0  0  0  0
    0.7145   -1.2375    0.0000 H   0  0  0  0  0  0  0  0  0  0  0  0
   -1.4289    0.0000    0.0000 H   0  0  0  0  0  0  0  0  0  0  0  0
   -0.7145   -1.2375    0.0000 H   0  0  0  0  0  0  0  0  0  0  0  0
   -0.7145    1.2375    0.0000 H   0  0  0  0  0  0  0  0  0  0  0  0
  1  2  1  0  0  0  0
  2  3  4  0  0  0  0
  3  4  4  0  0  0  0
  4  5  4  0  0  0  0
  5  6  4  0  0  0  0
  6  7  1  0  0  0  0
  6  8  4  0  0  0  0
  2  8  4  0  0  0  0
  1  9  1  0  0  0  0
  1 10  1  0  0  0  0
  3 11  1  0  0  0  0
  4 12  1  0  0  0  0
  5 13  1  0  0  0  0
  7 14  1  0  0  0  0
  7 15  1  0  0  0  0
  8 16  1  0  0  0  0
M  END
>  <InChIKey>
WZCQRUWWHSTZEM-UHFFFAOYSA-N

>  <UN GHS>
2A

>  <CASRN>
108-45-2

> <Outcome>
1

>  <Index>
896

>  <StandardizerResult>
Dearomatize (ID: Dearomatize)
Clear Stereo (ID: ClearStereo)
Wedge Clean (ID: WedgeClean)
Mesomerize (ID: Mesomerize)
Tautomerize (ID: Tautomerize)
Aromatize (ID: Aromatize)
Add Explicit Hydrogens (ID: AddExplicitH)
Neutralize (ID: Neutralize)
Clean 2D (ID: Clean2D)

> <knn Distance>


> <CpId>
896

$$$$
897
  Mrv1532301301811342D          

 12 12  0  0  0  0            999 V2000
    0.7145    2.0625    0.0000 S   0  0  0  0  0  0  0  0  0  0  0  0
    0.7145    1.2375    0.0000 C   0  0  0  0  0  0  0  0  0  0  0  0
    1.4289    0.8250    0.0000 N   0  0  0  0  0  0  0  0  0  0  0  0
    1.4289   -0.0000    0.0000 C   0  0  0  0  0  0  0  0  0  0  0  0
    2.1434   -0.4125    0.0000 S   0  0  0  0  0  0  0  0  0  0  0  0
    0.7145   -0.4125    0.0000 N   0  0  0  0  0  0  0  0  0  0  0  0
   -0.0000   -0.0000    0.0000 C   0  0  0  0  0  0  0  0  0  0  0  0
   -0.7145   -0.4125    0.0000 S   0  0  0  0  0  0  0  0  0  0  0  0
   -0.0000    0.8250    0.0000 N   0  0  0  0  0  0  0  0  0  0  0  0
    2.1434    1.2375    0.0000 H   0  0  0  0  0  0  0  0  0  0  0  0
    0.7145   -1.2375    0.0000 H   0  0  0  0  0  0  0  0  0  0  0  0
   -0.7145    1.2375    0.0000 H   0  0  0  0  0  0  0  0  0  0  0  0
  1  2  2  0  0  0  0
  2  3  1  0  0  0  0
  3  4  1  0  0  0  0
  4  5  2  0  0  0  0
  4  6  1  0  0  0  0
  6  7  1  0  0  0  0
  7  8  2  0  0  0  0
  7  9  1  0  0  0  0
  2  9  1  0  0  0  0
  3 10  1  0  0  0  0
  6 11  1  0  0  0  0
  9 12  1  0  0  0  0
M  END
>  <InChIKey>
WZRRRFSJFQTGGB-UHFFFAOYSA-M

>  <UN GHS>
2A

>  <CASRN>
17766-26-6

> <Outcome>
1

>  <Index>
897

>  <StandardizerResult>
Dearomatize (ID: Dearomatize)
Clear Stereo (ID: ClearStereo)
Wedge Clean (ID: WedgeClean)
Mesomerize (ID: Mesomerize)
Tautomerize (ID: Tautomerize)
Add Explicit Hydrogens (ID: AddExplicitH)
Neutralize (ID: Neutralize)
Clean 2D (ID: Clean2D)

> <knn Distance>


> <CpId>
897

$$$$
902
  Mrv1532301301811342D          

 18 18  0  0  0  0            999 V2000
    0.7145    1.2375    0.0000 C   0  0  0  0  0  0  0  0  0  0  0  0
    1.4289    0.8250    0.0000 C   0  0  0  0  0  0  0  0  0  0  0  0
    1.4289   -0.0000    0.0000 C   0  0  0  0  0  0  0  0  0  0  0  0
    0.7145   -0.4125    0.0000 C   0  0  0  0  0  0  0  0  0  0  0  0
    0.0000    0.0000    0.0000 C   0  0  0  0  0  0  0  0  0  0  0  0
    0.0000    0.8250    0.0000 C   0  0  0  0  0  0  0  0  0  0  0  0
    1.0847    1.9747    0.0000 H   0  0  0  0  0  0  0  0  0  0  0  0
    0.3442    1.9747    0.0000 H   0  0  0  0  0  0  0  0  0  0  0  0
    2.2525    0.8730    0.0000 H   0  0  0  0  0  0  0  0  0  0  0  0
    1.8823    1.5143    0.0000 H   0  0  0  0  0  0  0  0  0  0  0  0
    1.8823   -0.6893    0.0000 H   0  0  0  0  0  0  0  0  0  0  0  0
    2.2525   -0.0480    0.0000 H   0  0  0  0  0  0  0  0  0  0  0  0
    0.3442   -1.1497    0.0000 H   0  0  0  0  0  0  0  0  0  0  0  0
    1.0847   -1.1497    0.0000 H   0  0  0  0  0  0  0  0  0  0  0  0
   -0.8236   -0.0480    0.0000 H   0  0  0  0  0  0  0  0  0  0  0  0
   -0.4533   -0.6893    0.0000 H   0  0  0  0  0  0  0  0  0  0  0  0
   -0.4533    1.5143    0.0000 H   0  0  0  0  0  0  0  0  0  0  0  0
   -0.8236    0.8730    0.0000 H   0  0  0  0  0  0  0  0  0  0  0  0
  1  2  1  0  0  0  0
  2  3  1  0  0  0  0
  3  4  1  0  0  0  0
  4  5  1  0  0  0  0
  5  6  1  0  0  0  0
  1  6  1  0  0  0  0
  1  7  1  0  0  0  0
  1  8  1  0  0  0  0
  2  9  1  0  0  0  0
  2 10  1  0  0  0  0
  3 11  1  0  0  0  0
  3 12  1  0  0  0  0
  4 13  1  0  0  0  0
  4 14  1  0  0  0  0
  5 15  1  0  0  0  0
  5 16  1  0  0  0  0
  6 17  1  0  0  0  0
  6 18  1  0  0  0  0
M  END
>  <InChIKey>
XDTMQSROBMDMFD-UHFFFAOYSA-N

>  <UN GHS>
1

>  <CASRN>
68411-76-7

> <Outcome>
1

>  <Index>
902

>  <StandardizerResult>
Clear Stereo (ID: ClearStereo)
Wedge Clean (ID: WedgeClean)
Mesomerize (ID: Mesomerize)
Tautomerize (ID: Tautomerize)
Add Explicit Hydrogens (ID: AddExplicitH)
Neutralize (ID: Neutralize)
Clean 2D (ID: Clean2D)

> <knn Distance>


> <CpId>
902

$$$$
904
  Mrv1532301301811342D          

 26 26  0  0  0  0            999 V2000
    0.8042    2.9658    0.0000 C   0  0  0  0  0  0  0  0  0  0  0  0
    0.8042    2.1408    0.0000 C   0  0  0  0  0  0  0  0  0  0  0  0
   -0.0208    2.1408    0.0000 C   0  0  0  0  0  0  0  0  0  0  0  0
    1.6292    2.1408    0.0000 C   0  0  0  0  0  0  0  0  0  0  0  0
    0.8042    1.3158    0.0000 C   0  0  0  0  0  0  0  0  0  0  0  0
    1.5187    0.9033    0.0000 C   0  0  0  0  0  0  0  0  0  0  0  0
    1.5187    0.0783    0.0000 C   0  0  0  0  0  0  0  0  0  0  0  0
    0.8042   -0.3342    0.0000 C   0  0  0  0  0  0  0  0  0  0  0  0
    0.8042   -1.1592    0.0000 O   0  0  0  0  0  0  0  0  0  0  0  0
    0.0897    0.0783    0.0000 C   0  0  0  0  0  0  0  0  0  0  0  0
   -0.6248   -0.3342    0.0000 O   0  0  0  0  0  0  0  0  0  0  0  0
    0.0897    0.9033    0.0000 C   0  0  0  0  0  0  0  0  0  0  0  0
    1.6292    2.9658    0.0000 H   0  0  0  0  0  0  0  0  0  0  0  0
    0.8042    3.7908    0.0000 H   0  0  0  0  0  0  0  0  0  0  0  0
   -0.0208    2.9658    0.0000 H   0  0  0  0  0  0  0  0  0  0  0  0
   -0.7830    2.4565    0.0000 H   0  0  0  0  0  0  0  0  0  0  0  0
   -0.6042    1.5574    0.0000 H   0  0  0  0  0  0  0  0  0  0  0  0
    0.2949    1.3786    0.0000 H   0  0  0  0  0  0  0  0  0  0  0  0
    1.3135    1.3786    0.0000 H   0  0  0  0  0  0  0  0  0  0  0  0
    2.2125    1.5574    0.0000 H   0  0  0  0  0  0  0  0  0  0  0  0
    2.3914    2.4565    0.0000 H   0  0  0  0  0  0  0  0  0  0  0  0
    2.2761    0.5763    0.0000 H   0  0  0  0  0  0  0  0  0  0  0  0
    1.9517   -0.6239    0.0000 H   0  0  0  0  0  0  0  0  0  0  0  0
    0.0897   -1.5717    0.0000 H   0  0  0  0  0  0  0  0  0  0  0  0
   -1.3392    0.0783    0.0000 H   0  0  0  0  0  0  0  0  0  0  0  0
   -0.6677    0.5763    0.0000 H   0  0  0  0  0  0  0  0  0  0  0  0
  1  2  1  0  0  0  0
  2  3  1  0  0  0  0
  2  4  1  0  0  0  0
  2  5  1  0  0  0  0
  5  6  4  0  0  0  0
  6  7  4  0  0  0  0
  7  8  4  0  0  0  0
  8  9  1  0  0  0  0
  8 10  4  0  0  0  0
 10 11  1  0  0  0  0
 10 12  4  0  0  0  0
  5 12  4  0  0  0  0
  1 13  1  0  0  0  0
  1 14  1  0  0  0  0
  1 15  1  0  0  0  0
  3 16  1  0  0  0  0
  3 17  1  0  0  0  0
  3 18  1  0  0  0  0
  4 19  1  0  0  0  0
  4 20  1  0  0  0  0
  4 21  1  0  0  0  0
  6 22  1  0  0  0  0
  7 23  1  0  0  0  0
  9 24  1  0  0  0  0
 11 25  1  0  0  0  0
 12 26  1  0  0  0  0
M  END
>  <InChIKey>
XESZUVZBAMCAEJ-UHFFFAOYSA-N

>  <UN GHS>
1

>  <CASRN>
98-29-3

> <Outcome>
1

>  <Index>
904

>  <StandardizerResult>
Dearomatize (ID: Dearomatize)
Clear Stereo (ID: ClearStereo)
Wedge Clean (ID: WedgeClean)
Mesomerize (ID: Mesomerize)
Tautomerize (ID: Tautomerize)
Aromatize (ID: Aromatize)
Add Explicit Hydrogens (ID: AddExplicitH)
Neutralize (ID: Neutralize)
Clean 2D (ID: Clean2D)

> <knn Distance>


> <CpId>
904

$$$$
906
  Mrv1532301301811342D          

 15 14  0  0  0  0            999 V2000
    2.4744   -1.4300    0.0000 N   0  0  0  0  0  0  0  0  0  0  0  0
    2.0619   -0.7155    0.0000 C   0  0  0  0  0  0  0  0  0  0  0  0
    1.2369   -0.7155    0.0000 C   0  0  0  0  0  0  0  0  0  0  0  0
    0.8244   -0.0010    0.0000 C   0  0  0  0  0  0  0  0  0  0  0  0
   -0.0006   -0.0010    0.0000 N   0  0  0  0  0  0  0  0  0  0  0  0
    2.0619   -2.1444    0.0000 H   0  0  0  0  0  0  0  0  0  0  0  0
    3.2994   -1.4300    0.0000 H   0  0  0  0  0  0  0  0  0  0  0  0
    2.7512   -0.2621    0.0000 H   0  0  0  0  0  0  0  0  0  0  0  0
    2.1099    0.1081    0.0000 H   0  0  0  0  0  0  0  0  0  0  0  0
    0.5476   -1.1688    0.0000 H   0  0  0  0  0  0  0  0  0  0  0  0
    1.1889   -1.5391    0.0000 H   0  0  0  0  0  0  0  0  0  0  0  0
    1.5137    0.4523    0.0000 H   0  0  0  0  0  0  0  0  0  0  0  0
    0.8724    0.8226    0.0000 H   0  0  0  0  0  0  0  0  0  0  0  0
   -0.4131    0.7135    0.0000 H   0  0  0  0  0  0  0  0  0  0  0  0
   -0.4131   -0.7155    0.0000 H   0  0  0  0  0  0  0  0  0  0  0  0
  1  2  1  0  0  0  0
  2  3  1  0  0  0  0
  3  4  1  0  0  0  0
  4  5  1  0  0  0  0
  1  6  1  0  0  0  0
  1  7  1  0  0  0  0
  2  8  1  0  0  0  0
  2  9  1  0  0  0  0
  3 10  1  0  0  0  0
  3 11  1  0  0  0  0
  4 12  1  0  0  0  0
  4 13  1  0  0  0  0
  5 14  1  0  0  0  0
  5 15  1  0  0  0  0
M  END
>  <InChIKey>
XFNJVJPLKCPIBV-UHFFFAOYSA-N

>  <UN GHS>
1

>  <CASRN>
109-76-2

> <Outcome>
1

>  <Index>
906

>  <StandardizerResult>
Clear Stereo (ID: ClearStereo)
Wedge Clean (ID: WedgeClean)
Mesomerize (ID: Mesomerize)
Tautomerize (ID: Tautomerize)
Add Explicit Hydrogens (ID: AddExplicitH)
Neutralize (ID: Neutralize)
Clean 2D (ID: Clean2D)

> <knn Distance>


> <CpId>
906

$$$$
907
  Mrv1532301301811342D          

  5  4  0  0  0  0            999 V2000
    0.8250   -0.8250    0.0000 Cl  0  0  0  0  0  0  0  0  0  0  0  0
    0.8250    0.0000    0.0000 P   0  0  0  0  0  0  0  0  0  0  0  0
    0.8250    0.8250    0.0000 Cl  0  0  0  0  0  0  0  0  0  0  0  0
    1.6500   -0.0000    0.0000 Cl  0  0  0  0  0  0  0  0  0  0  0  0
    0.0000    0.0000    0.0000 O   0  0  0  0  0  0  0  0  0  0  0  0
  1  2  1  0  0  0  0
  2  3  1  0  0  0  0
  2  4  1  0  0  0  0
  2  5  2  0  0  0  0
M  END
>  <InChIKey>
XHXFXVLFKHQFAL-UHFFFAOYSA-N

>  <UN GHS>
1

>  <CASRN>
10025-87-3

> <Outcome>
1

>  <Index>
907

>  <StandardizerResult>
Clear Stereo (ID: ClearStereo)
Wedge Clean (ID: WedgeClean)
Mesomerize (ID: Mesomerize)
Tautomerize (ID: Tautomerize)
Clean 2D (ID: Clean2D)

> <knn Distance>


> <CpId>
907

$$$$
909
  Mrv1532301301811342D          

 86 87  0  0  0  0            999 V2000
    2.7045   -5.5257    0.0000 C   0  0  0  0  0  0  0  0  0  0  0  0
    2.1742   -6.1576    0.0000 C   0  0  0  0  0  0  0  0  0  0  0  0
    1.6439   -5.5257    0.0000 C   0  0  0  0  0  0  0  0  0  0  0  0
    2.8887   -6.5701    0.0000 C   0  0  0  0  0  0  0  0  0  0  0  0
    2.8887   -7.3951    0.0000 C   0  0  0  0  0  0  0  0  0  0  0  0
    2.1742   -7.8076    0.0000 C   0  0  0  0  0  0  0  0  0  0  0  0
    1.4597   -7.3951    0.0000 C   0  0  0  0  0  0  0  0  0  0  0  0
    1.1775   -8.1704    0.0000 C   0  0  0  0  0  0  0  0  0  0  0  0
    0.6472   -7.2519    0.0000 C   0  0  0  0  0  0  0  0  0  0  0  0
    1.4597   -6.5701    0.0000 N   0  0  0  0  0  0  0  0  0  0  0  0
    3.6031   -7.8076    0.0000 O   0  0  0  0  0  0  0  0  0  0  0  0
    4.3176   -7.3951    0.0000 C   0  0  0  0  0  0  0  0  0  0  0  0
    4.3176   -6.5701    0.0000 O   0  0  0  0  0  0  0  0  0  0  0  0
    5.0321   -7.8076    0.0000 C   0  0  0  0  0  0  0  0  0  0  0  0
    5.7465   -7.3951    0.0000 C   0  0  0  0  0  0  0  0  0  0  0  0
    6.4610   -7.8076    0.0000 C   0  0  0  0  0  0  0  0  0  0  0  0
    7.1755   -7.3951    0.0000 C   0  0  0  0  0  0  0  0  0  0  0  0
    7.8900   -7.8076    0.0000 C   0  0  0  0  0  0  0  0  0  0  0  0
    8.6044   -7.3951    0.0000 C   0  0  0  0  0  0  0  0  0  0  0  0
    9.3189   -7.8076    0.0000 C   0  0  0  0  0  0  0  0  0  0  0  0
   10.0334   -7.3951    0.0000 C   0  0  0  0  0  0  0  0  0  0  0  0
   10.7478   -7.8076    0.0000 C   0  0  0  0  0  0  0  0  0  0  0  0
   10.7478   -8.6326    0.0000 O   0  0  0  0  0  0  0  0  0  0  0  0
   11.4623   -7.3951    0.0000 O   0  0  0  0  0  0  0  0  0  0  0  0
   12.1768   -7.8076    0.0000 C   0  0  0  0  0  0  0  0  0  0  0  0
   12.8912   -7.3951    0.0000 C   0  0  0  0  0  0  0  0  0  0  0  0
   13.6057   -7.8076    0.0000 C   0  0  0  0  0  0  0  0  0  0  0  0
   13.8879   -7.0324    0.0000 C   0  0  0  0  0  0  0  0  0  0  0  0
   14.4182   -7.9509    0.0000 C   0  0  0  0  0  0  0  0  0  0  0  0
   13.6057   -8.6326    0.0000 N   0  0  0  0  0  0  0  0  0  0  0  0
   12.8912   -9.0451    0.0000 C   0  0  0  0  0  0  0  0  0  0  0  0
   13.4215   -9.6771    0.0000 C   0  0  0  0  0  0  0  0  0  0  0  0
   12.3609   -9.6771    0.0000 C   0  0  0  0  0  0  0  0  0  0  0  0
   12.1768   -8.6326    0.0000 C   0  0  0  0  0  0  0  0  0  0  0  0
    3.3365   -6.0560    0.0000 H   0  0  0  0  0  0  0  0  0  0  0  0
    3.2348   -4.8937    0.0000 H   0  0  0  0  0  0  0  0  0  0  0  0
    2.0725   -4.9954    0.0000 H   0  0  0  0  0  0  0  0  0  0  0  0
    1.2849   -4.7828    0.0000 H   0  0  0  0  0  0  0  0  0  0  0  0
    0.8189   -5.5332    0.0000 H   0  0  0  0  0  0  0  0  0  0  0  0
    1.2987   -6.2749    0.0000 H   0  0  0  0  0  0  0  0  0  0  0  0
    3.6613   -6.8594    0.0000 H   0  0  0  0  0  0  0  0  0  0  0  0
    2.1742   -6.9826    0.0000 H   0  0  0  0  0  0  0  0  0  0  0  0
    2.8887   -8.2201    0.0000 H   0  0  0  0  0  0  0  0  0  0  0  0
    1.5422   -8.3379    0.0000 H   0  0  0  0  0  0  0  0  0  0  0  0
    2.0309   -8.6201    0.0000 H   0  0  0  0  0  0  0  0  0  0  0  0
    0.5886   -7.5927    0.0000 H   0  0  0  0  0  0  0  0  0  0  0  0
    0.4079   -8.4675    0.0000 H   0  0  0  0  0  0  0  0  0  0  0  0
    1.1295   -8.9940    0.0000 H   0  0  0  0  0  0  0  0  0  0  0  0
    1.0898   -6.5556    0.0000 H   0  0  0  0  0  0  0  0  0  0  0  0
    0.1727   -6.5770    0.0000 H   0  0  0  0  0  0  0  0  0  0  0  0
   -0.1576   -7.4329    0.0000 H   0  0  0  0  0  0  0  0  0  0  0  0
    1.6828   -5.7759    0.0000 H   0  0  0  0  0  0  0  0  0  0  0  0
    4.6618   -8.5449    0.0000 H   0  0  0  0  0  0  0  0  0  0  0  0
    5.4023   -8.5449    0.0000 H   0  0  0  0  0  0  0  0  0  0  0  0
    6.1168   -6.6579    0.0000 H   0  0  0  0  0  0  0  0  0  0  0  0
    5.3763   -6.6579    0.0000 H   0  0  0  0  0  0  0  0  0  0  0  0
    6.0908   -8.5449    0.0000 H   0  0  0  0  0  0  0  0  0  0  0  0
    6.8313   -8.5449    0.0000 H   0  0  0  0  0  0  0  0  0  0  0  0
    7.5457   -6.6579    0.0000 H   0  0  0  0  0  0  0  0  0  0  0  0
    6.8052   -6.6579    0.0000 H   0  0  0  0  0  0  0  0  0  0  0  0
    7.5197   -8.5449    0.0000 H   0  0  0  0  0  0  0  0  0  0  0  0
    8.2602   -8.5449    0.0000 H   0  0  0  0  0  0  0  0  0  0  0  0
    8.9747   -6.6579    0.0000 H   0  0  0  0  0  0  0  0  0  0  0  0
    8.2342   -6.6579    0.0000 H   0  0  0  0  0  0  0  0  0  0  0  0
    8.9486   -8.5449    0.0000 H   0  0  0  0  0  0  0  0  0  0  0  0
    9.6892   -8.5449    0.0000 H   0  0  0  0  0  0  0  0  0  0  0  0
   10.4036   -6.6579    0.0000 H   0  0  0  0  0  0  0  0  0  0  0  0
    9.6631   -6.6579    0.0000 H   0  0  0  0  0  0  0  0  0  0  0  0
   11.4623   -8.2201    0.0000 H   0  0  0  0  0  0  0  0  0  0  0  0
   13.2615   -6.6579    0.0000 H   0  0  0  0  0  0  0  0  0  0  0  0
   12.5210   -6.6579    0.0000 H   0  0  0  0  0  0  0  0  0  0  0  0
   14.4690   -7.6180    0.0000 H   0  0  0  0  0  0  0  0  0  0  0  0
   14.6653   -6.7561    0.0000 H   0  0  0  0  0  0  0  0  0  0  0  0
   13.9692   -6.2114    0.0000 H   0  0  0  0  0  0  0  0  0  0  0  0
   13.9789   -8.6492    0.0000 H   0  0  0  0  0  0  0  0  0  0  0  0
   14.8991   -8.6212    0.0000 H   0  0  0  0  0  0  0  0  0  0  0  0
   15.2204   -7.7585    0.0000 H   0  0  0  0  0  0  0  0  0  0  0  0
   13.8015   -9.4341    0.0000 H   0  0  0  0  0  0  0  0  0  0  0  0
   12.6271   -9.8997    0.0000 H   0  0  0  0  0  0  0  0  0  0  0  0
   13.2968  -10.4926    0.0000 H   0  0  0  0  0  0  0  0  0  0  0  0
   14.1131  -10.1270    0.0000 H   0  0  0  0  0  0  0  0  0  0  0  0
   11.9797   -8.9455    0.0000 H   0  0  0  0  0  0  0  0  0  0  0  0
   11.5392   -9.7497    0.0000 H   0  0  0  0  0  0  0  0  0  0  0  0
   12.1139  -10.4643    0.0000 H   0  0  0  0  0  0  0  0  0  0  0  0
   12.8912   -8.2201    0.0000 H   0  0  0  0  0  0  0  0  0  0  0  0
   11.3759   -8.8308    0.0000 H   0  0  0  0  0  0  0  0  0  0  0  0
  1  2  1  0  0  0  0
  2  3  1  0  0  0  0
  2  4  1  0  0  0  0
  4  5  1  0  0  0  0
  5  6  1  0  0  0  0
  6  7  1  0  0  0  0
  7  8  1  0  0  0  0
  7  9  1  0  0  0  0
  7 10  1  0  0  0  0
  2 10  1  0  0  0  0
  5 11  1  0  0  0  0
 11 12  1  0  0  0  0
 12 13  2  0  0  0  0
 12 14  1  0  0  0  0
 14 15  1  0  0  0  0
 15 16  1  0  0  0  0
 16 17  1  0  0  0  0
 17 18  1  0  0  0  0
 18 19  1  0  0  0  0
 19 20  1  0  0  0  0
 20 21  1  0  0  0  0
 21 22  1  0  0  0  0
 22 23  2  0  0  0  0
 22 24  1  0  0  0  0
 24 25  1  0  0  0  0
 25 26  1  0  0  0  0
 26 27  1  0  0  0  0
 27 28  1  0  0  0  0
 27 29  1  0  0  0  0
 27 30  1  0  0  0  0
 30 31  1  0  0  0  0
 31 32  1  0  0  0  0
 31 33  1  0  0  0  0
 31 34  1  0  0  0  0
 25 34  1  0  0  0  0
  1 35  1  0  0  0  0
  1 36  1  0  0  0  0
  1 37  1  0  0  0  0
  3 38  1  0  0  0  0
  3 39  1  0  0  0  0
  3 40  1  0  0  0  0
  4 41  1  0  0  0  0
  4 42  1  0  0  0  0
  5 43  1  0  0  0  0
  6 44  1  0  0  0  0
  6 45  1  0  0  0  0
  8 46  1  0  0  0  0
  8 47  1  0  0  0  0
  8 48  1  0  0  0  0
  9 49  1  0  0  0  0
  9 50  1  0  0  0  0
  9 51  1  0  0  0  0
 10 52  1  0  0  0  0
 14 53  1  0  0  0  0
 14 54  1  0  0  0  0
 15 55  1  0  0  0  0
 15 56  1  0  0  0  0
 16 57  1  0  0  0  0
 16 58  1  0  0  0  0
 17 59  1  0  0  0  0
 17 60  1  0  0  0  0
 18 61  1  0  0  0  0
 18 62  1  0  0  0  0
 19 63  1  0  0  0  0
 19 64  1  0  0  0  0
 20 65  1  0  0  0  0
 20 66  1  0  0  0  0
 21 67  1  0  0  0  0
 21 68  1  0  0  0  0
 25 69  1  0  0  0  0
 26 70  1  0  0  0  0
 26 71  1  0  0  0  0
 28 72  1  0  0  0  0
 28 73  1  0  0  0  0
 28 74  1  0  0  0  0
 29 75  1  0  0  0  0
 29 76  1  0  0  0  0
 29 77  1  0  0  0  0
 30 78  1  0  0  0  0
 32 79  1  0  0  0  0
 32 80  1  0  0  0  0
 32 81  1  0  0  0  0
 33 82  1  0  0  0  0
 33 83  1  0  0  0  0
 33 84  1  0  0  0  0
 34 85  1  0  0  0  0
 34 86  1  0  0  0  0
M  END
>  <InChIKey>
XITRBUPOXXBIJN-UHFFFAOYSA-N

>  <UN GHS>
2A

>  <CASRN>
52829-07-9

> <Outcome>
1

>  <Index>
909

>  <StandardizerResult>
Clear Stereo (ID: ClearStereo)
Wedge Clean (ID: WedgeClean)
Mesomerize (ID: Mesomerize)
Tautomerize (ID: Tautomerize)
Add Explicit Hydrogens (ID: AddExplicitH)
Neutralize (ID: Neutralize)
Clean 2D (ID: Clean2D)

> <knn Distance>


> <CpId>
909

$$$$
921
  Mrv1532301301811342D          

 68 68  0  0  0  0            999 V2000
    4.2868   -9.8997    0.0000 C   0  0  0  0  0  0  0  0  0  0  0  0
    5.0013  -10.3122    0.0000 C   0  0  0  0  0  0  0  0  0  0  0  0
    5.7158   -9.8997    0.0000 C   0  0  0  0  0  0  0  0  0  0  0  0
    6.4302  -10.3122    0.0000 C   0  0  0  0  0  0  0  0  0  0  0  0
    7.1447   -9.8997    0.0000 C   0  0  0  0  0  0  0  0  0  0  0  0
    7.8592  -10.3122    0.0000 C   0  0  0  0  0  0  0  0  0  0  0  0
    8.5736   -9.8997    0.0000 C   0  0  0  0  0  0  0  0  0  0  0  0
    9.2881  -10.3122    0.0000 C   0  0  0  0  0  0  0  0  0  0  0  0
   10.0026   -9.8997    0.0000 C   0  0  0  0  0  0  0  0  0  0  0  0
   10.7171  -10.3122    0.0000 C   0  0  0  0  0  0  0  0  0  0  0  0
   11.4315   -9.8997    0.0000 C   0  0  0  0  0  0  0  0  0  0  0  0
   12.1460  -10.3122    0.0000 C   0  0  0  0  0  0  0  0  0  0  0  0
   12.8605   -9.8997    0.0000 C   0  0  0  0  0  0  0  0  0  0  0  0
   13.5749  -10.3122    0.0000 C   0  0  0  0  0  0  0  0  0  0  0  0
   14.2894   -9.8997    0.0000 C   0  0  0  0  0  0  0  0  0  0  0  0
   15.0039  -10.3122    0.0000 C   0  0  0  0  0  0  0  0  0  0  0  0
   15.0039  -11.1372    0.0000 O   0  0  0  0  0  0  0  0  0  0  0  0
   15.7184   -9.8997    0.0000 N   0  0  0  0  0  0  0  0  0  0  0  0
   16.4328  -10.3122    0.0000 C   0  0  0  0  0  0  0  0  0  0  0  0
   17.1473   -9.8997    0.0000 C   0  0  0  0  0  0  0  0  0  0  0  0
   17.8618  -10.3122    0.0000 C   0  0  0  0  0  0  0  0  0  0  0  0
   18.5762   -9.8997    0.0000 Cl  0  0  0  0  0  0  0  0  0  0  0  0
   17.8618  -11.1372    0.0000 C   0  0  0  0  0  0  0  0  0  0  0  0
   18.5762  -11.5497    0.0000 C   0  0  0  0  0  0  0  0  0  0  0  0
   19.2907  -11.1372    0.0000 C   0  0  0  0  0  0  0  0  0  0  0  0
   17.1473  -11.5497    0.0000 C   0  0  0  0  0  0  0  0  0  0  0  0
   17.1473  -12.3747    0.0000 Cl  0  0  0  0  0  0  0  0  0  0  0  0
   16.4328  -11.1372    0.0000 C   0  0  0  0  0  0  0  0  0  0  0  0
   15.7184  -11.5497    0.0000 O   0  0  0  0  0  0  0  0  0  0  0  0
    4.6993   -9.1853    0.0000 H   0  0  0  0  0  0  0  0  0  0  0  0
    3.5724   -9.4872    0.0000 H   0  0  0  0  0  0  0  0  0  0  0  0
    3.8743  -10.6142    0.0000 H   0  0  0  0  0  0  0  0  0  0  0  0
    4.6310  -11.0495    0.0000 H   0  0  0  0  0  0  0  0  0  0  0  0
    5.3716  -11.0495    0.0000 H   0  0  0  0  0  0  0  0  0  0  0  0
    6.0860   -9.1625    0.0000 H   0  0  0  0  0  0  0  0  0  0  0  0
    5.3455   -9.1625    0.0000 H   0  0  0  0  0  0  0  0  0  0  0  0
    6.0600  -11.0495    0.0000 H   0  0  0  0  0  0  0  0  0  0  0  0
    6.8005  -11.0495    0.0000 H   0  0  0  0  0  0  0  0  0  0  0  0
    7.5150   -9.1625    0.0000 H   0  0  0  0  0  0  0  0  0  0  0  0
    6.7744   -9.1625    0.0000 H   0  0  0  0  0  0  0  0  0  0  0  0
    7.4889  -11.0495    0.0000 H   0  0  0  0  0  0  0  0  0  0  0  0
    8.2294  -11.0495    0.0000 H   0  0  0  0  0  0  0  0  0  0  0  0
    8.9439   -9.1625    0.0000 H   0  0  0  0  0  0  0  0  0  0  0  0
    8.2034   -9.1625    0.0000 H   0  0  0  0  0  0  0  0  0  0  0  0
    8.9179  -11.0495    0.0000 H   0  0  0  0  0  0  0  0  0  0  0  0
    9.6584  -11.0495    0.0000 H   0  0  0  0  0  0  0  0  0  0  0  0
   10.3728   -9.1625    0.0000 H   0  0  0  0  0  0  0  0  0  0  0  0
    9.6323   -9.1625    0.0000 H   0  0  0  0  0  0  0  0  0  0  0  0
   10.3468  -11.0495    0.0000 H   0  0  0  0  0  0  0  0  0  0  0  0
   11.0873  -11.0495    0.0000 H   0  0  0  0  0  0  0  0  0  0  0  0
   11.8018   -9.1625    0.0000 H   0  0  0  0  0  0  0  0  0  0  0  0
   11.0613   -9.1625    0.0000 H   0  0  0  0  0  0  0  0  0  0  0  0
   11.7757  -11.0495    0.0000 H   0  0  0  0  0  0  0  0  0  0  0  0
   12.5163  -11.0495    0.0000 H   0  0  0  0  0  0  0  0  0  0  0  0
   13.2307   -9.1625    0.0000 H   0  0  0  0  0  0  0  0  0  0  0  0
   12.4902   -9.1625    0.0000 H   0  0  0  0  0  0  0  0  0  0  0  0
   13.2047  -11.0495    0.0000 H   0  0  0  0  0  0  0  0  0  0  0  0
   13.9452  -11.0495    0.0000 H   0  0  0  0  0  0  0  0  0  0  0  0
   14.6597   -9.1625    0.0000 H   0  0  0  0  0  0  0  0  0  0  0  0
   13.9192   -9.1625    0.0000 H   0  0  0  0  0  0  0  0  0  0  0  0
   15.7184   -9.0747    0.0000 H   0  0  0  0  0  0  0  0  0  0  0  0
   17.1473   -9.0747    0.0000 H   0  0  0  0  0  0  0  0  0  0  0  0
   18.2060  -12.2870    0.0000 H   0  0  0  0  0  0  0  0  0  0  0  0
   18.9465  -12.2870    0.0000 H   0  0  0  0  0  0  0  0  0  0  0  0
   19.7032  -11.8517    0.0000 H   0  0  0  0  0  0  0  0  0  0  0  0
   20.0052  -10.7247    0.0000 H   0  0  0  0  0  0  0  0  0  0  0  0
   18.8782  -10.4228    0.0000 H   0  0  0  0  0  0  0  0  0  0  0  0
   15.7184  -12.3747    0.0000 H   0  0  0  0  0  0  0  0  0  0  0  0
  1  2  1  0  0  0  0
  2  3  1  0  0  0  0
  3  4  1  0  0  0  0
  4  5  1  0  0  0  0
  5  6  1  0  0  0  0
  6  7  1  0  0  0  0
  7  8  1  0  0  0  0
  8  9  1  0  0  0  0
  9 10  1  0  0  0  0
 10 11  1  0  0  0  0
 11 12  1  0  0  0  0
 12 13  1  0  0  0  0
 13 14  1  0  0  0  0
 14 15  1  0  0  0  0
 15 16  1  0  0  0  0
 16 17  2  0  0  0  0
 16 18  1  0  0  0  0
 18 19  1  0  0  0  0
 19 20  4  0  0  0  0
 20 21  4  0  0  0  0
 21 22  1  0  0  0  0
 21 23  4  0  0  0  0
 23 24  1  0  0  0  0
 24 25  1  0  0  0  0
 23 26  4  0  0  0  0
 26 27  1  0  0  0  0
 26 28  4  0  0  0  0
 19 28  4  0  0  0  0
 28 29  1  0  0  0  0
  1 30  1  0  0  0  0
  1 31  1  0  0  0  0
  1 32  1  0  0  0  0
  2 33  1  0  0  0  0
  2 34  1  0  0  0  0
  3 35  1  0  0  0  0
  3 36  1  0  0  0  0
  4 37  1  0  0  0  0
  4 38  1  0  0  0  0
  5 39  1  0  0  0  0
  5 40  1  0  0  0  0
  6 41  1  0  0  0  0
  6 42  1  0  0  0  0
  7 43  1  0  0  0  0
  7 44  1  0  0  0  0
  8 45  1  0  0  0  0
  8 46  1  0  0  0  0
  9 47  1  0  0  0  0
  9 48  1  0  0  0  0
 10 49  1  0  0  0  0
 10 50  1  0  0  0  0
 11 51  1  0  0  0  0
 11 52  1  0  0  0  0
 12 53  1  0  0  0  0
 12 54  1  0  0  0  0
 13 55  1  0  0  0  0
 13 56  1  0  0  0  0
 14 57  1  0  0  0  0
 14 58  1  0  0  0  0
 15 59  1  0  0  0  0
 15 60  1  0  0  0  0
 18 61  1  0  0  0  0
 20 62  1  0  0  0  0
 24 63  1  0  0  0  0
 24 64  1  0  0  0  0
 25 65  1  0  0  0  0
 25 66  1  0  0  0  0
 25 67  1  0  0  0  0
 29 68  1  0  0  0  0
M  END
>  <InChIKey>
XNIGXYXNGOOKMT-UHFFFAOYSA-N

>  <UN GHS>
2B

>  <CASRN>
117827-06-2

> <Outcome>
1

>  <Index>
921

>  <StandardizerResult>
Dearomatize (ID: Dearomatize)
Clear Stereo (ID: ClearStereo)
Wedge Clean (ID: WedgeClean)
Mesomerize (ID: Mesomerize)
Tautomerize (ID: Tautomerize)
Aromatize (ID: Aromatize)
Add Explicit Hydrogens (ID: AddExplicitH)
Neutralize (ID: Neutralize)
Clean 2D (ID: Clean2D)

> <knn Distance>


> <CpId>
921

$$$$
922
  Mrv1532301301811342D          

 16 15  0  0  0  0            999 V2000
    1.2375    2.1434    0.0000 C   0  0  0  0  0  0  0  0  0  0  0  0
    0.8250    1.4289    0.0000 C   0  0  0  0  0  0  0  0  0  0  0  0
    1.2375    0.7145    0.0000 C   0  0  0  0  0  0  0  0  0  0  0  0
    0.8250   -0.0000    0.0000 C   0  0  0  0  0  0  0  0  0  0  0  0
    1.2375   -0.7145    0.0000 C   0  0  0  0  0  0  0  0  0  0  0  0
   -0.0000   -0.0000    0.0000 O   0  0  0  0  0  0  0  0  0  0  0  0
    1.9520    1.7309    0.0000 H   0  0  0  0  0  0  0  0  0  0  0  0
    1.6500    2.8579    0.0000 H   0  0  0  0  0  0  0  0  0  0  0  0
    0.5230    2.5559    0.0000 H   0  0  0  0  0  0  0  0  0  0  0  0
    0.0878    1.7992    0.0000 H   0  0  0  0  0  0  0  0  0  0  0  0
    0.0878    1.0587    0.0000 H   0  0  0  0  0  0  0  0  0  0  0  0
    1.9747    0.3442    0.0000 H   0  0  0  0  0  0  0  0  0  0  0  0
    1.9747    1.0847    0.0000 H   0  0  0  0  0  0  0  0  0  0  0  0
    0.5230   -1.1270    0.0000 H   0  0  0  0  0  0  0  0  0  0  0  0
    1.6500   -1.4290    0.0000 H   0  0  0  0  0  0  0  0  0  0  0  0
    1.9520   -0.3020    0.0000 H   0  0  0  0  0  0  0  0  0  0  0  0
  1  2  1  0  0  0  0
  2  3  1  0  0  0  0
  3  4  1  0  0  0  0
  4  5  1  0  0  0  0
  4  6  2  0  0  0  0
  1  7  1  0  0  0  0
  1  8  1  0  0  0  0
  1  9  1  0  0  0  0
  2 10  1  0  0  0  0
  2 11  1  0  0  0  0
  3 12  1  0  0  0  0
  3 13  1  0  0  0  0
  5 14  1  0  0  0  0
  5 15  1  0  0  0  0
  5 16  1  0  0  0  0
M  END
>  <InChIKey>
XNLICIUVMPYHGG-UHFFFAOYSA-N

>  <UN GHS>
2A

>  <CASRN>
107-87-9

> <Outcome>
1

>  <Index>
922

>  <StandardizerResult>
Clear Stereo (ID: ClearStereo)
Wedge Clean (ID: WedgeClean)
Mesomerize (ID: Mesomerize)
Tautomerize (ID: Tautomerize)
Add Explicit Hydrogens (ID: AddExplicitH)
Neutralize (ID: Neutralize)
Clean 2D (ID: Clean2D)

> <knn Distance>


> <CpId>
922

$$$$
923
  Mrv1532301301811342D          

 13 12  0  0  0  0            999 V2000
    2.4750   -1.4289    0.0000 C   0  0  0  0  0  0  0  0  0  0  0  0
    2.0625   -0.7145    0.0000 O   0  0  0  0  0  0  0  0  0  0  0  0
    1.2375   -0.7145    0.0000 C   0  0  0  0  0  0  0  0  0  0  0  0
    0.8250    0.0000    0.0000 C   0  0  0  0  0  0  0  0  0  0  0  0
    0.0000    0.0000    0.0000 O   0  0  0  0  0  0  0  0  0  0  0  0
    1.7605   -1.8414    0.0000 H   0  0  0  0  0  0  0  0  0  0  0  0
    2.8875   -2.1434    0.0000 H   0  0  0  0  0  0  0  0  0  0  0  0
    3.1895   -1.0164    0.0000 H   0  0  0  0  0  0  0  0  0  0  0  0
    0.5482   -1.1678    0.0000 H   0  0  0  0  0  0  0  0  0  0  0  0
    1.1895   -1.5381    0.0000 H   0  0  0  0  0  0  0  0  0  0  0  0
    1.5143    0.4534    0.0000 H   0  0  0  0  0  0  0  0  0  0  0  0
    0.8730    0.8236    0.0000 H   0  0  0  0  0  0  0  0  0  0  0  0
   -0.4125    0.7145    0.0000 H   0  0  0  0  0  0  0  0  0  0  0  0
  1  2  1  0  0  0  0
  2  3  1  0  0  0  0
  3  4  1  0  0  0  0
  4  5  1  0  0  0  0
  1  6  1  0  0  0  0
  1  7  1  0  0  0  0
  1  8  1  0  0  0  0
  3  9  1  0  0  0  0
  3 10  1  0  0  0  0
  4 11  1  0  0  0  0
  4 12  1  0  0  0  0
  5 13  1  0  0  0  0
M  END
>  <InChIKey>
XNWFRZJHXBZDAG-UHFFFAOYSA-N

>  <UN GHS>
2B

>  <CASRN>
109-86-4

> <Outcome>
1

>  <Index>
923

>  <StandardizerResult>
Clear Stereo (ID: ClearStereo)
Wedge Clean (ID: WedgeClean)
Mesomerize (ID: Mesomerize)
Tautomerize (ID: Tautomerize)
Add Explicit Hydrogens (ID: AddExplicitH)
Neutralize (ID: Neutralize)
Clean 2D (ID: Clean2D)

> <knn Distance>


> <CpId>
923

$$$$
925
  Mrv1532301301811342D          

 13 12  0  0  0  0            999 V2000
   -0.6039   -1.6500    0.0000 O   0  0  0  0  0  0  0  0  0  0  0  0
    0.1105   -1.2375    0.0000 P   0  0  0  0  0  0  0  0  0  0  0  0
    0.5230   -1.9520    0.0000 O   0  0  0  0  0  0  0  0  0  0  0  0
   -0.3020   -0.5230    0.0000 O   0  0  0  0  0  0  0  0  0  0  0  0
    0.8250   -0.8250    0.0000 O   0  0  0  0  0  0  0  0  0  0  0  0
    0.8250   -0.0000    0.0000 P   0  0  0  0  0  0  0  0  0  0  0  0
    0.8250    0.8250    0.0000 O   0  0  0  0  0  0  0  0  0  0  0  0
    1.6500   -0.0000    0.0000 O   0  0  0  0  0  0  0  0  0  0  0  0
   -0.0000   -0.0000    0.0000 O   0  0  0  0  0  0  0  0  0  0  0  0
   -1.3184   -1.2375    0.0000 H   0  0  0  0  0  0  0  0  0  0  0  0
    0.1105   -2.6664    0.0000 H   0  0  0  0  0  0  0  0  0  0  0  0
    1.5395    1.2375    0.0000 H   0  0  0  0  0  0  0  0  0  0  0  0
    2.0625   -0.7145    0.0000 H   0  0  0  0  0  0  0  0  0  0  0  0
  1  2  1  0  0  0  0
  2  3  1  0  0  0  0
  2  4  2  0  0  0  0
  2  5  1  0  0  0  0
  5  6  1  0  0  0  0
  6  7  1  0  0  0  0
  6  8  1  0  0  0  0
  6  9  2  0  0  0  0
  1 10  1  0  0  0  0
  3 11  1  0  0  0  0
  7 12  1  0  0  0  0
  8 13  1  0  0  0  0
M  END
>  <InChIKey>
XPPKVPWEQAFLFU-UHFFFAOYSA-N

>  <UN GHS>
2A

>  <CASRN>
66034-17-1

> <Outcome>
1

>  <Index>
925

>  <StandardizerResult>
Clear Stereo (ID: ClearStereo)
Wedge Clean (ID: WedgeClean)
Mesomerize (ID: Mesomerize)
Tautomerize (ID: Tautomerize)
Add Explicit Hydrogens (ID: AddExplicitH)
Neutralize (ID: Neutralize)
Clean 2D (ID: Clean2D)

> <knn Distance>


> <CpId>
925

$$$$
931
  Mrv1532301301811342D          

 23 22  0  0  0  0            999 V2000
    2.5705   -1.4926    0.0000 C   0  0  0  0  0  0  0  0  0  0  0  0
    1.7455   -1.4926    0.0000 N   0  0  0  0  0  0  0  0  0  0  0  0
    1.3330   -2.2071    0.0000 C   0  0  0  0  0  0  0  0  0  0  0  0
    1.3330   -0.7782    0.0000 C   0  0  0  0  0  0  0  0  0  0  0  0
    2.0474   -0.3657    0.0000 C   0  0  0  0  0  0  0  0  0  0  0  0
    0.6185   -1.1907    0.0000 C   0  0  0  0  0  0  0  0  0  0  0  0
    0.9205   -0.0637    0.0000 C   0  0  0  0  0  0  0  0  0  0  0  0
    0.0955   -0.0637    0.0000 O   0  0  0  0  0  0  0  0  0  0  0  0
    2.5705   -2.3176    0.0000 H   0  0  0  0  0  0  0  0  0  0  0  0
    3.3955   -1.4926    0.0000 H   0  0  0  0  0  0  0  0  0  0  0  0
    2.5705   -0.6676    0.0000 H   0  0  0  0  0  0  0  0  0  0  0  0
    0.6185   -1.7946    0.0000 H   0  0  0  0  0  0  0  0  0  0  0  0
    0.9205   -2.9216    0.0000 H   0  0  0  0  0  0  0  0  0  0  0  0
    2.0474   -2.6196    0.0000 H   0  0  0  0  0  0  0  0  0  0  0  0
    2.7619    0.0468    0.0000 H   0  0  0  0  0  0  0  0  0  0  0  0
    2.0474    0.4593    0.0000 H   0  0  0  0  0  0  0  0  0  0  0  0
    1.3330    0.0468    0.0000 H   0  0  0  0  0  0  0  0  0  0  0  0
    0.6185   -0.3657    0.0000 H   0  0  0  0  0  0  0  0  0  0  0  0
   -0.0960   -0.7782    0.0000 H   0  0  0  0  0  0  0  0  0  0  0  0
   -0.0960   -1.6032    0.0000 H   0  0  0  0  0  0  0  0  0  0  0  0
    1.2026    0.7115    0.0000 H   0  0  0  0  0  0  0  0  0  0  0  0
    0.4473    0.6121    0.0000 H   0  0  0  0  0  0  0  0  0  0  0  0
   -0.6735    0.2353    0.0000 H   0  0  0  0  0  0  0  0  0  0  0  0
  1  2  1  0  0  0  0
  2  3  1  0  0  0  0
  2  4  1  0  0  0  0
  4  5  1  0  0  0  0
  4  6  1  0  0  0  0
  4  7  1  0  0  0  0
  7  8  1  0  0  0  0
  1  9  1  0  0  0  0
  1 10  1  0  0  0  0
  1 11  1  0  0  0  0
  3 12  1  0  0  0  0
  3 13  1  0  0  0  0
  3 14  1  0  0  0  0
  5 15  1  0  0  0  0
  5 16  1  0  0  0  0
  5 17  1  0  0  0  0
  6 18  1  0  0  0  0
  6 19  1  0  0  0  0
  6 20  1  0  0  0  0
  7 21  1  0  0  0  0
  7 22  1  0  0  0  0
  8 23  1  0  0  0  0
M  END
>  <InChIKey>
XRIBIDPMFSLGFS-UHFFFAOYSA-N

>  <UN GHS>
1

>  <CASRN>
7005-47-2

> <Outcome>
1

>  <Index>
931

>  <StandardizerResult>
Clear Stereo (ID: ClearStereo)
Wedge Clean (ID: WedgeClean)
Mesomerize (ID: Mesomerize)
Tautomerize (ID: Tautomerize)
Add Explicit Hydrogens (ID: AddExplicitH)
Neutralize (ID: Neutralize)
Clean 2D (ID: Clean2D)

> <knn Distance>


> <CpId>
931

$$$$
934
  Mrv1532301301811342D          

  8  7  0  0  0  0            999 V2000
    1.2375    0.7145    0.0000 N   0  0  0  0  0  0  0  0  0  0  0  0
    0.8250   -0.0000    0.0000 C   0  0  0  0  0  0  0  0  0  0  0  0
    1.2375   -0.7145    0.0000 N   0  0  0  0  0  0  0  0  0  0  0  0
   -0.0000   -0.0000    0.0000 O   0  0  0  0  0  0  0  0  0  0  0  0
    2.0625    0.7145    0.0000 H   0  0  0  0  0  0  0  0  0  0  0  0
    0.8250    1.4289    0.0000 H   0  0  0  0  0  0  0  0  0  0  0  0
    0.8250   -1.4289    0.0000 H   0  0  0  0  0  0  0  0  0  0  0  0
    2.0625   -0.7145    0.0000 H   0  0  0  0  0  0  0  0  0  0  0  0
  1  2  1  0  0  0  0
  2  3  1  0  0  0  0
  2  4  2  0  0  0  0
  1  5  1  0  0  0  0
  1  6  1  0  0  0  0
  3  7  1  0  0  0  0
  3  8  1  0  0  0  0
M  END
>  <InChIKey>
XSQUKJJJFZCRTK-UHFFFAOYSA-N

>  <UN GHS>
2B

>  <CASRN>
57-13-6

> <Outcome>
1

>  <Index>
934

>  <StandardizerResult>
Clear Stereo (ID: ClearStereo)
Wedge Clean (ID: WedgeClean)
Mesomerize (ID: Mesomerize)
Tautomerize (ID: Tautomerize)
Add Explicit Hydrogens (ID: AddExplicitH)
Neutralize (ID: Neutralize)
Clean 2D (ID: Clean2D)

> <knn Distance>


> <CpId>
934

$$$$
946
  Mrv1532301301811342D          

  5  4  0  0  0  0            999 V2000
    2.3100    0.0000    0.0000 N   0  0  0  0  0  0  0  0  0  0  0  0
    1.4850    0.0000    0.0000 C   0  0  0  0  0  0  0  0  0  0  0  0
    0.6600    0.0000    0.0000 N   0  0  0  0  0  0  0  0  0  0  0  0
    2.7225   -0.7145    0.0000 H   0  0  0  0  0  0  0  0  0  0  0  0
    2.7225    0.7145    0.0000 H   0  0  0  0  0  0  0  0  0  0  0  0
  1  2  1  0  0  0  0
  2  3  3  0  0  0  0
  1  4  1  0  0  0  0
  1  5  1  0  0  0  0
M  END
>  <InChIKey>
XZMCDFZZKTWFGF-UHFFFAOYSA-N

>  <UN GHS>
1

>  <CASRN>
156-62-7

> <Outcome>
1

>  <Index>
946

>  <StandardizerResult>
Mesomerize (ID: Mesomerize)
Tautomerize (ID: Tautomerize)
Add Explicit Hydrogens (ID: AddExplicitH)
Neutralize (ID: Neutralize)
Clean 2D (ID: Clean2D)

> <knn Distance>


> <CpId>
946

$$$$
948
  Mrv1532301301811342D          

 12 12  0  0  0  0            999 V2000
    1.5709   -1.1454    0.0000 O   0  0  0  0  0  0  0  0  0  0  0  0
    1.0860   -0.4780    0.0000 C   0  0  0  0  0  0  0  0  0  0  0  0
    0.2610   -0.4780    0.0000 N   0  0  0  0  0  0  0  0  0  0  0  0
    0.0060    0.3067    0.0000 C   0  0  0  0  0  0  0  0  0  0  0  0
    0.6735    0.7916    0.0000 C   0  0  0  0  0  0  0  0  0  0  0  0
    1.3409    0.3067    0.0000 N   0  0  0  0  0  0  0  0  0  0  0  0
   -0.2239   -1.1454    0.0000 H   0  0  0  0  0  0  0  0  0  0  0  0
   -0.5670    0.9001    0.0000 H   0  0  0  0  0  0  0  0  0  0  0  0
   -0.8064    0.1634    0.0000 H   0  0  0  0  0  0  0  0  0  0  0  0
    1.0608    1.5200    0.0000 H   0  0  0  0  0  0  0  0  0  0  0  0
    0.2862    1.5200    0.0000 H   0  0  0  0  0  0  0  0  0  0  0  0
    2.1255    0.5616    0.0000 H   0  0  0  0  0  0  0  0  0  0  0  0
  1  2  2  0  0  0  0
  2  3  1  0  0  0  0
  3  4  1  0  0  0  0
  4  5  1  0  0  0  0
  5  6  1  0  0  0  0
  2  6  1  0  0  0  0
  3  7  1  0  0  0  0
  4  8  1  0  0  0  0
  4  9  1  0  0  0  0
  5 10  1  0  0  0  0
  5 11  1  0  0  0  0
  6 12  1  0  0  0  0
M  END
>  <InChIKey>
YAMHXTCMCPHKLN-UHFFFAOYSA-N

>  <UN GHS>
2A

>  <CASRN>
120-93-4

> <Outcome>
1

>  <Index>
948

>  <StandardizerResult>
Clear Stereo (ID: ClearStereo)
Wedge Clean (ID: WedgeClean)
Mesomerize (ID: Mesomerize)
Tautomerize (ID: Tautomerize)
Add Explicit Hydrogens (ID: AddExplicitH)
Neutralize (ID: Neutralize)
Clean 2D (ID: Clean2D)

> <knn Distance>


> <CpId>
948

$$$$
952
  Mrv1532301301811342D          

 42 43  0  0  0  0            999 V2000
   -2.6376   -1.3743    0.0000 C   0  0  0  0  0  0  0  0  0  0  0  0
   -2.4652   -0.5675    0.0000 C   0  0  0  0  0  0  0  0  0  0  0  0
   -3.0363    0.0509    0.0000 C   0  0  0  0  0  0  0  0  0  0  0  0
   -3.8410   -0.1308    0.0000 O   0  0  0  0  0  0  0  0  0  0  0  0
   -1.6298   -0.2971    0.0000 C   0  0  0  0  0  0  0  0  0  0  0  0
   -0.7894   -0.5675    0.0000 O   0  0  0  0  0  0  0  0  0  0  0  0
    0.1552   -0.4574    0.0000 C   0  0  0  0  0  0  0  0  0  0  0  0
    0.7885   -0.9862    0.0000 C   0  0  0  0  0  0  0  0  0  0  0  0
    1.4676   -0.7693    0.0000 C   0  0  0  0  0  0  0  0  0  0  0  0
    1.6090    0.0435    0.0000 C   0  0  0  0  0  0  0  0  0  0  0  0
    0.9757    0.5723    0.0000 C   0  0  0  0  0  0  0  0  0  0  0  0
    0.2011    0.2883    0.0000 C   0  0  0  0  0  0  0  0  0  0  0  0
   -0.1837    1.0585    0.0000 C   0  0  0  0  0  0  0  0  0  0  0  0
    0.7022   -0.3988    0.0000 C   0  0  0  0  0  0  0  0  0  0  0  0
   -0.1816   -0.9248    0.0000 C   0  0  0  0  0  0  0  0  0  0  0  0
    0.4616   -1.4066    0.0000 C   0  0  0  0  0  0  0  0  0  0  0  0
   -3.4444   -1.2019    0.0000 H   0  0  0  0  0  0  0  0  0  0  0  0
   -2.8100   -2.1811    0.0000 H   0  0  0  0  0  0  0  0  0  0  0  0
   -1.8308   -1.5467    0.0000 H   0  0  0  0  0  0  0  0  0  0  0  0
   -3.2608   -0.7856    0.0000 H   0  0  0  0  0  0  0  0  0  0  0  0
   -2.4638    0.6449    0.0000 H   0  0  0  0  0  0  0  0  0  0  0  0
   -3.1709    0.8648    0.0000 H   0  0  0  0  0  0  0  0  0  0  0  0
   -4.6262    0.1223    0.0000 H   0  0  0  0  0  0  0  0  0  0  0  0
   -1.2952    0.4570    0.0000 H   0  0  0  0  0  0  0  0  0  0  0  0
   -1.9657    0.4565    0.0000 H   0  0  0  0  0  0  0  0  0  0  0  0
   -0.4438    0.1099    0.0000 H   0  0  0  0  0  0  0  0  0  0  0  0
    0.9411   -1.7969    0.0000 H   0  0  0  0  0  0  0  0  0  0  0  0
    1.4970   -1.4088    0.0000 H   0  0  0  0  0  0  0  0  0  0  0  0
    2.2910   -0.8214    0.0000 H   0  0  0  0  0  0  0  0  0  0  0  0
    2.4286   -0.0504    0.0000 H   0  0  0  0  0  0  0  0  0  0  0  0
    2.1737    0.6449    0.0000 H   0  0  0  0  0  0  0  0  0  0  0  0
    1.4668    1.2352    0.0000 H   0  0  0  0  0  0  0  0  0  0  0  0
    0.7372    1.3621    0.0000 H   0  0  0  0  0  0  0  0  0  0  0  0
   -0.1523    1.8829    0.0000 H   0  0  0  0  0  0  0  0  0  0  0  0
   -0.9453    1.3756    0.0000 H   0  0  0  0  0  0  0  0  0  0  0  0
   -0.7466    0.4554    0.0000 H   0  0  0  0  0  0  0  0  0  0  0  0
   -0.9856   -1.1097    0.0000 H   0  0  0  0  0  0  0  0  0  0  0  0
   -0.6387   -1.6116    0.0000 H   0  0  0  0  0  0  0  0  0  0  0  0
   -0.0418   -1.7378    0.0000 H   0  0  0  0  0  0  0  0  0  0  0  0
    0.1683   -2.1777    0.0000 H   0  0  0  0  0  0  0  0  0  0  0  0
    0.6753   -2.2034    0.0000 H   0  0  0  0  0  0  0  0  0  0  0  0
    0.1812   -0.6307    0.0000 H   0  0  0  0  0  0  0  0  0  0  0  0
  1  2  1  0  0  0  0
  2  3  1  0  0  0  0
  3  4  1  0  0  0  0
  2  5  1  0  0  0  0
  5  6  1  0  0  0  0
  6  7  1  0  0  0  0
  7  8  1  0  0  0  0
  8  9  1  0  0  0  0
  9 10  1  0  0  0  0
 10 11  1  0  0  0  0
 11 12  1  0  0  0  0
  7 12  1  0  0  0  0
 12 13  1  0  0  0  0
 12 14  1  0  0  0  0
  9 14  1  0  0  0  0
 14 15  1  0  0  0  0
 14 16  1  0  0  0  0
  1 17  1  0  0  0  0
  1 18  1  0  0  0  0
  1 19  1  0  0  0  0
  2 20  1  0  0  0  0
  3 21  1  0  0  0  0
  3 22  1  0  0  0  0
  4 23  1  0  0  0  0
  5 24  1  0  0  0  0
  5 25  1  0  0  0  0
  7 26  1  0  0  0  0
  8 27  1  0  0  0  0
  8 28  1  0  0  0  0
  9 29  1  0  0  0  0
 10 30  1  0  0  0  0
 10 31  1  0  0  0  0
 11 32  1  0  0  0  0
 11 33  1  0  0  0  0
 13 34  1  0  0  0  0
 13 35  1  0  0  0  0
 13 36  1  0  0  0  0
 15 37  1  0  0  0  0
 15 38  1  0  0  0  0
 15 39  1  0  0  0  0
 16 40  1  0  0  0  0
 16 41  1  0  0  0  0
 16 42  1  0  0  0  0
M  END
>  <InChIKey>
YCOHHRPARVZBHK-UHFFFAOYSA-N

>  <UN GHS>
2A

>  <CASRN>
128119-70-0

> <Outcome>
1

>  <Index>
952

>  <StandardizerResult>
Clear Stereo (ID: ClearStereo)
Wedge Clean (ID: WedgeClean)
Mesomerize (ID: Mesomerize)
Tautomerize (ID: Tautomerize)
Add Explicit Hydrogens (ID: AddExplicitH)
Neutralize (ID: Neutralize)
Clean 2D (ID: Clean2D)

> <knn Distance>


> <CpId>
952

$$$$
955
  Mrv1532301301811342D          

 30 29  0  0  0  0            999 V2000
   -2.4722    0.2157    0.0000 C   0  0  0  0  0  0  0  0  0  0  0  0
   -1.7577    0.6282    0.0000 C   0  0  0  0  0  0  0  0  0  0  0  0
   -1.3452   -0.0863    0.0000 C   0  0  0  0  0  0  0  0  0  0  0  0
   -2.1702    1.3427    0.0000 C   0  0  0  0  0  0  0  0  0  0  0  0
   -1.0432    1.0407    0.0000 N   0  0  0  0  0  0  0  0  0  0  0  0
   -0.3288    0.6282    0.0000 C   0  0  0  0  0  0  0  0  0  0  0  0
    0.3857    1.0407    0.0000 C   0  0  0  0  0  0  0  0  0  0  0  0
    1.1002    0.6282    0.0000 O   0  0  0  0  0  0  0  0  0  0  0  0
    1.8147    1.0407    0.0000 C   0  0  0  0  0  0  0  0  0  0  0  0
    2.5291    0.6282    0.0000 C   0  0  0  0  0  0  0  0  0  0  0  0
    3.2436    1.0407    0.0000 O   0  0  0  0  0  0  0  0  0  0  0  0
   -2.8847    0.9302    0.0000 H   0  0  0  0  0  0  0  0  0  0  0  0
   -3.1866   -0.1968    0.0000 H   0  0  0  0  0  0  0  0  0  0  0  0
   -2.0597   -0.4988    0.0000 H   0  0  0  0  0  0  0  0  0  0  0  0
   -1.2375   -0.9042    0.0000 H   0  0  0  0  0  0  0  0  0  0  0  0
   -0.5483   -0.2998    0.0000 H   0  0  0  0  0  0  0  0  0  0  0  0
   -0.8430    0.5682    0.0000 H   0  0  0  0  0  0  0  0  0  0  0  0
   -1.3523    1.4504    0.0000 H   0  0  0  0  0  0  0  0  0  0  0  0
   -1.9567    2.1396    0.0000 H   0  0  0  0  0  0  0  0  0  0  0  0
   -2.8247    1.8449    0.0000 H   0  0  0  0  0  0  0  0  0  0  0  0
   -0.4967    1.6587    0.0000 H   0  0  0  0  0  0  0  0  0  0  0  0
    0.3331    0.1357    0.0000 H   0  0  0  0  0  0  0  0  0  0  0  0
   -0.3288    1.4532    0.0000 H   0  0  0  0  0  0  0  0  0  0  0  0
    1.0177    1.5710    0.0000 H   0  0  0  0  0  0  0  0  0  0  0  0
    0.5290    1.8532    0.0000 H   0  0  0  0  0  0  0  0  0  0  0  0
    2.5377    1.4380    0.0000 H   0  0  0  0  0  0  0  0  0  0  0  0
    1.8496    1.8650    0.0000 H   0  0  0  0  0  0  0  0  0  0  0  0
    2.1589   -0.1091    0.0000 H   0  0  0  0  0  0  0  0  0  0  0  0
    2.8994   -0.1091    0.0000 H   0  0  0  0  0  0  0  0  0  0  0  0
    4.0686    1.0452    0.0000 H   0  0  0  0  0  0  0  0  0  0  0  0
  1  2  1  0  0  0  0
  2  3  1  0  0  0  0
  2  4  1  0  0  0  0
  2  5  1  0  0  0  0
  5  6  1  0  0  0  0
  6  7  1  0  0  0  0
  7  8  1  0  0  0  0
  8  9  1  0  0  0  0
  9 10  1  0  0  0  0
 10 11  1  0  0  0  0
  1 12  1  0  0  0  0
  1 13  1  0  0  0  0
  1 14  1  0  0  0  0
  3 15  1  0  0  0  0
  3 16  1  0  0  0  0
  3 17  1  0  0  0  0
  4 18  1  0  0  0  0
  4 19  1  0  0  0  0
  4 20  1  0  0  0  0
  5 21  1  0  0  0  0
  6 22  1  0  0  0  0
  6 23  1  0  0  0  0
  7 24  1  0  0  0  0
  7 25  1  0  0  0  0
  9 26  1  0  0  0  0
  9 27  1  0  0  0  0
 10 28  1  0  0  0  0
 10 29  1  0  0  0  0
 11 30  1  0  0  0  0
M  END
>  <InChIKey>
YDEDDFNFQOPRQJ-UHFFFAOYSA-N

>  <UN GHS>
1

>  <CASRN>
87787-67-5

> <Outcome>
1

>  <Index>
955

>  <StandardizerResult>
Clear Stereo (ID: ClearStereo)
Wedge Clean (ID: WedgeClean)
Mesomerize (ID: Mesomerize)
Tautomerize (ID: Tautomerize)
Add Explicit Hydrogens (ID: AddExplicitH)
Neutralize (ID: Neutralize)
Clean 2D (ID: Clean2D)

> <knn Distance>


> <CpId>
955

$$$$
958
  Mrv1532301301811342D          

 12 12  0  0  0  0            999 V2000
    1.9824   -1.0216    0.0000 O   0  0  0  0  0  0  0  0  0  0  0  0
    1.4975   -0.3542    0.0000 C   0  0  0  0  0  0  0  0  0  0  0  0
    0.6725   -0.3542    0.0000 C   0  0  0  0  0  0  0  0  0  0  0  0
    0.4175    0.4304    0.0000 C   0  0  0  0  0  0  0  0  0  0  0  0
    1.0850    0.9153    0.0000 C   0  0  0  0  0  0  0  0  0  0  0  0
    1.7524    0.4304    0.0000 O   0  0  0  0  0  0  0  0  0  0  0  0
   -0.0690   -0.7159    0.0000 H   0  0  0  0  0  0  0  0  0  0  0  0
    0.5577   -1.1712    0.0000 H   0  0  0  0  0  0  0  0  0  0  0  0
   -0.1555    1.0239    0.0000 H   0  0  0  0  0  0  0  0  0  0  0  0
   -0.3949    0.2872    0.0000 H   0  0  0  0  0  0  0  0  0  0  0  0
    1.4723    1.6438    0.0000 H   0  0  0  0  0  0  0  0  0  0  0  0
    0.6977    1.6438    0.0000 H   0  0  0  0  0  0  0  0  0  0  0  0
  1  2  2  0  0  0  0
  2  3  1  0  0  0  0
  3  4  1  0  0  0  0
  4  5  1  0  0  0  0
  5  6  1  0  0  0  0
  2  6  1  0  0  0  0
  3  7  1  0  0  0  0
  3  8  1  0  0  0  0
  4  9  1  0  0  0  0
  4 10  1  0  0  0  0
  5 11  1  0  0  0  0
  5 12  1  0  0  0  0
M  END
>  <InChIKey>
YEJRWHAVMIAJKC-UHFFFAOYSA-N

>  <UN GHS>
1

>  <CASRN>
96-48-0

> <Outcome>
1

>  <Index>
958

>  <StandardizerResult>
Clear Stereo (ID: ClearStereo)
Wedge Clean (ID: WedgeClean)
Mesomerize (ID: Mesomerize)
Tautomerize (ID: Tautomerize)
Add Explicit Hydrogens (ID: AddExplicitH)
Neutralize (ID: Neutralize)
Clean 2D (ID: Clean2D)

> <knn Distance>


> <CpId>
958

$$$$
961
  Mrv1532301301811342D          

 30 29  0  0  0  0            999 V2000
    3.5211    2.8579    0.0000 C   0  0  0  0  0  0  0  0  0  0  0  0
    4.2355    3.2704    0.0000 O   0  0  0  0  0  0  0  0  0  0  0  0
    4.9500    2.8579    0.0000 C   0  0  0  0  0  0  0  0  0  0  0  0
    5.6645    3.2704    0.0000 C   0  0  0  0  0  0  0  0  0  0  0  0
    6.3789    2.8579    0.0000 O   0  0  0  0  0  0  0  0  0  0  0  0
    7.0934    3.2704    0.0000 C   0  0  0  0  0  0  0  0  0  0  0  0
    7.8079    2.8579    0.0000 C   0  0  0  0  0  0  0  0  0  0  0  0
    8.5224    3.2704    0.0000 O   0  0  0  0  0  0  0  0  0  0  0  0
    9.2368    2.8579    0.0000 C   0  0  0  0  0  0  0  0  0  0  0  0
    9.9513    3.2704    0.0000 C   0  0  0  0  0  0  0  0  0  0  0  0
   10.6658    2.8579    0.0000 O   0  0  0  0  0  0  0  0  0  0  0  0
   11.3802    3.2704    0.0000 C   0  0  0  0  0  0  0  0  0  0  0  0
    3.1086    3.5724    0.0000 H   0  0  0  0  0  0  0  0  0  0  0  0
    2.8066    2.4454    0.0000 H   0  0  0  0  0  0  0  0  0  0  0  0
    3.9336    2.1434    0.0000 H   0  0  0  0  0  0  0  0  0  0  0  0
    4.5797    2.1207    0.0000 H   0  0  0  0  0  0  0  0  0  0  0  0
    5.3203    2.1207    0.0000 H   0  0  0  0  0  0  0  0  0  0  0  0
    6.0347    4.0076    0.0000 H   0  0  0  0  0  0  0  0  0  0  0  0
    5.2942    4.0076    0.0000 H   0  0  0  0  0  0  0  0  0  0  0  0
    7.4637    4.0076    0.0000 H   0  0  0  0  0  0  0  0  0  0  0  0
    6.7232    4.0076    0.0000 H   0  0  0  0  0  0  0  0  0  0  0  0
    7.4376    2.1207    0.0000 H   0  0  0  0  0  0  0  0  0  0  0  0
    8.1781    2.1207    0.0000 H   0  0  0  0  0  0  0  0  0  0  0  0
    8.8666    2.1207    0.0000 H   0  0  0  0  0  0  0  0  0  0  0  0
    9.6071    2.1207    0.0000 H   0  0  0  0  0  0  0  0  0  0  0  0
   10.3216    4.0076    0.0000 H   0  0  0  0  0  0  0  0  0  0  0  0
    9.5810    4.0076    0.0000 H   0  0  0  0  0  0  0  0  0  0  0  0
   11.7927    2.5559    0.0000 H   0  0  0  0  0  0  0  0  0  0  0  0
   12.0947    3.6829    0.0000 H   0  0  0  0  0  0  0  0  0  0  0  0
   10.9677    3.9849    0.0000 H   0  0  0  0  0  0  0  0  0  0  0  0
  1  2  1  0  0  0  0
  2  3  1  0  0  0  0
  3  4  1  0  0  0  0
  4  5  1  0  0  0  0
  5  6  1  0  0  0  0
  6  7  1  0  0  0  0
  7  8  1  0  0  0  0
  8  9  1  0  0  0  0
  9 10  1  0  0  0  0
 10 11  1  0  0  0  0
 11 12  1  0  0  0  0
  1 13  1  0  0  0  0
  1 14  1  0  0  0  0
  1 15  1  0  0  0  0
  3 16  1  0  0  0  0
  3 17  1  0  0  0  0
  4 18  1  0  0  0  0
  4 19  1  0  0  0  0
  6 20  1  0  0  0  0
  6 21  1  0  0  0  0
  7 22  1  0  0  0  0
  7 23  1  0  0  0  0
  9 24  1  0  0  0  0
  9 25  1  0  0  0  0
 10 26  1  0  0  0  0
 10 27  1  0  0  0  0
 12 28  1  0  0  0  0
 12 29  1  0  0  0  0
 12 30  1  0  0  0  0
M  END
>  <InChIKey>
YFNKIDBQEZZDLK-UHFFFAOYSA-N

>  <UN GHS>
2B

>  <CASRN>
112-49-2

> <Outcome>
1

>  <Index>
961

>  <StandardizerResult>
Clear Stereo (ID: ClearStereo)
Wedge Clean (ID: WedgeClean)
Mesomerize (ID: Mesomerize)
Tautomerize (ID: Tautomerize)
Add Explicit Hydrogens (ID: AddExplicitH)
Neutralize (ID: Neutralize)
Clean 2D (ID: Clean2D)

> <knn Distance>


> <CpId>
961

$$$$
964
  Mrv1532301301811342D          

 26 26  0  0  0  0            999 V2000
   -0.0340    2.4692    0.0000 O   0  0  0  0  0  0  0  0  0  0  0  0
    0.6805    2.0567    0.0000 C   0  0  0  0  0  0  0  0  0  0  0  0
    0.6805    1.2317    0.0000 C   0  0  0  0  0  0  0  0  0  0  0  0
    1.3950    0.8192    0.0000 C   0  0  0  0  0  0  0  0  0  0  0  0
    1.3950   -0.0058    0.0000 C   0  0  0  0  0  0  0  0  0  0  0  0
    0.6805   -0.4183    0.0000 C   0  0  0  0  0  0  0  0  0  0  0  0
    0.6805   -1.2433    0.0000 C   0  0  0  0  0  0  0  0  0  0  0  0
    1.3950   -1.6558    0.0000 O   0  0  0  0  0  0  0  0  0  0  0  0
   -0.0340   -0.0058    0.0000 C   0  0  0  0  0  0  0  0  0  0  0  0
   -0.0340    0.8192    0.0000 C   0  0  0  0  0  0  0  0  0  0  0  0
   -0.0340    3.2942    0.0000 H   0  0  0  0  0  0  0  0  0  0  0  0
    1.5041    2.1046    0.0000 H   0  0  0  0  0  0  0  0  0  0  0  0
    1.1339    2.7459    0.0000 H   0  0  0  0  0  0  0  0  0  0  0  0
   -0.0340    1.6442    0.0000 H   0  0  0  0  0  0  0  0  0  0  0  0
    2.2186    0.8671    0.0000 H   0  0  0  0  0  0  0  0  0  0  0  0
    1.8483    1.5084    0.0000 H   0  0  0  0  0  0  0  0  0  0  0  0
    1.8483   -0.6951    0.0000 H   0  0  0  0  0  0  0  0  0  0  0  0
    2.2186   -0.0538    0.0000 H   0  0  0  0  0  0  0  0  0  0  0  0
   -0.0340   -0.8308    0.0000 H   0  0  0  0  0  0  0  0  0  0  0  0
    0.0485   -1.7736    0.0000 H   0  0  0  0  0  0  0  0  0  0  0  0
    0.5372   -2.0558    0.0000 H   0  0  0  0  0  0  0  0  0  0  0  0
    2.2192   -1.6918    0.0000 H   0  0  0  0  0  0  0  0  0  0  0  0
   -0.8092    0.2763    0.0000 H   0  0  0  0  0  0  0  0  0  0  0  0
   -0.8092   -0.2880    0.0000 H   0  0  0  0  0  0  0  0  0  0  0  0
   -0.7657    1.2001    0.0000 H   0  0  0  0  0  0  0  0  0  0  0  0
    0.6805    0.4067    0.0000 H   0  0  0  0  0  0  0  0  0  0  0  0
  1  2  1  0  0  0  0
  2  3  1  0  0  0  0
  3  4  1  0  0  0  0
  4  5  1  0  0  0  0
  5  6  1  0  0  0  0
  6  7  1  0  0  0  0
  7  8  1  0  0  0  0
  6  9  1  0  0  0  0
  9 10  1  0  0  0  0
  3 10  1  0  0  0  0
  1 11  1  0  0  0  0
  2 12  1  0  0  0  0
  2 13  1  0  0  0  0
  3 14  1  0  0  0  0
  4 15  1  0  0  0  0
  4 16  1  0  0  0  0
  5 17  1  0  0  0  0
  5 18  1  0  0  0  0
  6 19  1  0  0  0  0
  7 20  1  0  0  0  0
  7 21  1  0  0  0  0
  8 22  1  0  0  0  0
  9 23  1  0  0  0  0
  9 24  1  0  0  0  0
 10 25  1  0  0  0  0
 10 26  1  0  0  0  0
M  END
>  <InChIKey>
YIMQCDZDWXUDCA-UHFFFAOYSA-N

>  <UN GHS>
2A

>  <CASRN>
105-08-8

> <Outcome>
1

>  <Index>
964

>  <StandardizerResult>
Clear Stereo (ID: ClearStereo)
Wedge Clean (ID: WedgeClean)
Mesomerize (ID: Mesomerize)
Tautomerize (ID: Tautomerize)
Add Explicit Hydrogens (ID: AddExplicitH)
Neutralize (ID: Neutralize)
Clean 2D (ID: Clean2D)

> <knn Distance>


> <CpId>
964

$$$$
970
  Mrv1532301301811342D          

 45 48  0  0  0  0            999 V2000
    2.6182   -0.1023    0.0000 O   0  0  0  0  0  0  0  0  0  0  0  0
    3.3327   -0.5148    0.0000 C   0  0  0  0  0  0  0  0  0  0  0  0
    3.3327   -1.3398    0.0000 O   0  0  0  0  0  0  0  0  0  0  0  0
    2.6182   -1.7523    0.0000 C   0  0  0  0  0  0  0  0  0  0  0  0
    2.6182   -2.5773    0.0000 C   0  0  0  0  0  0  0  0  0  0  0  0
    3.0307   -3.2918    0.0000 C   0  0  0  0  0  0  0  0  0  0  0  0
    2.2057   -3.2918    0.0000 O   0  0  0  0  0  0  0  0  0  0  0  0
    4.0472   -0.1023    0.0000 C   0  0  0  0  0  0  0  0  0  0  0  0
    4.0472    0.7227    0.0000 C   0  0  0  0  0  0  0  0  0  0  0  0
    4.7616    1.1352    0.0000 C   0  0  0  0  0  0  0  0  0  0  0  0
    5.4761    0.7227    0.0000 C   0  0  0  0  0  0  0  0  0  0  0  0
    6.1906    1.1352    0.0000 C   0  0  0  0  0  0  0  0  0  0  0  0
    6.1906    1.9602    0.0000 O   0  0  0  0  0  0  0  0  0  0  0  0
    6.9051    0.7227    0.0000 O   0  0  0  0  0  0  0  0  0  0  0  0
    7.6195    1.1352    0.0000 C   0  0  0  0  0  0  0  0  0  0  0  0
    8.3340    0.7227    0.0000 C   0  0  0  0  0  0  0  0  0  0  0  0
    9.1590    0.7227    0.0000 C   0  0  0  0  0  0  0  0  0  0  0  0
    8.7465    0.0082    0.0000 O   0  0  0  0  0  0  0  0  0  0  0  0
    5.4761   -0.1023    0.0000 C   0  0  0  0  0  0  0  0  0  0  0  0
    4.7616   -0.5148    0.0000 C   0  0  0  0  0  0  0  0  0  0  0  0
    6.1906   -0.5148    0.0000 C   0  0  0  0  0  0  0  0  0  0  0  0
    6.1906   -1.3398    0.0000 O   0  0  0  0  0  0  0  0  0  0  0  0
    6.9051   -0.1023    0.0000 O   0  0  0  0  0  0  0  0  0  0  0  0
    7.6195   -0.5148    0.0000 C   0  0  0  0  0  0  0  0  0  0  0  0
    7.6195   -1.3398    0.0000 C   0  0  0  0  0  0  0  0  0  0  0  0
    8.0320   -2.0543    0.0000 C   0  0  0  0  0  0  0  0  0  0  0  0
    7.2070   -2.0543    0.0000 O   0  0  0  0  0  0  0  0  0  0  0  0
    2.1649   -1.0631    0.0000 H   0  0  0  0  0  0  0  0  0  0  0  0
    1.7946   -1.7044    0.0000 H   0  0  0  0  0  0  0  0  0  0  0  0
    1.8213   -2.3638    0.0000 H   0  0  0  0  0  0  0  0  0  0  0  0
    3.4010   -4.0291    0.0000 H   0  0  0  0  0  0  0  0  0  0  0  0
    3.8543   -3.2438    0.0000 H   0  0  0  0  0  0  0  0  0  0  0  0
    3.3327    1.1352    0.0000 H   0  0  0  0  0  0  0  0  0  0  0  0
    4.7616    1.9602    0.0000 H   0  0  0  0  0  0  0  0  0  0  0  0
    7.9898    1.8724    0.0000 H   0  0  0  0  0  0  0  0  0  0  0  0
    7.2493    1.8724    0.0000 H   0  0  0  0  0  0  0  0  0  0  0  0
    7.7506    0.1393    0.0000 H   0  0  0  0  0  0  0  0  0  0  0  0
    9.9826    0.6747    0.0000 H   0  0  0  0  0  0  0  0  0  0  0  0
    9.5293    1.4599    0.0000 H   0  0  0  0  0  0  0  0  0  0  0  0
    4.7616   -1.3398    0.0000 H   0  0  0  0  0  0  0  0  0  0  0  0
    8.4405   -0.5963    0.0000 H   0  0  0  0  0  0  0  0  0  0  0  0
    6.9051   -0.9273    0.0000 H   0  0  0  0  0  0  0  0  0  0  0  0
    8.4164   -1.1263    0.0000 H   0  0  0  0  0  0  0  0  0  0  0  0
    8.4023   -2.7916    0.0000 H   0  0  0  0  0  0  0  0  0  0  0  0
    8.8556   -2.0063    0.0000 H   0  0  0  0  0  0  0  0  0  0  0  0
  1  2  2  0  0  0  0
  2  3  1  0  0  0  0
  3  4  1  0  0  0  0
  4  5  1  0  0  0  0
  5  6  1  0  0  0  0
  6  7  1  0  0  0  0
  5  7  1  0  0  0  0
  2  8  1  0  0  0  0
  8  9  4  0  0  0  0
  9 10  4  0  0  0  0
 10 11  4  0  0  0  0
 11 12  1  0  0  0  0
 12 13  2  0  0  0  0
 12 14  1  0  0  0  0
 14 15  1  0  0  0  0
 15 16  1  0  0  0  0
 16 17  1  0  0  0  0
 17 18  1  0  0  0  0
 16 18  1  0  0  0  0
 11 19  4  0  0  0  0
 19 20  4  0  0  0  0
  8 20  4  0  0  0  0
 19 21  1  0  0  0  0
 21 22  2  0  0  0  0
 21 23  1  0  0  0  0
 23 24  1  0  0  0  0
 24 25  1  0  0  0  0
 25 26  1  0  0  0  0
 26 27  1  0  0  0  0
 25 27  1  0  0  0  0
  4 28  1  0  0  0  0
  4 29  1  0  0  0  0
  5 30  1  0  0  0  0
  6 31  1  0  0  0  0
  6 32  1  0  0  0  0
  9 33  1  0  0  0  0
 10 34  1  0  0  0  0
 15 35  1  0  0  0  0
 15 36  1  0  0  0  0
 16 37  1  0  0  0  0
 17 38  1  0  0  0  0
 17 39  1  0  0  0  0
 20 40  1  0  0  0  0
 24 41  1  0  0  0  0
 24 42  1  0  0  0  0
 25 43  1  0  0  0  0
 26 44  1  0  0  0  0
 26 45  1  0  0  0  0
M  END
>  <InChIKey>
YNOWBNNLZSSIHM-UHFFFAOYSA-N

>  <UN GHS>
2A

>  <CASRN>
7237-83-4

> <Outcome>
1

>  <Index>
970

>  <StandardizerResult>
Dearomatize (ID: Dearomatize)
Clear Stereo (ID: ClearStereo)
Wedge Clean (ID: WedgeClean)
Mesomerize (ID: Mesomerize)
Tautomerize (ID: Tautomerize)
Aromatize (ID: Aromatize)
Add Explicit Hydrogens (ID: AddExplicitH)
Neutralize (ID: Neutralize)
Clean 2D (ID: Clean2D)

> <knn Distance>


> <CpId>
970

$$$$
971
  Mrv1532301301811342D          

 17 16  0  0  0  0            999 V2000
    1.7605    1.8414    0.0000 O   0  0  0  0  0  0  0  0  0  0  0  0
    2.4750    1.4289    0.0000 C   0  0  0  0  0  0  0  0  0  0  0  0
    3.1895    1.8414    0.0000 C   0  0  0  0  0  0  0  0  0  0  0  0
    3.9039    1.4289    0.0000 S   0  0  0  0  0  0  0  0  0  0  0  0
    4.6184    1.8414    0.0000 C   0  0  0  0  0  0  0  0  0  0  0  0
    5.3329    1.4289    0.0000 C   0  0  0  0  0  0  0  0  0  0  0  0
    6.0474    1.8414    0.0000 O   0  0  0  0  0  0  0  0  0  0  0  0
    1.7605    2.6664    0.0000 H   0  0  0  0  0  0  0  0  0  0  0  0
    2.1047    0.6917    0.0000 H   0  0  0  0  0  0  0  0  0  0  0  0
    2.8453    0.6917    0.0000 H   0  0  0  0  0  0  0  0  0  0  0  0
    3.5597    2.5786    0.0000 H   0  0  0  0  0  0  0  0  0  0  0  0
    2.8192    2.5786    0.0000 H   0  0  0  0  0  0  0  0  0  0  0  0
    4.9887    2.5786    0.0000 H   0  0  0  0  0  0  0  0  0  0  0  0
    4.2482    2.5786    0.0000 H   0  0  0  0  0  0  0  0  0  0  0  0
    4.9626    0.6917    0.0000 H   0  0  0  0  0  0  0  0  0  0  0  0
    5.7031    0.6917    0.0000 H   0  0  0  0  0  0  0  0  0  0  0  0
    6.7618    1.4289    0.0000 H   0  0  0  0  0  0  0  0  0  0  0  0
  1  2  1  0  0  0  0
  2  3  1  0  0  0  0
  3  4  1  0  0  0  0
  4  5  1  0  0  0  0
  5  6  1  0  0  0  0
  6  7  1  0  0  0  0
  1  8  1  0  0  0  0
  2  9  1  0  0  0  0
  2 10  1  0  0  0  0
  3 11  1  0  0  0  0
  3 12  1  0  0  0  0
  5 13  1  0  0  0  0
  5 14  1  0  0  0  0
  6 15  1  0  0  0  0
  6 16  1  0  0  0  0
  7 17  1  0  0  0  0
M  END
>  <InChIKey>
YODZTKMDCQEPHD-UHFFFAOYSA-N

>  <UN GHS>
2B

>  <CASRN>
111-48-8

> <Outcome>
1

>  <Index>
971

>  <StandardizerResult>
Clear Stereo (ID: ClearStereo)
Wedge Clean (ID: WedgeClean)
Mesomerize (ID: Mesomerize)
Tautomerize (ID: Tautomerize)
Add Explicit Hydrogens (ID: AddExplicitH)
Neutralize (ID: Neutralize)
Clean 2D (ID: Clean2D)

> <knn Distance>


> <CpId>
971

$$$$
973
  Mrv1532301301811342D          

 38 37  0  0  0  0            999 V2000
    4.7586    3.5724    0.0000 N   0  0  0  0  0  0  0  0  0  0  0  0
    5.4730    3.9849    0.0000 C   0  0  0  0  0  0  0  0  0  0  0  0
    6.1875    3.5724    0.0000 C   0  0  0  0  0  0  0  0  0  0  0  0
    6.9020    3.9849    0.0000 C   0  0  0  0  0  0  0  0  0  0  0  0
    7.6164    3.5724    0.0000 O   0  0  0  0  0  0  0  0  0  0  0  0
    8.3309    3.9849    0.0000 C   0  0  0  0  0  0  0  0  0  0  0  0
    9.0454    3.5724    0.0000 C   0  0  0  0  0  0  0  0  0  0  0  0
    9.7599    3.9849    0.0000 C   0  0  0  0  0  0  0  0  0  0  0  0
   10.4743    3.5724    0.0000 C   0  0  0  0  0  0  0  0  0  0  0  0
   11.1888    3.9849    0.0000 O   0  0  0  0  0  0  0  0  0  0  0  0
   11.9033    3.5724    0.0000 C   0  0  0  0  0  0  0  0  0  0  0  0
   12.6177    3.9849    0.0000 C   0  0  0  0  0  0  0  0  0  0  0  0
   13.3322    3.5724    0.0000 C   0  0  0  0  0  0  0  0  0  0  0  0
   14.0467    3.9849    0.0000 N   0  0  0  0  0  0  0  0  0  0  0  0
    4.0441    3.9849    0.0000 H   0  0  0  0  0  0  0  0  0  0  0  0
    4.7586    2.7474    0.0000 H   0  0  0  0  0  0  0  0  0  0  0  0
    5.8433    4.7221    0.0000 H   0  0  0  0  0  0  0  0  0  0  0  0
    5.1028    4.7221    0.0000 H   0  0  0  0  0  0  0  0  0  0  0  0
    5.8172    2.8352    0.0000 H   0  0  0  0  0  0  0  0  0  0  0  0
    6.5578    2.8352    0.0000 H   0  0  0  0  0  0  0  0  0  0  0  0
    7.2722    4.7221    0.0000 H   0  0  0  0  0  0  0  0  0  0  0  0
    6.5317    4.7221    0.0000 H   0  0  0  0  0  0  0  0  0  0  0  0
    8.7012    4.7221    0.0000 H   0  0  0  0  0  0  0  0  0  0  0  0
    7.9607    4.7221    0.0000 H   0  0  0  0  0  0  0  0  0  0  0  0
    8.6751    2.8352    0.0000 H   0  0  0  0  0  0  0  0  0  0  0  0
    9.4156    2.8352    0.0000 H   0  0  0  0  0  0  0  0  0  0  0  0
   10.1301    4.7221    0.0000 H   0  0  0  0  0  0  0  0  0  0  0  0
    9.3896    4.7221    0.0000 H   0  0  0  0  0  0  0  0  0  0  0  0
   10.1041    2.8352    0.0000 H   0  0  0  0  0  0  0  0  0  0  0  0
   10.8446    2.8352    0.0000 H   0  0  0  0  0  0  0  0  0  0  0  0
   11.5330    2.8352    0.0000 H   0  0  0  0  0  0  0  0  0  0  0  0
   12.2735    2.8352    0.0000 H   0  0  0  0  0  0  0  0  0  0  0  0
   12.9880    4.7221    0.0000 H   0  0  0  0  0  0  0  0  0  0  0  0
   12.2475    4.7221    0.0000 H   0  0  0  0  0  0  0  0  0  0  0  0
   12.9620    2.8352    0.0000 H   0  0  0  0  0  0  0  0  0  0  0  0
   13.7025    2.8352    0.0000 H   0  0  0  0  0  0  0  0  0  0  0  0
   14.7612    3.5724    0.0000 H   0  0  0  0  0  0  0  0  0  0  0  0
   14.0467    4.8099    0.0000 H   0  0  0  0  0  0  0  0  0  0  0  0
  1  2  1  0  0  0  0
  2  3  1  0  0  0  0
  3  4  1  0  0  0  0
  4  5  1  0  0  0  0
  5  6  1  0  0  0  0
  6  7  1  0  0  0  0
  7  8  1  0  0  0  0
  8  9  1  0  0  0  0
  9 10  1  0  0  0  0
 10 11  1  0  0  0  0
 11 12  1  0  0  0  0
 12 13  1  0  0  0  0
 13 14  1  0  0  0  0
  1 15  1  0  0  0  0
  1 16  1  0  0  0  0
  2 17  1  0  0  0  0
  2 18  1  0  0  0  0
  3 19  1  0  0  0  0
  3 20  1  0  0  0  0
  4 21  1  0  0  0  0
  4 22  1  0  0  0  0
  6 23  1  0  0  0  0
  6 24  1  0  0  0  0
  7 25  1  0  0  0  0
  7 26  1  0  0  0  0
  8 27  1  0  0  0  0
  8 28  1  0  0  0  0
  9 29  1  0  0  0  0
  9 30  1  0  0  0  0
 11 31  1  0  0  0  0
 11 32  1  0  0  0  0
 12 33  1  0  0  0  0
 12 34  1  0  0  0  0
 13 35  1  0  0  0  0
 13 36  1  0  0  0  0
 14 37  1  0  0  0  0
 14 38  1  0  0  0  0
M  END
>  <InChIKey>
YOOSAIJKYCBPFW-UHFFFAOYSA-N

>  <UN GHS>
1

>  <CASRN>
7300-34-7

> <Outcome>
1

>  <Index>
973

>  <StandardizerResult>
Clear Stereo (ID: ClearStereo)
Wedge Clean (ID: WedgeClean)
Mesomerize (ID: Mesomerize)
Tautomerize (ID: Tautomerize)
Add Explicit Hydrogens (ID: AddExplicitH)
Neutralize (ID: Neutralize)
Clean 2D (ID: Clean2D)

> <knn Distance>


> <CpId>
973

$$$$
979
  Mrv1532301301811342D          

 24 23  0  0  0  0            999 V2000
    1.0562    1.4324    0.0000 C   0  0  0  0  0  0  0  0  0  0  0  0
    1.7707    1.8449    0.0000 N   0  0  0  0  0  0  0  0  0  0  0  0
    1.7707    2.6699    0.0000 C   0  0  0  0  0  0  0  0  0  0  0  0
    2.4852    1.4324    0.0000 C   0  0  0  0  0  0  0  0  0  0  0  0
    3.1996    1.8449    0.0000 C   0  0  0  0  0  0  0  0  0  0  0  0
    3.9141    1.4324    0.0000 O   0  0  0  0  0  0  0  0  0  0  0  0
    4.6286    1.8449    0.0000 C   0  0  0  0  0  0  0  0  0  0  0  0
    5.3431    1.4324    0.0000 C   0  0  0  0  0  0  0  0  0  0  0  0
    6.0575    1.8449    0.0000 O   0  0  0  0  0  0  0  0  0  0  0  0
    0.6437    2.1469    0.0000 H   0  0  0  0  0  0  0  0  0  0  0  0
    0.3418    1.0199    0.0000 H   0  0  0  0  0  0  0  0  0  0  0  0
    1.4687    0.7179    0.0000 H   0  0  0  0  0  0  0  0  0  0  0  0
    2.5957    2.6699    0.0000 H   0  0  0  0  0  0  0  0  0  0  0  0
    1.7707    3.4949    0.0000 H   0  0  0  0  0  0  0  0  0  0  0  0
    0.9457    2.6699    0.0000 H   0  0  0  0  0  0  0  0  0  0  0  0
    2.1149    0.6952    0.0000 H   0  0  0  0  0  0  0  0  0  0  0  0
    2.8554    0.6952    0.0000 H   0  0  0  0  0  0  0  0  0  0  0  0
    3.5699    2.5821    0.0000 H   0  0  0  0  0  0  0  0  0  0  0  0
    2.8294    2.5821    0.0000 H   0  0  0  0  0  0  0  0  0  0  0  0
    4.9989    2.5821    0.0000 H   0  0  0  0  0  0  0  0  0  0  0  0
    4.2583    2.5821    0.0000 H   0  0  0  0  0  0  0  0  0  0  0  0
    4.9728    0.6952    0.0000 H   0  0  0  0  0  0  0  0  0  0  0  0
    5.7133    0.6952    0.0000 H   0  0  0  0  0  0  0  0  0  0  0  0
    6.7720    1.4324    0.0000 H   0  0  0  0  0  0  0  0  0  0  0  0
  1  2  1  0  0  0  0
  2  3  1  0  0  0  0
  2  4  1  0  0  0  0
  4  5  1  0  0  0  0
  5  6  1  0  0  0  0
  6  7  1  0  0  0  0
  7  8  1  0  0  0  0
  8  9  1  0  0  0  0
  1 10  1  0  0  0  0
  1 11  1  0  0  0  0
  1 12  1  0  0  0  0
  3 13  1  0  0  0  0
  3 14  1  0  0  0  0
  3 15  1  0  0  0  0
  4 16  1  0  0  0  0
  4 17  1  0  0  0  0
  5 18  1  0  0  0  0
  5 19  1  0  0  0  0
  7 20  1  0  0  0  0
  7 21  1  0  0  0  0
  8 22  1  0  0  0  0
  8 23  1  0  0  0  0
  9 24  1  0  0  0  0
M  END
>  <InChIKey>
YSAANLSYLSUVHB-UHFFFAOYSA-N

>  <UN GHS>
1

>  <CASRN>
1704-62-7

> <Outcome>
1

>  <Index>
979

>  <StandardizerResult>
Clear Stereo (ID: ClearStereo)
Wedge Clean (ID: WedgeClean)
Mesomerize (ID: Mesomerize)
Tautomerize (ID: Tautomerize)
Add Explicit Hydrogens (ID: AddExplicitH)
Neutralize (ID: Neutralize)
Clean 2D (ID: Clean2D)

> <knn Distance>


> <CpId>
979

$$$$
980
  Mrv1532301301811342D          

 32 32  0  0  0  0            999 V2000
   -0.6434    2.3114    0.0000 C   0  0  0  0  0  0  0  0  0  0  0  0
   -0.6434    1.4864    0.0000 C   0  0  0  0  0  0  0  0  0  0  0  0
   -1.3578    1.0739    0.0000 C   0  0  0  0  0  0  0  0  0  0  0  0
    0.0711    1.0739    0.0000 C   0  0  0  0  0  0  0  0  0  0  0  0
    0.0711    0.2489    0.0000 C   0  0  0  0  0  0  0  0  0  0  0  0
    0.7856   -0.1636    0.0000 C   0  0  0  0  0  0  0  0  0  0  0  0
    0.7856   -0.9886    0.0000 C   0  0  0  0  0  0  0  0  0  0  0  0
    1.5980   -0.8453    0.0000 C   0  0  0  0  0  0  0  0  0  0  0  0
    1.0677   -1.7638    0.0000 O   0  0  0  0  0  0  0  0  0  0  0  0
    0.0711   -1.4011    0.0000 C   0  0  0  0  0  0  0  0  0  0  0  0
   -0.6434   -0.9886    0.0000 C   0  0  0  0  0  0  0  0  0  0  0  0
   -0.6434   -0.1636    0.0000 O   0  0  0  0  0  0  0  0  0  0  0  0
    0.1816    2.3114    0.0000 H   0  0  0  0  0  0  0  0  0  0  0  0
   -0.6434    3.1364    0.0000 H   0  0  0  0  0  0  0  0  0  0  0  0
   -1.4684    2.3114    0.0000 H   0  0  0  0  0  0  0  0  0  0  0  0
   -1.3578    1.8989    0.0000 H   0  0  0  0  0  0  0  0  0  0  0  0
   -2.1547    1.2875    0.0000 H   0  0  0  0  0  0  0  0  0  0  0  0
   -1.7703    0.3595    0.0000 H   0  0  0  0  0  0  0  0  0  0  0  0
   -0.7745    0.4906    0.0000 H   0  0  0  0  0  0  0  0  0  0  0  0
    0.8947    1.1219    0.0000 H   0  0  0  0  0  0  0  0  0  0  0  0
    0.5245    1.7632    0.0000 H   0  0  0  0  0  0  0  0  0  0  0  0
    0.7856    0.6614    0.0000 H   0  0  0  0  0  0  0  0  0  0  0  0
    1.5608   -0.4457    0.0000 H   0  0  0  0  0  0  0  0  0  0  0  0
    1.5608    0.1186    0.0000 H   0  0  0  0  0  0  0  0  0  0  0  0
    1.3922   -1.6442    0.0000 H   0  0  0  0  0  0  0  0  0  0  0  0
    2.2401   -1.3633    0.0000 H   0  0  0  0  0  0  0  0  0  0  0  0
    2.3353   -0.4751    0.0000 H   0  0  0  0  0  0  0  0  0  0  0  0
    0.7206   -2.5122    0.0000 H   0  0  0  0  0  0  0  0  0  0  0  0
   -0.2991   -2.1383    0.0000 H   0  0  0  0  0  0  0  0  0  0  0  0
    0.4414   -2.1383    0.0000 H   0  0  0  0  0  0  0  0  0  0  0  0
   -1.4670   -1.0365    0.0000 H   0  0  0  0  0  0  0  0  0  0  0  0
   -1.0967   -1.6778    0.0000 H   0  0  0  0  0  0  0  0  0  0  0  0
  1  2  1  0  0  0  0
  2  3  1  0  0  0  0
  2  4  1  0  0  0  0
  4  5  1  0  0  0  0
  5  6  1  0  0  0  0
  6  7  1  0  0  0  0
  7  8  1  0  0  0  0
  7  9  1  0  0  0  0
  7 10  1  0  0  0  0
 10 11  1  0  0  0  0
 11 12  1  0  0  0  0
  5 12  1  0  0  0  0
  1 13  1  0  0  0  0
  1 14  1  0  0  0  0
  1 15  1  0  0  0  0
  2 16  1  0  0  0  0
  3 17  1  0  0  0  0
  3 18  1  0  0  0  0
  3 19  1  0  0  0  0
  4 20  1  0  0  0  0
  4 21  1  0  0  0  0
  5 22  1  0  0  0  0
  6 23  1  0  0  0  0
  6 24  1  0  0  0  0
  8 25  1  0  0  0  0
  8 26  1  0  0  0  0
  8 27  1  0  0  0  0
  9 28  1  0  0  0  0
 10 29  1  0  0  0  0
 10 30  1  0  0  0  0
 11 31  1  0  0  0  0
 11 32  1  0  0  0  0
M  END
>  <InChIKey>
YVSNOTITPICPTB-UHFFFAOYSA-N

>  <UN GHS>
2A

>  <CASRN>
63500-71-0

> <Outcome>
1

>  <Index>
980

>  <StandardizerResult>
Clear Stereo (ID: ClearStereo)
Wedge Clean (ID: WedgeClean)
Mesomerize (ID: Mesomerize)
Tautomerize (ID: Tautomerize)
Add Explicit Hydrogens (ID: AddExplicitH)
Neutralize (ID: Neutralize)
Clean 2D (ID: Clean2D)

> <knn Distance>


> <CpId>
980

$$$$
981
  Mrv1532301301811342D          

 40 39  0  0  0  0            999 V2000
    3.5221    2.8511    0.0000 C   0  0  0  0  0  0  0  0  0  0  0  0
    4.2365    3.2636    0.0000 C   0  0  0  0  0  0  0  0  0  0  0  0
    4.9510    2.8511    0.0000 C   0  0  0  0  0  0  0  0  0  0  0  0
    5.6655    3.2636    0.0000 C   0  0  0  0  0  0  0  0  0  0  0  0
    6.3800    2.8511    0.0000 C   0  0  0  0  0  0  0  0  0  0  0  0
    7.0944    3.2636    0.0000 C   0  0  0  0  0  0  0  0  0  0  0  0
    7.8089    2.8511    0.0000 C   0  0  0  0  0  0  0  0  0  0  0  0
    8.5234    3.2636    0.0000 C   0  0  0  0  0  0  0  0  0  0  0  0
    9.2378    2.8511    0.0000 C   0  0  0  0  0  0  0  0  0  0  0  0
    9.9523    3.2636    0.0000 C   0  0  0  0  0  0  0  0  0  0  0  0
   10.6668    2.8511    0.0000 N   0  0  0  0  0  0  0  0  0  0  0  0
   11.3813    3.2636    0.0000 C   0  0  0  0  0  0  0  0  0  0  0  0
   10.6668    2.0261    0.0000 C   0  0  0  0  0  0  0  0  0  0  0  0
    3.1096    3.5656    0.0000 H   0  0  0  0  0  0  0  0  0  0  0  0
    2.8076    2.4386    0.0000 H   0  0  0  0  0  0  0  0  0  0  0  0
    3.9346    2.1366    0.0000 H   0  0  0  0  0  0  0  0  0  0  0  0
    4.6068    4.0008    0.0000 H   0  0  0  0  0  0  0  0  0  0  0  0
    3.8663    4.0008    0.0000 H   0  0  0  0  0  0  0  0  0  0  0  0
    4.5808    2.1138    0.0000 H   0  0  0  0  0  0  0  0  0  0  0  0
    5.3213    2.1138    0.0000 H   0  0  0  0  0  0  0  0  0  0  0  0
    6.0357    4.0008    0.0000 H   0  0  0  0  0  0  0  0  0  0  0  0
    5.2952    4.0008    0.0000 H   0  0  0  0  0  0  0  0  0  0  0  0
    6.0097    2.1138    0.0000 H   0  0  0  0  0  0  0  0  0  0  0  0
    6.7502    2.1138    0.0000 H   0  0  0  0  0  0  0  0  0  0  0  0
    7.4647    4.0008    0.0000 H   0  0  0  0  0  0  0  0  0  0  0  0
    6.7242    4.0008    0.0000 H   0  0  0  0  0  0  0  0  0  0  0  0
    7.4386    2.1138    0.0000 H   0  0  0  0  0  0  0  0  0  0  0  0
    8.1792    2.1138    0.0000 H   0  0  0  0  0  0  0  0  0  0  0  0
    8.8936    4.0008    0.0000 H   0  0  0  0  0  0  0  0  0  0  0  0
    8.1531    4.0008    0.0000 H   0  0  0  0  0  0  0  0  0  0  0  0
    8.8676    2.1138    0.0000 H   0  0  0  0  0  0  0  0  0  0  0  0
    9.6081    2.1138    0.0000 H   0  0  0  0  0  0  0  0  0  0  0  0
   10.3226    4.0008    0.0000 H   0  0  0  0  0  0  0  0  0  0  0  0
    9.5820    4.0008    0.0000 H   0  0  0  0  0  0  0  0  0  0  0  0
   11.7938    2.5491    0.0000 H   0  0  0  0  0  0  0  0  0  0  0  0
   12.0957    3.6761    0.0000 H   0  0  0  0  0  0  0  0  0  0  0  0
   10.9688    3.9781    0.0000 H   0  0  0  0  0  0  0  0  0  0  0  0
    9.8418    2.0261    0.0000 H   0  0  0  0  0  0  0  0  0  0  0  0
   10.6668    1.2011    0.0000 H   0  0  0  0  0  0  0  0  0  0  0  0
   11.4918    2.0261    0.0000 H   0  0  0  0  0  0  0  0  0  0  0  0
  1  2  1  0  0  0  0
  2  3  1  0  0  0  0
  3  4  1  0  0  0  0
  4  5  1  0  0  0  0
  5  6  1  0  0  0  0
  6  7  1  0  0  0  0
  7  8  1  0  0  0  0
  8  9  1  0  0  0  0
  9 10  1  0  0  0  0
 10 11  1  0  0  0  0
 11 12  1  0  0  0  0
 11 13  1  0  0  0  0
  1 14  1  0  0  0  0
  1 15  1  0  0  0  0
  1 16  1  0  0  0  0
  2 17  1  0  0  0  0
  2 18  1  0  0  0  0
  3 19  1  0  0  0  0
  3 20  1  0  0  0  0
  4 21  1  0  0  0  0
  4 22  1  0  0  0  0
  5 23  1  0  0  0  0
  5 24  1  0  0  0  0
  6 25  1  0  0  0  0
  6 26  1  0  0  0  0
  7 27  1  0  0  0  0
  7 28  1  0  0  0  0
  8 29  1  0  0  0  0
  8 30  1  0  0  0  0
  9 31  1  0  0  0  0
  9 32  1  0  0  0  0
 10 33  1  0  0  0  0
 10 34  1  0  0  0  0
 12 35  1  0  0  0  0
 12 36  1  0  0  0  0
 12 37  1  0  0  0  0
 13 38  1  0  0  0  0
 13 39  1  0  0  0  0
 13 40  1  0  0  0  0
M  END
>  <InChIKey>
YWWNNLPSZSEZNZ-UHFFFAOYSA-N

>  <UN GHS>
2A

>  <CASRN>
1120-24-7

> <Outcome>
1

>  <Index>
981

>  <StandardizerResult>
Clear Stereo (ID: ClearStereo)
Wedge Clean (ID: WedgeClean)
Mesomerize (ID: Mesomerize)
Tautomerize (ID: Tautomerize)
Add Explicit Hydrogens (ID: AddExplicitH)
Neutralize (ID: Neutralize)
Clean 2D (ID: Clean2D)

> <knn Distance>


> <CpId>
981

$$$$
985
  Mrv1532301301811342D          

 36 35  0  0  0  0            999 V2000
   14.5697   -3.4618    0.0000 N   0  0  0  0  0  0  0  0  0  0  0  0
   14.5697   -4.2868    0.0000 C   0  0  0  0  0  0  0  0  0  0  0  0
   13.8552   -4.6993    0.0000 N   0  0  0  0  0  0  0  0  0  0  0  0
   13.1408   -4.2868    0.0000 C   0  0  0  0  0  0  0  0  0  0  0  0
   12.4263   -4.6993    0.0000 C   0  0  0  0  0  0  0  0  0  0  0  0
   11.7118   -4.2868    0.0000 C   0  0  0  0  0  0  0  0  0  0  0  0
   10.9974   -4.6993    0.0000 C   0  0  0  0  0  0  0  0  0  0  0  0
   10.2829   -4.2868    0.0000 C   0  0  0  0  0  0  0  0  0  0  0  0
    9.5684   -4.6993    0.0000 C   0  0  0  0  0  0  0  0  0  0  0  0
    8.8539   -4.2868    0.0000 N   0  0  0  0  0  0  0  0  0  0  0  0
    8.1395   -4.6993    0.0000 C   0  0  0  0  0  0  0  0  0  0  0  0
    8.1395   -5.5243    0.0000 N   0  0  0  0  0  0  0  0  0  0  0  0
    7.4250   -4.2868    0.0000 N   0  0  0  0  0  0  0  0  0  0  0  0
    6.7105   -4.6993    0.0000 C   0  0  0  0  0  0  0  0  0  0  0  0
    5.9961   -5.1118    0.0000 N   0  0  0  0  0  0  0  0  0  0  0  0
   15.2842   -4.6993    0.0000 N   0  0  0  0  0  0  0  0  0  0  0  0
   15.9987   -4.2868    0.0000 C   0  0  0  0  0  0  0  0  0  0  0  0
   16.7131   -3.8743    0.0000 N   0  0  0  0  0  0  0  0  0  0  0  0
   15.2842   -3.0493    0.0000 H   0  0  0  0  0  0  0  0  0  0  0  0
   13.8552   -5.5243    0.0000 H   0  0  0  0  0  0  0  0  0  0  0  0
   13.5110   -3.5496    0.0000 H   0  0  0  0  0  0  0  0  0  0  0  0
   12.7705   -3.5496    0.0000 H   0  0  0  0  0  0  0  0  0  0  0  0
   12.0560   -5.4365    0.0000 H   0  0  0  0  0  0  0  0  0  0  0  0
   12.7966   -5.4365    0.0000 H   0  0  0  0  0  0  0  0  0  0  0  0
   12.0821   -3.5496    0.0000 H   0  0  0  0  0  0  0  0  0  0  0  0
   11.3416   -3.5496    0.0000 H   0  0  0  0  0  0  0  0  0  0  0  0
   10.6271   -5.4365    0.0000 H   0  0  0  0  0  0  0  0  0  0  0  0
   11.3676   -5.4365    0.0000 H   0  0  0  0  0  0  0  0  0  0  0  0
   10.6531   -3.5496    0.0000 H   0  0  0  0  0  0  0  0  0  0  0  0
    9.9126   -3.5496    0.0000 H   0  0  0  0  0  0  0  0  0  0  0  0
    9.1982   -5.4365    0.0000 H   0  0  0  0  0  0  0  0  0  0  0  0
    9.9387   -5.4365    0.0000 H   0  0  0  0  0  0  0  0  0  0  0  0
    8.8539   -3.4618    0.0000 H   0  0  0  0  0  0  0  0  0  0  0  0
    7.4250   -5.9368    0.0000 H   0  0  0  0  0  0  0  0  0  0  0  0
    7.4250   -3.4618    0.0000 H   0  0  0  0  0  0  0  0  0  0  0  0
   15.2842   -5.5243    0.0000 H   0  0  0  0  0  0  0  0  0  0  0  0
  1  2  2  0  0  0  0
  2  3  1  0  0  0  0
  3  4  1  0  0  0  0
  4  5  1  0  0  0  0
  5  6  1  0  0  0  0
  6  7  1  0  0  0  0
  7  8  1  0  0  0  0
  8  9  1  0  0  0  0
  9 10  1  0  0  0  0
 10 11  1  0  0  0  0
 11 12  2  0  0  0  0
 11 13  1  0  0  0  0
 13 14  1  0  0  0  0
 14 15  3  0  0  0  0
  2 16  1  0  0  0  0
 16 17  1  0  0  0  0
 17 18  3  0  0  0  0
  1 19  1  0  0  0  0
  3 20  1  0  0  0  0
  4 21  1  0  0  0  0
  4 22  1  0  0  0  0
  5 23  1  0  0  0  0
  5 24  1  0  0  0  0
  6 25  1  0  0  0  0
  6 26  1  0  0  0  0
  7 27  1  0  0  0  0
  7 28  1  0  0  0  0
  8 29  1  0  0  0  0
  8 30  1  0  0  0  0
  9 31  1  0  0  0  0
  9 32  1  0  0  0  0
 10 33  1  0  0  0  0
 12 34  1  0  0  0  0
 13 35  1  0  0  0  0
 16 36  1  0  0  0  0
M  END
>  <InChIKey>
YXZZOMVBHPCKMM-UHFFFAOYSA-N

>  <UN GHS>
2B

>  <CASRN>
15894-70-9

> <Outcome>
1

>  <Index>
985

>  <StandardizerResult>
Clear Stereo (ID: ClearStereo)
Wedge Clean (ID: WedgeClean)
Mesomerize (ID: Mesomerize)
Tautomerize (ID: Tautomerize)
Add Explicit Hydrogens (ID: AddExplicitH)
Neutralize (ID: Neutralize)
Clean 2D (ID: Clean2D)

> <knn Distance>


> <CpId>
985

$$$$
986
  Mrv1532301301811342D          

 18 18  0  0  0  0            999 V2000
    0.7145    2.0625    0.0000 C   0  0  0  0  0  0  0  0  0  0  0  0
    0.7145    1.2375    0.0000 C   0  0  0  0  0  0  0  0  0  0  0  0
    1.4290    0.8250    0.0000 C   0  0  0  0  0  0  0  0  0  0  0  0
    1.4290   -0.0000    0.0000 C   0  0  0  0  0  0  0  0  0  0  0  0
    0.7145   -0.4125    0.0000 C   0  0  0  0  0  0  0  0  0  0  0  0
    0.0000    0.0000    0.0000 C   0  0  0  0  0  0  0  0  0  0  0  0
    0.0000    0.8250    0.0000 C   0  0  0  0  0  0  0  0  0  0  0  0
    0.7145   -1.2375    0.0000 S   0  0  0  0  0  0  0  0  0  0  0  0
    0.7145   -2.0625    0.0000 Cl  0  0  0  0  0  0  0  0  0  0  0  0
   -0.1105   -1.2375    0.0000 O   0  0  0  0  0  0  0  0  0  0  0  0
    1.5395   -1.2375    0.0000 O   0  0  0  0  0  0  0  0  0  0  0  0
    1.5395    2.0625    0.0000 H   0  0  0  0  0  0  0  0  0  0  0  0
    0.7145    2.8875    0.0000 H   0  0  0  0  0  0  0  0  0  0  0  0
   -0.1105    2.0625    0.0000 H   0  0  0  0  0  0  0  0  0  0  0  0
    2.1434    1.2375    0.0000 H   0  0  0  0  0  0  0  0  0  0  0  0
    2.1434   -0.4125    0.0000 H   0  0  0  0  0  0  0  0  0  0  0  0
   -0.7145   -0.4125    0.0000 H   0  0  0  0  0  0  0  0  0  0  0  0
   -0.7145    1.2375    0.0000 H   0  0  0  0  0  0  0  0  0  0  0  0
  1  2  1  0  0  0  0
  2  3  4  0  0  0  0
  3  4  4  0  0  0  0
  4  5  4  0  0  0  0
  5  6  4  0  0  0  0
  6  7  4  0  0  0  0
  2  7  4  0  0  0  0
  5  8  1  0  0  0  0
  8  9  1  0  0  0  0
  8 10  2  0  0  0  0
  8 11  2  0  0  0  0
  1 12  1  0  0  0  0
  1 13  1  0  0  0  0
  1 14  1  0  0  0  0
  3 15  1  0  0  0  0
  4 16  1  0  0  0  0
  6 17  1  0  0  0  0
  7 18  1  0  0  0  0
M  END
>  <InChIKey>
YYROPELSRYBVMQ-UHFFFAOYSA-N

>  <UN GHS>
1

>  <CASRN>
98-59-9

> <Outcome>
1

>  <Index>
986

>  <StandardizerResult>
Dearomatize (ID: Dearomatize)
Clear Stereo (ID: ClearStereo)
Wedge Clean (ID: WedgeClean)
Mesomerize (ID: Mesomerize)
Tautomerize (ID: Tautomerize)
Aromatize (ID: Aromatize)
Add Explicit Hydrogens (ID: AddExplicitH)
Neutralize (ID: Neutralize)
Clean 2D (ID: Clean2D)

> <knn Distance>


> <CpId>
986

$$$$
987
  Mrv1532301301811342D          

 58 57  0  0  0  0            999 V2000
    7.1838    5.0137    0.0000 C   0  0  0  0  0  0  0  0  0  0  0  0
    7.8983    5.4262    0.0000 C   0  0  0  0  0  0  0  0  0  0  0  0
    8.6127    5.0137    0.0000 C   0  0  0  0  0  0  0  0  0  0  0  0
    9.3272    5.4262    0.0000 C   0  0  0  0  0  0  0  0  0  0  0  0
   10.0417    5.0137    0.0000 C   0  0  0  0  0  0  0  0  0  0  0  0
   10.0417    4.1887    0.0000 C   0  0  0  0  0  0  0  0  0  0  0  0
   10.7562    3.7762    0.0000 C   0  0  0  0  0  0  0  0  0  0  0  0
   10.7562    5.4262    0.0000 C   0  0  0  0  0  0  0  0  0  0  0  0
   11.4706    5.0137    0.0000 O   0  0  0  0  0  0  0  0  0  0  0  0
   12.1851    5.4262    0.0000 C   0  0  0  0  0  0  0  0  0  0  0  0
   12.1851    6.2512    0.0000 O   0  0  0  0  0  0  0  0  0  0  0  0
   12.8996    5.0137    0.0000 O   0  0  0  0  0  0  0  0  0  0  0  0
   13.6140    5.4262    0.0000 O   0  0  0  0  0  0  0  0  0  0  0  0
   14.3285    5.0137    0.0000 C   0  0  0  0  0  0  0  0  0  0  0  0
   14.3285    4.1887    0.0000 O   0  0  0  0  0  0  0  0  0  0  0  0
   15.0430    5.4262    0.0000 O   0  0  0  0  0  0  0  0  0  0  0  0
   15.7575    5.0137    0.0000 C   0  0  0  0  0  0  0  0  0  0  0  0
   16.4719    5.4262    0.0000 C   0  0  0  0  0  0  0  0  0  0  0  0
   16.4719    6.2512    0.0000 C   0  0  0  0  0  0  0  0  0  0  0  0
   17.1864    6.6637    0.0000 C   0  0  0  0  0  0  0  0  0  0  0  0
   17.1864    5.0137    0.0000 C   0  0  0  0  0  0  0  0  0  0  0  0
   17.9009    5.4262    0.0000 C   0  0  0  0  0  0  0  0  0  0  0  0
   18.6153    5.0137    0.0000 C   0  0  0  0  0  0  0  0  0  0  0  0
   19.3298    5.4262    0.0000 C   0  0  0  0  0  0  0  0  0  0  0  0
    6.7713    5.7282    0.0000 H   0  0  0  0  0  0  0  0  0  0  0  0
    6.4693    4.6012    0.0000 H   0  0  0  0  0  0  0  0  0  0  0  0
    7.5963    4.2992    0.0000 H   0  0  0  0  0  0  0  0  0  0  0  0
    8.2685    6.1635    0.0000 H   0  0  0  0  0  0  0  0  0  0  0  0
    7.5280    6.1635    0.0000 H   0  0  0  0  0  0  0  0  0  0  0  0
    8.2425    4.2765    0.0000 H   0  0  0  0  0  0  0  0  0  0  0  0
    8.9830    4.2765    0.0000 H   0  0  0  0  0  0  0  0  0  0  0  0
    9.6975    6.1635    0.0000 H   0  0  0  0  0  0  0  0  0  0  0  0
    8.9570    6.1635    0.0000 H   0  0  0  0  0  0  0  0  0  0  0  0
    9.3272    4.6012    0.0000 H   0  0  0  0  0  0  0  0  0  0  0  0
    9.4097    3.6584    0.0000 H   0  0  0  0  0  0  0  0  0  0  0  0
    9.8984    3.3762    0.0000 H   0  0  0  0  0  0  0  0  0  0  0  0
   10.9171    2.9671    0.0000 H   0  0  0  0  0  0  0  0  0  0  0  0
   11.5804    3.7402    0.0000 H   0  0  0  0  0  0  0  0  0  0  0  0
   10.9870    4.5682    0.0000 H   0  0  0  0  0  0  0  0  0  0  0  0
   11.1264    6.1635    0.0000 H   0  0  0  0  0  0  0  0  0  0  0  0
   10.3859    6.1635    0.0000 H   0  0  0  0  0  0  0  0  0  0  0  0
   15.3872    4.2765    0.0000 H   0  0  0  0  0  0  0  0  0  0  0  0
   16.1277    4.2765    0.0000 H   0  0  0  0  0  0  0  0  0  0  0  0
   15.7575    5.8387    0.0000 H   0  0  0  0  0  0  0  0  0  0  0  0
   16.3287    7.0637    0.0000 H   0  0  0  0  0  0  0  0  0  0  0  0
   15.8399    6.7815    0.0000 H   0  0  0  0  0  0  0  0  0  0  0  0
   17.4173    5.8717    0.0000 H   0  0  0  0  0  0  0  0  0  0  0  0
   18.0106    6.6997    0.0000 H   0  0  0  0  0  0  0  0  0  0  0  0
   17.3473    7.4729    0.0000 H   0  0  0  0  0  0  0  0  0  0  0  0
   16.8161    4.2765    0.0000 H   0  0  0  0  0  0  0  0  0  0  0  0
   17.5567    4.2765    0.0000 H   0  0  0  0  0  0  0  0  0  0  0  0
   18.3896    6.0909    0.0000 H   0  0  0  0  0  0  0  0  0  0  0  0
   17.9009    4.6012    0.0000 H   0  0  0  0  0  0  0  0  0  0  0  0
   18.7586    4.2012    0.0000 H   0  0  0  0  0  0  0  0  0  0  0  0
   19.2473    4.4834    0.0000 H   0  0  0  0  0  0  0  0  0  0  0  0
   20.1110    5.1610    0.0000 H   0  0  0  0  0  0  0  0  0  0  0  0
   19.7731    6.1220    0.0000 H   0  0  0  0  0  0  0  0  0  0  0  0
   18.7593    6.0222    0.0000 H   0  0  0  0  0  0  0  0  0  0  0  0
  1  2  1  0  0  0  0
  2  3  1  0  0  0  0
  3  4  1  0  0  0  0
  4  5  1  0  0  0  0
  5  6  1  0  0  0  0
  6  7  1  0  0  0  0
  5  8  1  0  0  0  0
  8  9  1  0  0  0  0
  9 10  1  0  0  0  0
 10 11  2  0  0  0  0
 10 12  1  0  0  0  0
 12 13  1  0  0  0  0
 13 14  1  0  0  0  0
 14 15  2  0  0  0  0
 14 16  1  0  0  0  0
 16 17  1  0  0  0  0
 17 18  1  0  0  0  0
 18 19  1  0  0  0  0
 19 20  1  0  0  0  0
 18 21  1  0  0  0  0
 21 22  1  0  0  0  0
 22 23  1  0  0  0  0
 23 24  1  0  0  0  0
  1 25  1  0  0  0  0
  1 26  1  0  0  0  0
  1 27  1  0  0  0  0
  2 28  1  0  0  0  0
  2 29  1  0  0  0  0
  3 30  1  0  0  0  0
  3 31  1  0  0  0  0
  4 32  1  0  0  0  0
  4 33  1  0  0  0  0
  5 34  1  0  0  0  0
  6 35  1  0  0  0  0
  6 36  1  0  0  0  0
  7 37  1  0  0  0  0
  7 38  1  0  0  0  0
  7 39  1  0  0  0  0
  8 40  1  0  0  0  0
  8 41  1  0  0  0  0
 17 42  1  0  0  0  0
 17 43  1  0  0  0  0
 18 44  1  0  0  0  0
 19 45  1  0  0  0  0
 19 46  1  0  0  0  0
 20 47  1  0  0  0  0
 20 48  1  0  0  0  0
 20 49  1  0  0  0  0
 21 50  1  0  0  0  0
 21 51  1  0  0  0  0
 22 52  1  0  0  0  0
 22 53  1  0  0  0  0
 23 54  1  0  0  0  0
 23 55  1  0  0  0  0
 24 56  1  0  0  0  0
 24 57  1  0  0  0  0
 24 58  1  0  0  0  0
M  END
>  <InChIKey>
ZACVGCNKGYYQHA-UHFFFAOYSA-N

>  <UN GHS>
2A

>  <CASRN>
16111-62-9

> <Outcome>
1

>  <Index>
987

>  <StandardizerResult>
Clear Stereo (ID: ClearStereo)
Wedge Clean (ID: WedgeClean)
Mesomerize (ID: Mesomerize)
Tautomerize (ID: Tautomerize)
Add Explicit Hydrogens (ID: AddExplicitH)
Neutralize (ID: Neutralize)
Clean 2D (ID: Clean2D)

> <knn Distance>


> <CpId>
987

$$$$
1002
  Mrv1532301301811342D          

  6  5  0  0  0  0            999 V2000
    1.8010   -1.2780    0.0000 N   0  0  0  0  0  0  0  0  0  0  0  0
    1.3885   -0.5635    0.0000 C   0  0  0  0  0  0  0  0  0  0  0  0
    0.5635   -0.5635    0.0000 O   0  0  0  0  0  0  0  0  0  0  0  0
    1.3885   -1.9925    0.0000 H   0  0  0  0  0  0  0  0  0  0  0  0
    2.6260   -1.2780    0.0000 H   0  0  0  0  0  0  0  0  0  0  0  0
    1.8010    0.1510    0.0000 H   0  0  0  0  0  0  0  0  0  0  0  0
  1  2  1  0  0  0  0
  2  3  2  0  0  0  0
  1  4  1  0  0  0  0
  1  5  1  0  0  0  0
  2  6  1  0  0  0  0
M  END
>  <InChIKey>
ZHNUHDYFZUAESO-UHFFFAOYSA-N

>  <UN GHS>
2B

>  <CASRN>
75-12-7

> <Outcome>
1

>  <Index>
1002

>  <StandardizerResult>
Mesomerize (ID: Mesomerize)
Tautomerize (ID: Tautomerize)
Add Explicit Hydrogens (ID: AddExplicitH)
Neutralize (ID: Neutralize)
Clean 2D (ID: Clean2D)

> <knn Distance>


> <CpId>
1002

$$$$
1003
  Mrv1532301301811342D          

 15 14  0  0  0  0            999 V2000
    1.7605   -1.8414    0.0000 C   0  0  0  0  0  0  0  0  0  0  0  0
    2.4750   -1.4289    0.0000 C   0  0  0  0  0  0  0  0  0  0  0  0
    3.1895   -1.8414    0.0000 O   0  0  0  0  0  0  0  0  0  0  0  0
    3.9039   -1.4289    0.0000 C   0  0  0  0  0  0  0  0  0  0  0  0
    3.9039   -0.6039    0.0000 O   0  0  0  0  0  0  0  0  0  0  0  0
    4.6184   -1.8414    0.0000 C   0  0  0  0  0  0  0  0  0  0  0  0
    5.3329   -1.4289    0.0000 C   0  0  0  0  0  0  0  0  0  0  0  0
    6.0473   -1.0164    0.0000 N   0  0  0  0  0  0  0  0  0  0  0  0
    1.3480   -1.1269    0.0000 H   0  0  0  0  0  0  0  0  0  0  0  0
    1.0460   -2.2539    0.0000 H   0  0  0  0  0  0  0  0  0  0  0  0
    2.1730   -2.5559    0.0000 H   0  0  0  0  0  0  0  0  0  0  0  0
    2.8452   -0.6917    0.0000 H   0  0  0  0  0  0  0  0  0  0  0  0
    2.1047   -0.6917    0.0000 H   0  0  0  0  0  0  0  0  0  0  0  0
    4.2481   -2.5786    0.0000 H   0  0  0  0  0  0  0  0  0  0  0  0
    4.9887   -2.5786    0.0000 H   0  0  0  0  0  0  0  0  0  0  0  0
  1  2  1  0  0  0  0
  2  3  1  0  0  0  0
  3  4  1  0  0  0  0
  4  5  2  0  0  0  0
  4  6  1  0  0  0  0
  6  7  1  0  0  0  0
  7  8  3  0  0  0  0
  1  9  1  0  0  0  0
  1 10  1  0  0  0  0
  1 11  1  0  0  0  0
  2 12  1  0  0  0  0
  2 13  1  0  0  0  0
  6 14  1  0  0  0  0
  6 15  1  0  0  0  0
M  END
>  <InChIKey>
ZIUSEGSNTOUIPT-UHFFFAOYSA-N

>  <UN GHS>
2A

>  <CASRN>
105-56-6

> <Outcome>
1

>  <Index>
1003

>  <StandardizerResult>
Clear Stereo (ID: ClearStereo)
Wedge Clean (ID: WedgeClean)
Mesomerize (ID: Mesomerize)
Tautomerize (ID: Tautomerize)
Add Explicit Hydrogens (ID: AddExplicitH)
Neutralize (ID: Neutralize)
Clean 2D (ID: Clean2D)

> <knn Distance>


> <CpId>
1003

$$$$
1005
  Mrv1532301301811342D          

 22 21  0  0  0  0            999 V2000
    2.4451    0.0218    0.0000 C   0  0  0  0  0  0  0  0  0  0  0  0
    2.0326    0.7363    0.0000 C   0  0  0  0  0  0  0  0  0  0  0  0
    1.2076    0.7363    0.0000 N   0  0  0  0  0  0  0  0  0  0  0  0
    0.7951    1.4507    0.0000 C   0  0  0  0  0  0  0  0  0  0  0  0
   -0.0299    1.4507    0.0000 C   0  0  0  0  0  0  0  0  0  0  0  0
    0.7951    0.0218    0.0000 C   0  0  0  0  0  0  0  0  0  0  0  0
   -0.0299    0.0218    0.0000 C   0  0  0  0  0  0  0  0  0  0  0  0
    1.7306   -0.3907    0.0000 H   0  0  0  0  0  0  0  0  0  0  0  0
    2.8576   -0.6927    0.0000 H   0  0  0  0  0  0  0  0  0  0  0  0
    3.1595    0.4343    0.0000 H   0  0  0  0  0  0  0  0  0  0  0  0
    2.7219    1.1896    0.0000 H   0  0  0  0  0  0  0  0  0  0  0  0
    2.0805    1.5599    0.0000 H   0  0  0  0  0  0  0  0  0  0  0  0
    1.4844    1.9041    0.0000 H   0  0  0  0  0  0  0  0  0  0  0  0
    0.8430    2.2743    0.0000 H   0  0  0  0  0  0  0  0  0  0  0  0
   -0.0299    2.2757    0.0000 H   0  0  0  0  0  0  0  0  0  0  0  0
   -0.8549    1.4507    0.0000 H   0  0  0  0  0  0  0  0  0  0  0  0
   -0.0299    0.6257    0.0000 H   0  0  0  0  0  0  0  0  0  0  0  0
    0.8430   -0.8018    0.0000 H   0  0  0  0  0  0  0  0  0  0  0  0
    1.4844   -0.4315    0.0000 H   0  0  0  0  0  0  0  0  0  0  0  0
   -0.7921    0.3375    0.0000 H   0  0  0  0  0  0  0  0  0  0  0  0
   -0.6133   -0.5616    0.0000 H   0  0  0  0  0  0  0  0  0  0  0  0
    0.2858   -0.7404    0.0000 H   0  0  0  0  0  0  0  0  0  0  0  0
  1  2  1  0  0  0  0
  2  3  1  0  0  0  0
  3  4  1  0  0  0  0
  4  5  1  0  0  0  0
  3  6  1  0  0  0  0
  6  7  1  0  0  0  0
  1  8  1  0  0  0  0
  1  9  1  0  0  0  0
  1 10  1  0  0  0  0
  2 11  1  0  0  0  0
  2 12  1  0  0  0  0
  4 13  1  0  0  0  0
  4 14  1  0  0  0  0
  5 15  1  0  0  0  0
  5 16  1  0  0  0  0
  5 17  1  0  0  0  0
  6 18  1  0  0  0  0
  6 19  1  0  0  0  0
  7 20  1  0  0  0  0
  7 21  1  0  0  0  0
  7 22  1  0  0  0  0
M  END
>  <InChIKey>
ZMANZCXQSJIPKH-UHFFFAOYSA-N

>  <UN GHS>
1

>  <CASRN>
121-44-8

> <Outcome>
1

>  <Index>
1005

>  <StandardizerResult>
Clear Stereo (ID: ClearStereo)
Wedge Clean (ID: WedgeClean)
Mesomerize (ID: Mesomerize)
Tautomerize (ID: Tautomerize)
Add Explicit Hydrogens (ID: AddExplicitH)
Neutralize (ID: Neutralize)
Clean 2D (ID: Clean2D)

> <knn Distance>


> <CpId>
1005

$$$$
1007
  Mrv1532301301811342D          

 41 42  0  0  0  0            999 V2000
    2.8579   -4.1374    0.0000 C   0  0  0  0  0  0  0  0  0  0  0  0
    2.1434   -3.7249    0.0000 C   0  0  0  0  0  0  0  0  0  0  0  0
    1.4289   -4.1374    0.0000 N   0  0  0  0  0  0  0  0  0  0  0  0
    1.4289   -4.9624    0.0000 C   0  0  0  0  0  0  0  0  0  0  0  0
    0.7145   -5.3749    0.0000 C   0  0  0  0  0  0  0  0  0  0  0  0
   -0.0000   -4.9624    0.0000 O   0  0  0  0  0  0  0  0  0  0  0  0
   -0.0000   -4.1374    0.0000 C   0  0  0  0  0  0  0  0  0  0  0  0
    0.7145   -3.7249    0.0000 C   0  0  0  0  0  0  0  0  0  0  0  0
    3.5724   -3.7249    0.0000 O   0  0  0  0  0  0  0  0  0  0  0  0
    4.2868   -4.1374    0.0000 C   0  0  0  0  0  0  0  0  0  0  0  0
    5.0013   -3.7249    0.0000 C   0  0  0  0  0  0  0  0  0  0  0  0
    5.7158   -4.1374    0.0000 N   0  0  0  0  0  0  0  0  0  0  0  0
    6.4302   -3.7249    0.0000 C   0  0  0  0  0  0  0  0  0  0  0  0
    7.1447   -4.1374    0.0000 C   0  0  0  0  0  0  0  0  0  0  0  0
    7.1447   -4.9624    0.0000 O   0  0  0  0  0  0  0  0  0  0  0  0
    6.4302   -5.3749    0.0000 C   0  0  0  0  0  0  0  0  0  0  0  0
    5.7158   -4.9624    0.0000 C   0  0  0  0  0  0  0  0  0  0  0  0
    2.4876   -4.8746    0.0000 H   0  0  0  0  0  0  0  0  0  0  0  0
    3.2281   -4.8746    0.0000 H   0  0  0  0  0  0  0  0  0  0  0  0
    2.5137   -2.9876    0.0000 H   0  0  0  0  0  0  0  0  0  0  0  0
    1.7731   -2.9876    0.0000 H   0  0  0  0  0  0  0  0  0  0  0  0
    1.8823   -5.6516    0.0000 H   0  0  0  0  0  0  0  0  0  0  0  0
    2.2525   -5.0103    0.0000 H   0  0  0  0  0  0  0  0  0  0  0  0
    0.3442   -6.1121    0.0000 H   0  0  0  0  0  0  0  0  0  0  0  0
    1.0847   -6.1121    0.0000 H   0  0  0  0  0  0  0  0  0  0  0  0
   -0.4533   -3.4481    0.0000 H   0  0  0  0  0  0  0  0  0  0  0  0
   -0.8236   -4.0894    0.0000 H   0  0  0  0  0  0  0  0  0  0  0  0
    1.0847   -2.9876    0.0000 H   0  0  0  0  0  0  0  0  0  0  0  0
    0.3442   -2.9876    0.0000 H   0  0  0  0  0  0  0  0  0  0  0  0
    3.9166   -4.8746    0.0000 H   0  0  0  0  0  0  0  0  0  0  0  0
    4.6571   -4.8746    0.0000 H   0  0  0  0  0  0  0  0  0  0  0  0
    5.3716   -2.9876    0.0000 H   0  0  0  0  0  0  0  0  0  0  0  0
    4.6310   -2.9876    0.0000 H   0  0  0  0  0  0  0  0  0  0  0  0
    6.8005   -2.9876    0.0000 H   0  0  0  0  0  0  0  0  0  0  0  0
    6.0600   -2.9876    0.0000 H   0  0  0  0  0  0  0  0  0  0  0  0
    7.9683   -4.0894    0.0000 H   0  0  0  0  0  0  0  0  0  0  0  0
    7.5980   -3.4481    0.0000 H   0  0  0  0  0  0  0  0  0  0  0  0
    6.0600   -6.1121    0.0000 H   0  0  0  0  0  0  0  0  0  0  0  0
    6.8005   -6.1121    0.0000 H   0  0  0  0  0  0  0  0  0  0  0  0
    4.8922   -5.0103    0.0000 H   0  0  0  0  0  0  0  0  0  0  0  0
    5.2624   -5.6516    0.0000 H   0  0  0  0  0  0  0  0  0  0  0  0
  1  2  1  0  0  0  0
  2  3  1  0  0  0  0
  3  4  1  0  0  0  0
  4  5  1  0  0  0  0
  5  6  1  0  0  0  0
  6  7  1  0  0  0  0
  7  8  1  0  0  0  0
  3  8  1  0  0  0  0
  1  9  1  0  0  0  0
  9 10  1  0  0  0  0
 10 11  1  0  0  0  0
 11 12  1  0  0  0  0
 12 13  1  0  0  0  0
 13 14  1  0  0  0  0
 14 15  1  0  0  0  0
 15 16  1  0  0  0  0
 16 17  1  0  0  0  0
 12 17  1  0  0  0  0
  1 18  1  0  0  0  0
  1 19  1  0  0  0  0
  2 20  1  0  0  0  0
  2 21  1  0  0  0  0
  4 22  1  0  0  0  0
  4 23  1  0  0  0  0
  5 24  1  0  0  0  0
  5 25  1  0  0  0  0
  7 26  1  0  0  0  0
  7 27  1  0  0  0  0
  8 28  1  0  0  0  0
  8 29  1  0  0  0  0
 10 30  1  0  0  0  0
 10 31  1  0  0  0  0
 11 32  1  0  0  0  0
 11 33  1  0  0  0  0
 13 34  1  0  0  0  0
 13 35  1  0  0  0  0
 14 36  1  0  0  0  0
 14 37  1  0  0  0  0
 16 38  1  0  0  0  0
 16 39  1  0  0  0  0
 17 40  1  0  0  0  0
 17 41  1  0  0  0  0
M  END
>  <InChIKey>
ZMSQJSMSLXVTKN-UHFFFAOYSA-N

>  <UN GHS>
2A

>  <CASRN>
6425-39-4

> <Outcome>
1

>  <Index>
1007

>  <StandardizerResult>
Clear Stereo (ID: ClearStereo)
Wedge Clean (ID: WedgeClean)
Mesomerize (ID: Mesomerize)
Tautomerize (ID: Tautomerize)
Add Explicit Hydrogens (ID: AddExplicitH)
Neutralize (ID: Neutralize)
Clean 2D (ID: Clean2D)

> <knn Distance>


> <CpId>
1007

$$$$
1009
  Mrv1532301301811342D          

  4  3  0  0  0  0            999 V2000
    2.6813    0.3572    0.0000 S   0  0  0  0  0  0  0  0  0  0  0  0
    1.8563    0.3572    0.0000 C   0  0  0  0  0  0  0  0  0  0  0  0
    1.0313    0.3572    0.0000 N   0  0  0  0  0  0  0  0  0  0  0  0
    3.0938   -0.3572    0.0000 H   0  0  0  0  0  0  0  0  0  0  0  0
  1  2  1  0  0  0  0
  2  3  3  0  0  0  0
  1  4  1  0  0  0  0
M  END
>  <InChIKey>
ZMZDMBWJUHKJPS-UHFFFAOYSA-M

>  <UN GHS>
2A

>  <CASRN>
1762-95-4

> <Outcome>
1

>  <Index>
1009

>  <StandardizerResult>
Mesomerize (ID: Mesomerize)
Tautomerize (ID: Tautomerize)
Add Explicit Hydrogens (ID: AddExplicitH)
Neutralize (ID: Neutralize)
Clean 2D (ID: Clean2D)

> <knn Distance>


> <CpId>
1009

$$$$
1014
  Mrv1532301301811342D          

 12 11  0  0  0  0            999 V2000
    1.2390    2.1434    0.0000 C   0  0  0  0  0  0  0  0  0  0  0  0
    0.8265    1.4289    0.0000 C   0  0  0  0  0  0  0  0  0  0  0  0
    1.2390    0.7145    0.0000 O   0  0  0  0  0  0  0  0  0  0  0  0
    0.8265   -0.0000    0.0000 C   0  0  0  0  0  0  0  0  0  0  0  0
    1.2390   -0.7145    0.0000 S   0  0  0  0  0  0  0  0  0  0  0  0
    0.0015   -0.0000    0.0000 S   0  0  0  0  0  0  0  0  0  0  0  0
    1.9534    1.7309    0.0000 H   0  0  0  0  0  0  0  0  0  0  0  0
    1.6515    2.8579    0.0000 H   0  0  0  0  0  0  0  0  0  0  0  0
    0.5245    2.5559    0.0000 H   0  0  0  0  0  0  0  0  0  0  0  0
    0.0892    1.7992    0.0000 H   0  0  0  0  0  0  0  0  0  0  0  0
    0.0892    1.0587    0.0000 H   0  0  0  0  0  0  0  0  0  0  0  0
    0.8265   -1.4290    0.0000 H   0  0  0  0  0  0  0  0  0  0  0  0
  1  2  1  0  0  0  0
  2  3  1  0  0  0  0
  3  4  1  0  0  0  0
  4  5  1  0  0  0  0
  4  6  2  0  0  0  0
  1  7  1  0  0  0  0
  1  8  1  0  0  0  0
  1  9  1  0  0  0  0
  2 10  1  0  0  0  0
  2 11  1  0  0  0  0
  5 12  1  0  0  0  0
M  END
>  <InChIKey>
ZOOODBUHSVUZEM-UHFFFAOYSA-M

>  <UN GHS>
1

>  <CASRN>
140-90-9

> <Outcome>
1

>  <Index>
1014

>  <StandardizerResult>
Clear Stereo (ID: ClearStereo)
Wedge Clean (ID: WedgeClean)
Mesomerize (ID: Mesomerize)
Tautomerize (ID: Tautomerize)
Add Explicit Hydrogens (ID: AddExplicitH)
Neutralize (ID: Neutralize)
Clean 2D (ID: Clean2D)

> <knn Distance>


> <CpId>
1014

$$$$
1019
  Mrv1532301301811342D          

 10  9  0  0  0  0            999 V2000
    2.4751   -1.4290    0.0000 C   0  0  0  0  0  0  0  0  0  0  0  0
    2.0626   -0.7145    0.0000 C   0  0  0  0  0  0  0  0  0  0  0  0
    1.2376   -0.7145    0.0000 N   0  0  0  0  0  0  0  0  0  0  0  0
    0.8251   -0.0000    0.0000 C   0  0  0  0  0  0  0  0  0  0  0  0
    0.0001   -0.0000    0.0000 O   0  0  0  0  0  0  0  0  0  0  0  0
    2.0626   -2.1435    0.0000 H   0  0  0  0  0  0  0  0  0  0  0  0
    3.3001   -1.4290    0.0000 H   0  0  0  0  0  0  0  0  0  0  0  0
    2.4751   -0.0000    0.0000 H   0  0  0  0  0  0  0  0  0  0  0  0
    0.8251   -1.4290    0.0000 H   0  0  0  0  0  0  0  0  0  0  0  0
    1.2376    0.7144    0.0000 H   0  0  0  0  0  0  0  0  0  0  0  0
  1  2  2  0  0  0  0
  2  3  1  0  0  0  0
  3  4  1  0  0  0  0
  4  5  2  0  0  0  0
  1  6  1  0  0  0  0
  1  7  1  0  0  0  0
  2  8  1  0  0  0  0
  3  9  1  0  0  0  0
  4 10  1  0  0  0  0
M  END
>  <InChIKey>
ZQXSMRAEXCEDJD-UHFFFAOYSA-N

>  <UN GHS>
1

>  <CASRN>
13162-05-5

> <Outcome>
1

>  <Index>
1019

>  <StandardizerResult>
Clear Stereo (ID: ClearStereo)
Wedge Clean (ID: WedgeClean)
Mesomerize (ID: Mesomerize)
Tautomerize (ID: Tautomerize)
Add Explicit Hydrogens (ID: AddExplicitH)
Neutralize (ID: Neutralize)
Clean 2D (ID: Clean2D)

> <knn Distance>


> <CpId>
1019

$$$$
1021
  Mrv1532301301811342D          

  9  8  0  0  0  0            999 V2000
    1.2375    0.7145    0.0000 N   0  0  0  0  0  0  0  0  0  0  0  0
    0.8250   -0.0000    0.0000 C   0  0  0  0  0  0  0  0  0  0  0  0
    1.2375   -0.7145    0.0000 N   0  0  0  0  0  0  0  0  0  0  0  0
   -0.0000   -0.0000    0.0000 N   0  0  0  0  0  0  0  0  0  0  0  0
    2.0625    0.7145    0.0000 H   0  0  0  0  0  0  0  0  0  0  0  0
    0.8250    1.4289    0.0000 H   0  0  0  0  0  0  0  0  0  0  0  0
    0.8250   -1.4289    0.0000 H   0  0  0  0  0  0  0  0  0  0  0  0
    2.0625   -0.7145    0.0000 H   0  0  0  0  0  0  0  0  0  0  0  0
   -0.4125    0.7145    0.0000 H   0  0  0  0  0  0  0  0  0  0  0  0
  1  2  1  0  0  0  0
  2  3  1  0  0  0  0
  2  4  2  0  0  0  0
  1  5  1  0  0  0  0
  1  6  1  0  0  0  0
  3  7  1  0  0  0  0
  3  8  1  0  0  0  0
  4  9  1  0  0  0  0
M  END
>  <InChIKey>
ZRALSGWEFCBTJO-UHFFFAOYSA-N

>  <UN GHS>
1

>  <CASRN>
593-85-1

> <Outcome>
1

>  <Index>
1021

>  <StandardizerResult>
Clear Stereo (ID: ClearStereo)
Wedge Clean (ID: WedgeClean)
Mesomerize (ID: Mesomerize)
Tautomerize (ID: Tautomerize)
Add Explicit Hydrogens (ID: AddExplicitH)
Neutralize (ID: Neutralize)
Clean 2D (ID: Clean2D)

> <knn Distance>


> <CpId>
1021

$$$$
1022
  Mrv1532301301811342D          

 21 20  0  0  0  0            999 V2000
    1.7605    1.8422    0.0000 C   0  0  0  0  0  0  0  0  0  0  0  0
    2.4750    1.4297    0.0000 C   0  0  0  0  0  0  0  0  0  0  0  0
    3.1895    1.8422    0.0000 C   0  0  0  0  0  0  0  0  0  0  0  0
    3.9039    1.4297    0.0000 C   0  0  0  0  0  0  0  0  0  0  0  0
    4.6184    1.8422    0.0000 C   0  0  0  0  0  0  0  0  0  0  0  0
    5.3329    1.4297    0.0000 C   0  0  0  0  0  0  0  0  0  0  0  0
    6.0474    1.8422    0.0000 O   0  0  0  0  0  0  0  0  0  0  0  0
    2.1730    2.5567    0.0000 H   0  0  0  0  0  0  0  0  0  0  0  0
    1.0461    2.2547    0.0000 H   0  0  0  0  0  0  0  0  0  0  0  0
    1.3480    1.1278    0.0000 H   0  0  0  0  0  0  0  0  0  0  0  0
    2.1047    0.6925    0.0000 H   0  0  0  0  0  0  0  0  0  0  0  0
    2.8453    0.6925    0.0000 H   0  0  0  0  0  0  0  0  0  0  0  0
    3.5597    2.5795    0.0000 H   0  0  0  0  0  0  0  0  0  0  0  0
    2.8192    2.5795    0.0000 H   0  0  0  0  0  0  0  0  0  0  0  0
    3.5337    0.6925    0.0000 H   0  0  0  0  0  0  0  0  0  0  0  0
    4.2742    0.6925    0.0000 H   0  0  0  0  0  0  0  0  0  0  0  0
    4.9887    2.5795    0.0000 H   0  0  0  0  0  0  0  0  0  0  0  0
    4.2482    2.5795    0.0000 H   0  0  0  0  0  0  0  0  0  0  0  0
    4.9626    0.6925    0.0000 H   0  0  0  0  0  0  0  0  0  0  0  0
    5.7031    0.6925    0.0000 H   0  0  0  0  0  0  0  0  0  0  0  0
    6.7618    1.4297    0.0000 H   0  0  0  0  0  0  0  0  0  0  0  0
  1  2  1  0  0  0  0
  2  3  1  0  0  0  0
  3  4  1  0  0  0  0
  4  5  1  0  0  0  0
  5  6  1  0  0  0  0
  6  7  1  0  0  0  0
  1  8  1  0  0  0  0
  1  9  1  0  0  0  0
  1 10  1  0  0  0  0
  2 11  1  0  0  0  0
  2 12  1  0  0  0  0
  3 13  1  0  0  0  0
  3 14  1  0  0  0  0
  4 15  1  0  0  0  0
  4 16  1  0  0  0  0
  5 17  1  0  0  0  0
  5 18  1  0  0  0  0
  6 19  1  0  0  0  0
  6 20  1  0  0  0  0
  7 21  1  0  0  0  0
M  END
>  <InChIKey>
ZSIAUFGUXNUGDI-UHFFFAOYSA-N

>  <UN GHS>
2A

>  <CASRN>
111-27-3

> <Outcome>
1

>  <Index>
1022

>  <StandardizerResult>
Clear Stereo (ID: ClearStereo)
Wedge Clean (ID: WedgeClean)
Mesomerize (ID: Mesomerize)
Tautomerize (ID: Tautomerize)
Add Explicit Hydrogens (ID: AddExplicitH)
Neutralize (ID: Neutralize)
Clean 2D (ID: Clean2D)

> <knn Distance>


> <CpId>
1022

$$$$
1025
  Mrv1532301301811342D          

 17 17  0  0  0  0            999 V2000
    0.7145    2.0625    0.0000 C   0  0  0  0  0  0  0  0  0  0  0  0
    0.7145    1.2375    0.0000 C   0  0  0  0  0  0  0  0  0  0  0  0
    1.4289    0.8250    0.0000 C   0  0  0  0  0  0  0  0  0  0  0  0
    2.1434    1.2375    0.0000 O   0  0  0  0  0  0  0  0  0  0  0  0
    1.4289   -0.0000    0.0000 C   0  0  0  0  0  0  0  0  0  0  0  0
    0.7145   -0.4125    0.0000 C   0  0  0  0  0  0  0  0  0  0  0  0
    0.0000   -0.0000    0.0000 C   0  0  0  0  0  0  0  0  0  0  0  0
    0.0000    0.8250    0.0000 C   0  0  0  0  0  0  0  0  0  0  0  0
   -0.7145    1.2375    0.0000 O   0  0  0  0  0  0  0  0  0  0  0  0
    1.5395    2.0625    0.0000 H   0  0  0  0  0  0  0  0  0  0  0  0
    0.7145    2.8875    0.0000 H   0  0  0  0  0  0  0  0  0  0  0  0
   -0.1105    2.0625    0.0000 H   0  0  0  0  0  0  0  0  0  0  0  0
    2.8579    0.8250    0.0000 H   0  0  0  0  0  0  0  0  0  0  0  0
    2.1434   -0.4125    0.0000 H   0  0  0  0  0  0  0  0  0  0  0  0
    0.7145   -1.2375    0.0000 H   0  0  0  0  0  0  0  0  0  0  0  0
   -0.7145   -0.4125    0.0000 H   0  0  0  0  0  0  0  0  0  0  0  0
   -0.7145    2.0625    0.0000 H   0  0  0  0  0  0  0  0  0  0  0  0
  1  2  1  0  0  0  0
  2  3  4  0  0  0  0
  3  4  1  0  0  0  0
  3  5  4  0  0  0  0
  5  6  4  0  0  0  0
  6  7  4  0  0  0  0
  7  8  4  0  0  0  0
  2  8  4  0  0  0  0
  8  9  1  0  0  0  0
  1 10  1  0  0  0  0
  1 11  1  0  0  0  0
  1 12  1  0  0  0  0
  4 13  1  0  0  0  0
  5 14  1  0  0  0  0
  6 15  1  0  0  0  0
  7 16  1  0  0  0  0
  9 17  1  0  0  0  0
M  END
>  <InChIKey>
ZTMADXFOCUXMJE-UHFFFAOYSA-N

>  <UN GHS>
1

>  <CASRN>
608-25-3

> <Outcome>
1

>  <Index>
1025

>  <StandardizerResult>
Dearomatize (ID: Dearomatize)
Clear Stereo (ID: ClearStereo)
Wedge Clean (ID: WedgeClean)
Mesomerize (ID: Mesomerize)
Tautomerize (ID: Tautomerize)
Aromatize (ID: Aromatize)
Add Explicit Hydrogens (ID: AddExplicitH)
Neutralize (ID: Neutralize)
Clean 2D (ID: Clean2D)

> <knn Distance>


> <CpId>
1025

$$$$
1026
  Mrv1532301301811342D          

 27 27  0  0  0  0            999 V2000
    0.7145   -3.7125    0.0000 O   0  0  0  0  0  0  0  0  0  0  0  0
    1.4289   -4.1250    0.0000 C   0  0  0  0  0  0  0  0  0  0  0  0
    2.1434   -3.7125    0.0000 C   0  0  0  0  0  0  0  0  0  0  0  0
    2.8579   -4.1250    0.0000 O   0  0  0  0  0  0  0  0  0  0  0  0
    3.5723   -3.7125    0.0000 C   0  0  0  0  0  0  0  0  0  0  0  0
    4.2868   -4.1250    0.0000 C   0  0  0  0  0  0  0  0  0  0  0  0
    5.0013   -3.7125    0.0000 O   0  0  0  0  0  0  0  0  0  0  0  0
    5.7158   -4.1250    0.0000 C   0  0  0  0  0  0  0  0  0  0  0  0
    6.4302   -3.7125    0.0000 C   0  0  0  0  0  0  0  0  0  0  0  0
    7.1447   -4.1250    0.0000 C   0  0  0  0  0  0  0  0  0  0  0  0
    7.1447   -4.9500    0.0000 C   0  0  0  0  0  0  0  0  0  0  0  0
    6.4302   -5.3625    0.0000 C   0  0  0  0  0  0  0  0  0  0  0  0
    5.7158   -4.9500    0.0000 C   0  0  0  0  0  0  0  0  0  0  0  0
    0.7145   -2.8875    0.0000 H   0  0  0  0  0  0  0  0  0  0  0  0
    1.0587   -4.8622    0.0000 H   0  0  0  0  0  0  0  0  0  0  0  0
    1.7992   -4.8622    0.0000 H   0  0  0  0  0  0  0  0  0  0  0  0
    2.5137   -2.9753    0.0000 H   0  0  0  0  0  0  0  0  0  0  0  0
    1.7731   -2.9753    0.0000 H   0  0  0  0  0  0  0  0  0  0  0  0
    3.9426   -2.9753    0.0000 H   0  0  0  0  0  0  0  0  0  0  0  0
    3.2021   -2.9753    0.0000 H   0  0  0  0  0  0  0  0  0  0  0  0
    3.9166   -4.8622    0.0000 H   0  0  0  0  0  0  0  0  0  0  0  0
    4.6571   -4.8622    0.0000 H   0  0  0  0  0  0  0  0  0  0  0  0
    6.4302   -2.8875    0.0000 H   0  0  0  0  0  0  0  0  0  0  0  0
    7.8592   -3.7125    0.0000 H   0  0  0  0  0  0  0  0  0  0  0  0
    7.8592   -5.3625    0.0000 H   0  0  0  0  0  0  0  0  0  0  0  0
    6.4302   -6.1875    0.0000 H   0  0  0  0  0  0  0  0  0  0  0  0
    5.0013   -5.3625    0.0000 H   0  0  0  0  0  0  0  0  0  0  0  0
  1  2  1  0  0  0  0
  2  3  1  0  0  0  0
  3  4  1  0  0  0  0
  4  5  1  0  0  0  0
  5  6  1  0  0  0  0
  6  7  1  0  0  0  0
  7  8  1  0  0  0  0
  8  9  4  0  0  0  0
  9 10  4  0  0  0  0
 10 11  4  0  0  0  0
 11 12  4  0  0  0  0
 12 13  4  0  0  0  0
  8 13  4  0  0  0  0
  1 14  1  0  0  0  0
  2 15  1  0  0  0  0
  2 16  1  0  0  0  0
  3 17  1  0  0  0  0
  3 18  1  0  0  0  0
  5 19  1  0  0  0  0
  5 20  1  0  0  0  0
  6 21  1  0  0  0  0
  6 22  1  0  0  0  0
  9 23  1  0  0  0  0
 10 24  1  0  0  0  0
 11 25  1  0  0  0  0
 12 26  1  0  0  0  0
 13 27  1  0  0  0  0
M  END
>  <InChIKey>
ZUAURMBNZUCEAF-UHFFFAOYSA-N

>  <UN GHS>
1

>  <CASRN>
104-68-7

> <Outcome>
1

>  <Index>
1026

>  <StandardizerResult>
Dearomatize (ID: Dearomatize)
Clear Stereo (ID: ClearStereo)
Wedge Clean (ID: WedgeClean)
Mesomerize (ID: Mesomerize)
Tautomerize (ID: Tautomerize)
Aromatize (ID: Aromatize)
Add Explicit Hydrogens (ID: AddExplicitH)
Neutralize (ID: Neutralize)
Clean 2D (ID: Clean2D)

> <knn Distance>


> <CpId>
1026

$$$$
1028
  Mrv1532301301811342D          

 19 18  0  0  0  0            999 V2000
    1.2241    2.1413    0.0000 C   0  0  0  0  0  0  0  0  0  0  0  0
    0.8116    1.4268    0.0000 C   0  0  0  0  0  0  0  0  0  0  0  0
    1.2241    0.7123    0.0000 C   0  0  0  0  0  0  0  0  0  0  0  0
    0.8116   -0.0021    0.0000 N   0  0  0  0  0  0  0  0  0  0  0  0
    1.2241   -0.7166    0.0000 C   0  0  0  0  0  0  0  0  0  0  0  0
   -0.0134   -0.0021    0.0000 C   0  0  0  0  0  0  0  0  0  0  0  0
    1.9386    1.7288    0.0000 H   0  0  0  0  0  0  0  0  0  0  0  0
    1.6366    2.8557    0.0000 H   0  0  0  0  0  0  0  0  0  0  0  0
    0.5096    2.5538    0.0000 H   0  0  0  0  0  0  0  0  0  0  0  0
    0.0743    1.7971    0.0000 H   0  0  0  0  0  0  0  0  0  0  0  0
    0.0743    1.0565    0.0000 H   0  0  0  0  0  0  0  0  0  0  0  0
    1.9613    0.3421    0.0000 H   0  0  0  0  0  0  0  0  0  0  0  0
    1.9613    1.0826    0.0000 H   0  0  0  0  0  0  0  0  0  0  0  0
    0.5096   -1.1291    0.0000 H   0  0  0  0  0  0  0  0  0  0  0  0
    1.6366   -1.4311    0.0000 H   0  0  0  0  0  0  0  0  0  0  0  0
    1.9386   -0.3041    0.0000 H   0  0  0  0  0  0  0  0  0  0  0  0
   -0.0134    0.8229    0.0000 H   0  0  0  0  0  0  0  0  0  0  0  0
   -0.8384   -0.0021    0.0000 H   0  0  0  0  0  0  0  0  0  0  0  0
   -0.0134   -0.8271    0.0000 H   0  0  0  0  0  0  0  0  0  0  0  0
  1  2  1  0  0  0  0
  2  3  1  0  0  0  0
  3  4  1  0  0  0  0
  4  5  1  0  0  0  0
  4  6  1  0  0  0  0
  1  7  1  0  0  0  0
  1  8  1  0  0  0  0
  1  9  1  0  0  0  0
  2 10  1  0  0  0  0
  2 11  1  0  0  0  0
  3 12  1  0  0  0  0
  3 13  1  0  0  0  0
  5 14  1  0  0  0  0
  5 15  1  0  0  0  0
  5 16  1  0  0  0  0
  6 17  1  0  0  0  0
  6 18  1  0  0  0  0
  6 19  1  0  0  0  0
M  END
>  <InChIKey>
ZUHZZVMEUAUWHY-UHFFFAOYSA-N

>  <UN GHS>
1

>  <CASRN>
926-63-6

> <Outcome>
1

>  <Index>
1028

>  <StandardizerResult>
Clear Stereo (ID: ClearStereo)
Wedge Clean (ID: WedgeClean)
Mesomerize (ID: Mesomerize)
Tautomerize (ID: Tautomerize)
Add Explicit Hydrogens (ID: AddExplicitH)
Neutralize (ID: Neutralize)
Clean 2D (ID: Clean2D)

> <knn Distance>


> <CpId>
1028

$$$$
1029
  Mrv1532301301811342D          

 56 55  0  0  0  0            999 V2000
    5.9961    4.2865    0.0000 C   0  0  0  0  0  0  0  0  0  0  0  0
    6.7105    4.6990    0.0000 C   0  0  0  0  0  0  0  0  0  0  0  0
    7.4250    4.2865    0.0000 C   0  0  0  0  0  0  0  0  0  0  0  0
    8.1395    4.6990    0.0000 C   0  0  0  0  0  0  0  0  0  0  0  0
    8.8539    4.2865    0.0000 C   0  0  0  0  0  0  0  0  0  0  0  0
    9.5684    4.6990    0.0000 C   0  0  0  0  0  0  0  0  0  0  0  0
   10.2829    4.2865    0.0000 C   0  0  0  0  0  0  0  0  0  0  0  0
   10.9974    4.6990    0.0000 C   0  0  0  0  0  0  0  0  0  0  0  0
   11.7118    4.2865    0.0000 C   0  0  0  0  0  0  0  0  0  0  0  0
   12.4263    4.6990    0.0000 C   0  0  0  0  0  0  0  0  0  0  0  0
   13.1408    4.2865    0.0000 C   0  0  0  0  0  0  0  0  0  0  0  0
   13.8552    4.6990    0.0000 C   0  0  0  0  0  0  0  0  0  0  0  0
   14.5697    4.2865    0.0000 C   0  0  0  0  0  0  0  0  0  0  0  0
   15.2842    4.6990    0.0000 C   0  0  0  0  0  0  0  0  0  0  0  0
   15.9987    4.2865    0.0000 C   0  0  0  0  0  0  0  0  0  0  0  0
   16.7131    4.6990    0.0000 C   0  0  0  0  0  0  0  0  0  0  0  0
   17.4276    4.2865    0.0000 O   0  0  0  0  0  0  0  0  0  0  0  0
   18.1421    4.6990    0.0000 P   0  0  0  0  0  0  0  0  0  0  0  0
   18.8565    5.1115    0.0000 O   0  0  0  0  0  0  0  0  0  0  0  0
   18.5546    3.9845    0.0000 O   0  0  0  0  0  0  0  0  0  0  0  0
   17.7296    5.4135    0.0000 O   0  0  0  0  0  0  0  0  0  0  0  0
    5.5836    5.0010    0.0000 H   0  0  0  0  0  0  0  0  0  0  0  0
    5.2816    3.8740    0.0000 H   0  0  0  0  0  0  0  0  0  0  0  0
    6.4086    3.5720    0.0000 H   0  0  0  0  0  0  0  0  0  0  0  0
    7.0808    5.4362    0.0000 H   0  0  0  0  0  0  0  0  0  0  0  0
    6.3403    5.4362    0.0000 H   0  0  0  0  0  0  0  0  0  0  0  0
    7.0547    3.5492    0.0000 H   0  0  0  0  0  0  0  0  0  0  0  0
    7.7953    3.5492    0.0000 H   0  0  0  0  0  0  0  0  0  0  0  0
    8.5097    5.4362    0.0000 H   0  0  0  0  0  0  0  0  0  0  0  0
    7.7692    5.4362    0.0000 H   0  0  0  0  0  0  0  0  0  0  0  0
    8.4837    3.5492    0.0000 H   0  0  0  0  0  0  0  0  0  0  0  0
    9.2242    3.5492    0.0000 H   0  0  0  0  0  0  0  0  0  0  0  0
    9.9387    5.4362    0.0000 H   0  0  0  0  0  0  0  0  0  0  0  0
    9.1982    5.4362    0.0000 H   0  0  0  0  0  0  0  0  0  0  0  0
    9.9126    3.5492    0.0000 H   0  0  0  0  0  0  0  0  0  0  0  0
   10.6531    3.5492    0.0000 H   0  0  0  0  0  0  0  0  0  0  0  0
   11.3676    5.4362    0.0000 H   0  0  0  0  0  0  0  0  0  0  0  0
   10.6271    5.4362    0.0000 H   0  0  0  0  0  0  0  0  0  0  0  0
   11.3416    3.5492    0.0000 H   0  0  0  0  0  0  0  0  0  0  0  0
   12.0821    3.5492    0.0000 H   0  0  0  0  0  0  0  0  0  0  0  0
   12.7966    5.4362    0.0000 H   0  0  0  0  0  0  0  0  0  0  0  0
   12.0560    5.4362    0.0000 H   0  0  0  0  0  0  0  0  0  0  0  0
   12.7705    3.5492    0.0000 H   0  0  0  0  0  0  0  0  0  0  0  0
   13.5110    3.5492    0.0000 H   0  0  0  0  0  0  0  0  0  0  0  0
   14.2255    5.4362    0.0000 H   0  0  0  0  0  0  0  0  0  0  0  0
   13.4850    5.4362    0.0000 H   0  0  0  0  0  0  0  0  0  0  0  0
   14.1995    3.5492    0.0000 H   0  0  0  0  0  0  0  0  0  0  0  0
   14.9400    3.5492    0.0000 H   0  0  0  0  0  0  0  0  0  0  0  0
   15.6544    5.4362    0.0000 H   0  0  0  0  0  0  0  0  0  0  0  0
   14.9139    5.4362    0.0000 H   0  0  0  0  0  0  0  0  0  0  0  0
   15.6284    3.5492    0.0000 H   0  0  0  0  0  0  0  0  0  0  0  0
   16.3689    3.5492    0.0000 H   0  0  0  0  0  0  0  0  0  0  0  0
   17.0834    5.4362    0.0000 H   0  0  0  0  0  0  0  0  0  0  0  0
   16.3429    5.4362    0.0000 H   0  0  0  0  0  0  0  0  0  0  0  0
   19.5710    4.6990    0.0000 H   0  0  0  0  0  0  0  0  0  0  0  0
   18.1421    3.2700    0.0000 H   0  0  0  0  0  0  0  0  0  0  0  0
  1  2  1  0  0  0  0
  2  3  1  0  0  0  0
  3  4  1  0  0  0  0
  4  5  1  0  0  0  0
  5  6  1  0  0  0  0
  6  7  1  0  0  0  0
  7  8  1  0  0  0  0
  8  9  1  0  0  0  0
  9 10  1  0  0  0  0
 10 11  1  0  0  0  0
 11 12  1  0  0  0  0
 12 13  1  0  0  0  0
 13 14  1  0  0  0  0
 14 15  1  0  0  0  0
 15 16  1  0  0  0  0
 16 17  1  0  0  0  0
 17 18  1  0  0  0  0
 18 19  1  0  0  0  0
 18 20  1  0  0  0  0
 18 21  2  0  0  0  0
  1 22  1  0  0  0  0
  1 23  1  0  0  0  0
  1 24  1  0  0  0  0
  2 25  1  0  0  0  0
  2 26  1  0  0  0  0
  3 27  1  0  0  0  0
  3 28  1  0  0  0  0
  4 29  1  0  0  0  0
  4 30  1  0  0  0  0
  5 31  1  0  0  0  0
  5 32  1  0  0  0  0
  6 33  1  0  0  0  0
  6 34  1  0  0  0  0
  7 35  1  0  0  0  0
  7 36  1  0  0  0  0
  8 37  1  0  0  0  0
  8 38  1  0  0  0  0
  9 39  1  0  0  0  0
  9 40  1  0  0  0  0
 10 41  1  0  0  0  0
 10 42  1  0  0  0  0
 11 43  1  0  0  0  0
 11 44  1  0  0  0  0
 12 45  1  0  0  0  0
 12 46  1  0  0  0  0
 13 47  1  0  0  0  0
 13 48  1  0  0  0  0
 14 49  1  0  0  0  0
 14 50  1  0  0  0  0
 15 51  1  0  0  0  0
 15 52  1  0  0  0  0
 16 53  1  0  0  0  0
 16 54  1  0  0  0  0
 19 55  1  0  0  0  0
 20 56  1  0  0  0  0
M  END
>  <InChIKey>
ZUVCYFMOHFTGDM-UHFFFAOYSA-M

>  <UN GHS>
1

>  <CASRN>
19035-79-1

> <Outcome>
1

>  <Index>
1029

>  <StandardizerResult>
Clear Stereo (ID: ClearStereo)
Wedge Clean (ID: WedgeClean)
Mesomerize (ID: Mesomerize)
Tautomerize (ID: Tautomerize)
Add Explicit Hydrogens (ID: AddExplicitH)
Neutralize (ID: Neutralize)
Clean 2D (ID: Clean2D)

> <knn Distance>


> <CpId>
1029

$$$$
1030
  Mrv1532301301811342D          

 78 78  0  0  0  0            999 V2000
   -5.0501   -3.7184    0.0000 C   0  0  0  0  0  0  0  0  0  0  0  0
   -4.3356   -3.3059    0.0000 C   0  0  0  0  0  0  0  0  0  0  0  0
   -4.3356   -2.4809    0.0000 C   0  0  0  0  0  0  0  0  0  0  0  0
   -3.6211   -3.7184    0.0000 C   0  0  0  0  0  0  0  0  0  0  0  0
   -2.9067   -3.3059    0.0000 C   0  0  0  0  0  0  0  0  0  0  0  0
   -2.1922   -3.7184    0.0000 C   0  0  0  0  0  0  0  0  0  0  0  0
   -1.4777   -3.3059    0.0000 C   0  0  0  0  0  0  0  0  0  0  0  0
   -0.7633   -3.7184    0.0000 C   0  0  0  0  0  0  0  0  0  0  0  0
   -0.0488   -3.3059    0.0000 C   0  0  0  0  0  0  0  0  0  0  0  0
    0.6657   -3.7184    0.0000 C   0  0  0  0  0  0  0  0  0  0  0  0
    1.3802   -3.3059    0.0000 O   0  0  0  0  0  0  0  0  0  0  0  0
    1.3802   -2.4809    0.0000 C   0  0  0  0  0  0  0  0  0  0  0  0
    2.0946   -2.0684    0.0000 O   0  0  0  0  0  0  0  0  0  0  0  0
    0.6657   -2.0684    0.0000 C   0  0  0  0  0  0  0  0  0  0  0  0
   -0.0488   -2.4809    0.0000 C   0  0  0  0  0  0  0  0  0  0  0  0
   -0.7633   -2.0684    0.0000 C   0  0  0  0  0  0  0  0  0  0  0  0
   -0.7633   -1.2434    0.0000 C   0  0  0  0  0  0  0  0  0  0  0  0
   -0.0488   -0.8309    0.0000 C   0  0  0  0  0  0  0  0  0  0  0  0
    0.6657   -1.2434    0.0000 C   0  0  0  0  0  0  0  0  0  0  0  0
    1.3802   -0.8309    0.0000 C   0  0  0  0  0  0  0  0  0  0  0  0
    1.3802   -0.0059    0.0000 O   0  0  0  0  0  0  0  0  0  0  0  0
    2.0946   -1.2434    0.0000 O   0  0  0  0  0  0  0  0  0  0  0  0
    2.8091   -0.8309    0.0000 C   0  0  0  0  0  0  0  0  0  0  0  0
    3.5236   -1.2434    0.0000 C   0  0  0  0  0  0  0  0  0  0  0  0
    4.2380   -0.8309    0.0000 C   0  0  0  0  0  0  0  0  0  0  0  0
    4.9525   -1.2434    0.0000 C   0  0  0  0  0  0  0  0  0  0  0  0
    5.6670   -0.8309    0.0000 C   0  0  0  0  0  0  0  0  0  0  0  0
    6.3815   -1.2434    0.0000 C   0  0  0  0  0  0  0  0  0  0  0  0
    7.0959   -0.8309    0.0000 C   0  0  0  0  0  0  0  0  0  0  0  0
    7.8104   -1.2434    0.0000 C   0  0  0  0  0  0  0  0  0  0  0  0
    8.5249   -0.8309    0.0000 C   0  0  0  0  0  0  0  0  0  0  0  0
    7.8104   -2.0684    0.0000 C   0  0  0  0  0  0  0  0  0  0  0  0
   -5.4626   -3.0039    0.0000 H   0  0  0  0  0  0  0  0  0  0  0  0
   -5.7646   -4.1309    0.0000 H   0  0  0  0  0  0  0  0  0  0  0  0
   -4.6376   -4.4329    0.0000 H   0  0  0  0  0  0  0  0  0  0  0  0
   -5.0501   -2.8934    0.0000 H   0  0  0  0  0  0  0  0  0  0  0  0
   -3.5387   -2.6944    0.0000 H   0  0  0  0  0  0  0  0  0  0  0  0
   -3.9231   -1.7664    0.0000 H   0  0  0  0  0  0  0  0  0  0  0  0
   -4.9190   -1.8975    0.0000 H   0  0  0  0  0  0  0  0  0  0  0  0
   -3.9914   -4.4556    0.0000 H   0  0  0  0  0  0  0  0  0  0  0  0
   -3.2509   -4.4556    0.0000 H   0  0  0  0  0  0  0  0  0  0  0  0
   -2.4099   -2.6472    0.0000 H   0  0  0  0  0  0  0  0  0  0  0  0
   -2.9067   -4.1309    0.0000 H   0  0  0  0  0  0  0  0  0  0  0  0
   -2.0489   -4.5309    0.0000 H   0  0  0  0  0  0  0  0  0  0  0  0
   -1.5602   -4.2487    0.0000 H   0  0  0  0  0  0  0  0  0  0  0  0
   -1.1075   -2.5686    0.0000 H   0  0  0  0  0  0  0  0  0  0  0  0
   -1.8480   -2.5686    0.0000 H   0  0  0  0  0  0  0  0  0  0  0  0
   -0.7283   -4.5426    0.0000 H   0  0  0  0  0  0  0  0  0  0  0  0
   -0.0402   -4.1157    0.0000 H   0  0  0  0  0  0  0  0  0  0  0  0
   -0.7633   -2.8934    0.0000 H   0  0  0  0  0  0  0  0  0  0  0  0
    0.6657   -2.8934    0.0000 H   0  0  0  0  0  0  0  0  0  0  0  0
    0.8035   -4.5318    0.0000 H   0  0  0  0  0  0  0  0  0  0  0  0
    1.2954   -4.2514    0.0000 H   0  0  0  0  0  0  0  0  0  0  0  0
   -0.0488   -1.6559    0.0000 H   0  0  0  0  0  0  0  0  0  0  0  0
   -1.5511   -1.8235    0.0000 H   0  0  0  0  0  0  0  0  0  0  0  0
   -1.4777   -0.8309    0.0000 H   0  0  0  0  0  0  0  0  0  0  0  0
   -0.0488   -0.0059    0.0000 H   0  0  0  0  0  0  0  0  0  0  0  0
    3.1794   -0.0936    0.0000 H   0  0  0  0  0  0  0  0  0  0  0  0
    2.4388   -0.0936    0.0000 H   0  0  0  0  0  0  0  0  0  0  0  0
    3.1533   -1.9806    0.0000 H   0  0  0  0  0  0  0  0  0  0  0  0
    3.8938   -1.9806    0.0000 H   0  0  0  0  0  0  0  0  0  0  0  0
    4.6083   -0.0936    0.0000 H   0  0  0  0  0  0  0  0  0  0  0  0
    3.8678   -0.0936    0.0000 H   0  0  0  0  0  0  0  0  0  0  0  0
    4.5823   -1.9806    0.0000 H   0  0  0  0  0  0  0  0  0  0  0  0
    5.3228   -1.9806    0.0000 H   0  0  0  0  0  0  0  0  0  0  0  0
    6.0372   -0.0936    0.0000 H   0  0  0  0  0  0  0  0  0  0  0  0
    5.2967   -0.0936    0.0000 H   0  0  0  0  0  0  0  0  0  0  0  0
    6.0112   -1.9806    0.0000 H   0  0  0  0  0  0  0  0  0  0  0  0
    6.7517   -1.9806    0.0000 H   0  0  0  0  0  0  0  0  0  0  0  0
    7.4662   -0.0936    0.0000 H   0  0  0  0  0  0  0  0  0  0  0  0
    6.7257   -0.0936    0.0000 H   0  0  0  0  0  0  0  0  0  0  0  0
    7.8104   -0.4184    0.0000 H   0  0  0  0  0  0  0  0  0  0  0  0
    8.7384   -1.6278    0.0000 H   0  0  0  0  0  0  0  0  0  0  0  0
    9.3499   -0.8309    0.0000 H   0  0  0  0  0  0  0  0  0  0  0  0
    8.7384   -0.0340    0.0000 H   0  0  0  0  0  0  0  0  0  0  0  0
    6.9854   -2.0684    0.0000 H   0  0  0  0  0  0  0  0  0  0  0  0
    7.8104   -2.8934    0.0000 H   0  0  0  0  0  0  0  0  0  0  0  0
    8.6354   -2.0684    0.0000 H   0  0  0  0  0  0  0  0  0  0  0  0
  1  2  1  0  0  0  0
  2  3  1  0  0  0  0
  2  4  1  0  0  0  0
  4  5  1  0  0  0  0
  5  6  1  0  0  0  0
  6  7  1  0  0  0  0
  7  8  1  0  0  0  0
  8  9  1  0  0  0  0
  9 10  1  0  0  0  0
 10 11  1  0  0  0  0
 11 12  1  0  0  0  0
 12 13  2  0  0  0  0
 12 14  1  0  0  0  0
 14 15  4  0  0  0  0
 15 16  4  0  0  0  0
 16 17  4  0  0  0  0
 17 18  4  0  0  0  0
 18 19  4  0  0  0  0
 14 19  4  0  0  0  0
 19 20  1  0  0  0  0
 20 21  2  0  0  0  0
 20 22  1  0  0  0  0
 22 23  1  0  0  0  0
 23 24  1  0  0  0  0
 24 25  1  0  0  0  0
 25 26  1  0  0  0  0
 26 27  1  0  0  0  0
 27 28  1  0  0  0  0
 28 29  1  0  0  0  0
 29 30  1  0  0  0  0
 30 31  1  0  0  0  0
 30 32  1  0  0  0  0
  1 33  1  0  0  0  0
  1 34  1  0  0  0  0
  1 35  1  0  0  0  0
  2 36  1  0  0  0  0
  3 37  1  0  0  0  0
  3 38  1  0  0  0  0
  3 39  1  0  0  0  0
  4 40  1  0  0  0  0
  4 41  1  0  0  0  0
  5 42  1  0  0  0  0
  5 43  1  0  0  0  0
  6 44  1  0  0  0  0
  6 45  1  0  0  0  0
  7 46  1  0  0  0  0
  7 47  1  0  0  0  0
  8 48  1  0  0  0  0
  8 49  1  0  0  0  0
  9 50  1  0  0  0  0
  9 51  1  0  0  0  0
 10 52  1  0  0  0  0
 10 53  1  0  0  0  0
 15 54  1  0  0  0  0
 16 55  1  0  0  0  0
 17 56  1  0  0  0  0
 18 57  1  0  0  0  0
 23 58  1  0  0  0  0
 23 59  1  0  0  0  0
 24 60  1  0  0  0  0
 24 61  1  0  0  0  0
 25 62  1  0  0  0  0
 25 63  1  0  0  0  0
 26 64  1  0  0  0  0
 26 65  1  0  0  0  0
 27 66  1  0  0  0  0
 27 67  1  0  0  0  0
 28 68  1  0  0  0  0
 28 69  1  0  0  0  0
 29 70  1  0  0  0  0
 29 71  1  0  0  0  0
 30 72  1  0  0  0  0
 31 73  1  0  0  0  0
 31 74  1  0  0  0  0
 31 75  1  0  0  0  0
 32 76  1  0  0  0  0
 32 77  1  0  0  0  0
 32 78  1  0  0  0  0
M  END
>  <InChIKey>
ZVFDTKUVRCTHQE-UHFFFAOYSA-N

>  <UN GHS>
2B

>  <CASRN>
68515-49-1

> <Outcome>
1

>  <Index>
1030

>  <StandardizerResult>
Dearomatize (ID: Dearomatize)
Clear Stereo (ID: ClearStereo)
Wedge Clean (ID: WedgeClean)
Mesomerize (ID: Mesomerize)
Tautomerize (ID: Tautomerize)
Aromatize (ID: Aromatize)
Add Explicit Hydrogens (ID: AddExplicitH)
Neutralize (ID: Neutralize)
Clean 2D (ID: Clean2D)

> <knn Distance>


> <CpId>
1030

$$$$
1031
  Mrv1532301301811342D          

 26 27  0  0  0  0            999 V2000
    2.0973   -0.4027    0.0000 O   0  0  0  0  0  0  0  0  0  0  0  0
    2.0973   -1.2277    0.0000 C   0  0  0  0  0  0  0  0  0  0  0  0
    2.8118   -1.6402    0.0000 C   0  0  0  0  0  0  0  0  0  0  0  0
    2.8118   -2.4652    0.0000 C   0  0  0  0  0  0  0  0  0  0  0  0
    2.0973   -2.8777    0.0000 C   0  0  0  0  0  0  0  0  0  0  0  0
    2.0973   -3.7027    0.0000 C   0  0  0  0  0  0  0  0  0  0  0  0
    2.8118   -4.1152    0.0000 O   0  0  0  0  0  0  0  0  0  0  0  0
    1.3828   -4.1152    0.0000 C   0  0  0  0  0  0  0  0  0  0  0  0
    1.3828   -4.9402    0.0000 C   0  0  0  0  0  0  0  0  0  0  0  0
    0.6683   -5.3527    0.0000 C   0  0  0  0  0  0  0  0  0  0  0  0
   -0.0461   -4.9402    0.0000 C   0  0  0  0  0  0  0  0  0  0  0  0
   -0.0461   -4.1152    0.0000 C   0  0  0  0  0  0  0  0  0  0  0  0
    0.6683   -3.7027    0.0000 C   0  0  0  0  0  0  0  0  0  0  0  0
    1.3828   -2.4652    0.0000 C   0  0  0  0  0  0  0  0  0  0  0  0
    0.6683   -2.8777    0.0000 O   0  0  0  0  0  0  0  0  0  0  0  0
    1.3828   -1.6402    0.0000 C   0  0  0  0  0  0  0  0  0  0  0  0
    2.8118    0.0098    0.0000 H   0  0  0  0  0  0  0  0  0  0  0  0
    3.5262   -1.2277    0.0000 H   0  0  0  0  0  0  0  0  0  0  0  0
    3.5262   -2.8777    0.0000 H   0  0  0  0  0  0  0  0  0  0  0  0
    2.0973   -5.3527    0.0000 H   0  0  0  0  0  0  0  0  0  0  0  0
    0.6683   -6.1777    0.0000 H   0  0  0  0  0  0  0  0  0  0  0  0
   -0.7606   -5.3527    0.0000 H   0  0  0  0  0  0  0  0  0  0  0  0
   -0.7606   -3.7027    0.0000 H   0  0  0  0  0  0  0  0  0  0  0  0
    1.3828   -3.2902    0.0000 H   0  0  0  0  0  0  0  0  0  0  0  0
   -0.0461   -2.4652    0.0000 H   0  0  0  0  0  0  0  0  0  0  0  0
    0.6683   -1.2277    0.0000 H   0  0  0  0  0  0  0  0  0  0  0  0
  1  2  1  0  0  0  0
  2  3  4  0  0  0  0
  3  4  4  0  0  0  0
  4  5  4  0  0  0  0
  5  6  1  0  0  0  0
  6  7  2  0  0  0  0
  6  8  1  0  0  0  0
  8  9  4  0  0  0  0
  9 10  4  0  0  0  0
 10 11  4  0  0  0  0
 11 12  4  0  0  0  0
 12 13  4  0  0  0  0
  8 13  4  0  0  0  0
  5 14  4  0  0  0  0
 14 15  1  0  0  0  0
 14 16  4  0  0  0  0
  2 16  4  0  0  0  0
  1 17  1  0  0  0  0
  3 18  1  0  0  0  0
  4 19  1  0  0  0  0
  9 20  1  0  0  0  0
 10 21  1  0  0  0  0
 11 22  1  0  0  0  0
 12 23  1  0  0  0  0
 13 24  1  0  0  0  0
 15 25  1  0  0  0  0
 16 26  1  0  0  0  0
M  END
>  <InChIKey>
ZXDDPOHVAMWLBH-UHFFFAOYSA-N

>  <UN GHS>
2A

>  <CASRN>
131-56-6

> <Outcome>
1

>  <Index>
1031

>  <StandardizerResult>
Dearomatize (ID: Dearomatize)
Clear Stereo (ID: ClearStereo)
Wedge Clean (ID: WedgeClean)
Mesomerize (ID: Mesomerize)
Tautomerize (ID: Tautomerize)
Aromatize (ID: Aromatize)
Add Explicit Hydrogens (ID: AddExplicitH)
Neutralize (ID: Neutralize)
Clean 2D (ID: Clean2D)

> <knn Distance>


> <CpId>
1031

$$$$
1032
  Mrv1532301301811342D          

 15 14  0  0  0  0            999 V2000
    2.1231   -0.7069    0.0000 C   0  0  0  0  0  0  0  0  0  0  0  0
    1.2981   -0.7069    0.0000 C   0  0  0  0  0  0  0  0  0  0  0  0
    0.8856   -1.4213    0.0000 C   0  0  0  0  0  0  0  0  0  0  0  0
    0.8856    0.0076    0.0000 C   0  0  0  0  0  0  0  0  0  0  0  0
    0.0606    0.0076    0.0000 O   0  0  0  0  0  0  0  0  0  0  0  0
    2.1231   -1.5319    0.0000 H   0  0  0  0  0  0  0  0  0  0  0  0
    2.9481   -0.7069    0.0000 H   0  0  0  0  0  0  0  0  0  0  0  0
    2.1231    0.1181    0.0000 H   0  0  0  0  0  0  0  0  0  0  0  0
    1.7106   -1.4213    0.0000 H   0  0  0  0  0  0  0  0  0  0  0  0
    0.3022   -0.8380    0.0000 H   0  0  0  0  0  0  0  0  0  0  0  0
    0.1711   -1.8338    0.0000 H   0  0  0  0  0  0  0  0  0  0  0  0
    1.0991   -2.2182    0.0000 H   0  0  0  0  0  0  0  0  0  0  0  0
    1.5749    0.4609    0.0000 H   0  0  0  0  0  0  0  0  0  0  0  0
    0.9336    0.8312    0.0000 H   0  0  0  0  0  0  0  0  0  0  0  0
   -0.5980    0.5044    0.0000 H   0  0  0  0  0  0  0  0  0  0  0  0
  1  2  1  0  0  0  0
  2  3  1  0  0  0  0
  2  4  1  0  0  0  0
  4  5  1  0  0  0  0
  1  6  1  0  0  0  0
  1  7  1  0  0  0  0
  1  8  1  0  0  0  0
  2  9  1  0  0  0  0
  3 10  1  0  0  0  0
  3 11  1  0  0  0  0
  3 12  1  0  0  0  0
  4 13  1  0  0  0  0
  4 14  1  0  0  0  0
  5 15  1  0  0  0  0
M  END
>  <InChIKey>
ZXEKIIBDNHEJCQ-UHFFFAOYSA-N

>  <UN GHS>
1

>  <CASRN>
78-83-1

> <Outcome>
1

>  <Index>
1032

>  <StandardizerResult>
Clear Stereo (ID: ClearStereo)
Wedge Clean (ID: WedgeClean)
Mesomerize (ID: Mesomerize)
Tautomerize (ID: Tautomerize)
Add Explicit Hydrogens (ID: AddExplicitH)
Neutralize (ID: Neutralize)
Clean 2D (ID: Clean2D)

> <knn Distance>


> <CpId>
1032

$$$$
1033
  Mrv1532301301811342D          

 50 51  0  0  0  0            999 V2000
   -2.9963    2.5402    0.0000 C   0  0  0  0  0  0  0  0  0  0  0  0
   -2.2818    2.1277    0.0000 C   0  0  0  0  0  0  0  0  0  0  0  0
   -2.6943    1.4132    0.0000 C   0  0  0  0  0  0  0  0  0  0  0  0
   -1.8693    2.8422    0.0000 C   0  0  0  0  0  0  0  0  0  0  0  0
   -1.5674    1.7152    0.0000 C   0  0  0  0  0  0  0  0  0  0  0  0
   -0.8529    2.1277    0.0000 C   0  0  0  0  0  0  0  0  0  0  0  0
   -0.1384    1.7152    0.0000 C   0  0  0  0  0  0  0  0  0  0  0  0
   -0.1384    0.8902    0.0000 C   0  0  0  0  0  0  0  0  0  0  0  0
    0.5760    0.4777    0.0000 O   0  0  0  0  0  0  0  0  0  0  0  0
    1.2905    0.8902    0.0000 C   0  0  0  0  0  0  0  0  0  0  0  0
    1.2905    1.7152    0.0000 C   0  0  0  0  0  0  0  0  0  0  0  0
    2.0050    2.1277    0.0000 C   0  0  0  0  0  0  0  0  0  0  0  0
    2.7194    1.7152    0.0000 C   0  0  0  0  0  0  0  0  0  0  0  0
    2.7194    0.8902    0.0000 C   0  0  0  0  0  0  0  0  0  0  0  0
    2.0050    0.4777    0.0000 C   0  0  0  0  0  0  0  0  0  0  0  0
    2.0050   -0.3473    0.0000 O   0  0  0  0  0  0  0  0  0  0  0  0
    2.7194   -0.7598    0.0000 S   0  0  0  0  0  0  0  0  0  0  0  0
    2.7194   -1.5848    0.0000 O   0  0  0  0  0  0  0  0  0  0  0  0
    3.4339   -0.3473    0.0000 O   0  0  0  0  0  0  0  0  0  0  0  0
    4.1484   -0.7598    0.0000 C   0  0  0  0  0  0  0  0  0  0  0  0
    4.8629   -0.3473    0.0000 C   0  0  0  0  0  0  0  0  0  0  0  0
    5.5773    0.0652    0.0000 C   0  0  0  0  0  0  0  0  0  0  0  0
   -0.8529    0.4777    0.0000 C   0  0  0  0  0  0  0  0  0  0  0  0
   -1.5674    0.8902    0.0000 C   0  0  0  0  0  0  0  0  0  0  0  0
   -2.5838    3.2547    0.0000 H   0  0  0  0  0  0  0  0  0  0  0  0
   -3.7108    2.9527    0.0000 H   0  0  0  0  0  0  0  0  0  0  0  0
   -3.4088    1.8257    0.0000 H   0  0  0  0  0  0  0  0  0  0  0  0
   -3.3489    0.9110    0.0000 H   0  0  0  0  0  0  0  0  0  0  0  0
   -2.4808    0.6163    0.0000 H   0  0  0  0  0  0  0  0  0  0  0  0
   -1.8764    1.3055    0.0000 H   0  0  0  0  0  0  0  0  0  0  0  0
   -1.3671    2.1876    0.0000 H   0  0  0  0  0  0  0  0  0  0  0  0
   -1.0725    3.0557    0.0000 H   0  0  0  0  0  0  0  0  0  0  0  0
   -1.7617    3.6601    0.0000 H   0  0  0  0  0  0  0  0  0  0  0  0
   -0.1911    2.6202    0.0000 H   0  0  0  0  0  0  0  0  0  0  0  0
    0.6862    1.7391    0.0000 H   0  0  0  0  0  0  0  0  0  0  0  0
    1.2905    0.0652    0.0000 H   0  0  0  0  0  0  0  0  0  0  0  0
    1.0928    2.5162    0.0000 H   0  0  0  0  0  0  0  0  0  0  0  0
    2.0050    1.3027    0.0000 H   0  0  0  0  0  0  0  0  0  0  0  0
    2.3752    2.8649    0.0000 H   0  0  0  0  0  0  0  0  0  0  0  0
    1.6347    2.8649    0.0000 H   0  0  0  0  0  0  0  0  0  0  0  0
    3.5431    1.7632    0.0000 H   0  0  0  0  0  0  0  0  0  0  0  0
    3.1728    2.4045    0.0000 H   0  0  0  0  0  0  0  0  0  0  0  0
    3.1728    0.2009    0.0000 H   0  0  0  0  0  0  0  0  0  0  0  0
    3.5431    0.8422    0.0000 H   0  0  0  0  0  0  0  0  0  0  0  0
    2.7194    0.0652    0.0000 H   0  0  0  0  0  0  0  0  0  0  0  0
    3.7781   -1.4971    0.0000 H   0  0  0  0  0  0  0  0  0  0  0  0
    4.5186   -1.4971    0.0000 H   0  0  0  0  0  0  0  0  0  0  0  0
    6.2918    0.4777    0.0000 H   0  0  0  0  0  0  0  0  0  0  0  0
   -0.8529   -0.3473    0.0000 H   0  0  0  0  0  0  0  0  0  0  0  0
   -1.6630    0.0708    0.0000 H   0  0  0  0  0  0  0  0  0  0  0  0
  1  2  1  0  0  0  0
  2  3  1  0  0  0  0
  2  4  1  0  0  0  0
  2  5  1  0  0  0  0
  5  6  4  0  0  0  0
  6  7  4  0  0  0  0
  7  8  4  0  0  0  0
  8  9  1  0  0  0  0
  9 10  1  0  0  0  0
 10 11  1  0  0  0  0
 11 12  1  0  0  0  0
 12 13  1  0  0  0  0
 13 14  1  0  0  0  0
 14 15  1  0  0  0  0
 10 15  1  0  0  0  0
 15 16  1  0  0  0  0
 16 17  1  0  0  0  0
 17 18  2  0  0  0  0
 17 19  1  0  0  0  0
 19 20  1  0  0  0  0
 20 21  1  0  0  0  0
 21 22  3  0  0  0  0
  8 23  4  0  0  0  0
 23 24  4  0  0  0  0
  5 24  4  0  0  0  0
  1 25  1  0  0  0  0
  1 26  1  0  0  0  0
  1 27  1  0  0  0  0
  3 28  1  0  0  0  0
  3 29  1  0  0  0  0
  3 30  1  0  0  0  0
  4 31  1  0  0  0  0
  4 32  1  0  0  0  0
  4 33  1  0  0  0  0
  6 34  1  0  0  0  0
  7 35  1  0  0  0  0
 10 36  1  0  0  0  0
 11 37  1  0  0  0  0
 11 38  1  0  0  0  0
 12 39  1  0  0  0  0
 12 40  1  0  0  0  0
 13 41  1  0  0  0  0
 13 42  1  0  0  0  0
 14 43  1  0  0  0  0
 14 44  1  0  0  0  0
 15 45  1  0  0  0  0
 20 46  1  0  0  0  0
 20 47  1  0  0  0  0
 22 48  1  0  0  0  0
 23 49  1  0  0  0  0
 24 50  1  0  0  0  0
M  END
>  <InChIKey>
ZYHMJXZULPZUED-UHFFFAOYSA-N

>  <UN GHS>
1

>  <CASRN>
2312-35-8

> <Outcome>
1

>  <Index>
1033

>  <StandardizerResult>
Dearomatize (ID: Dearomatize)
Clear Stereo (ID: ClearStereo)
Wedge Clean (ID: WedgeClean)
Mesomerize (ID: Mesomerize)
Tautomerize (ID: Tautomerize)
Aromatize (ID: Aromatize)
Add Explicit Hydrogens (ID: AddExplicitH)
Neutralize (ID: Neutralize)
Clean 2D (ID: Clean2D)

> <knn Distance>


> <CpId>
1033

$$$$
1041
  Mrv1532301301811342D          

 27 28  0  0  0  0            999 V2000
    2.1665   -0.4395    0.0000 O   0  0  0  0  0  0  0  0  0  0  0  0
    2.1665   -1.2645    0.0000 C   0  0  0  0  0  0  0  0  0  0  0  0
    2.8810   -1.6770    0.0000 C   0  0  0  0  0  0  0  0  0  0  0  0
    3.5955   -1.2645    0.0000 Cl  0  0  0  0  0  0  0  0  0  0  0  0
    2.8810   -2.5020    0.0000 C   0  0  0  0  0  0  0  0  0  0  0  0
    2.1665   -2.9145    0.0000 C   0  0  0  0  0  0  0  0  0  0  0  0
    2.1665   -3.7395    0.0000 Cl  0  0  0  0  0  0  0  0  0  0  0  0
    1.4520   -2.5020    0.0000 C   0  0  0  0  0  0  0  0  0  0  0  0
    0.7376   -2.9145    0.0000 Cl  0  0  0  0  0  0  0  0  0  0  0  0
    1.4520   -1.6770    0.0000 C   0  0  0  0  0  0  0  0  0  0  0  0
    0.7376   -1.2645    0.0000 C   0  0  0  0  0  0  0  0  0  0  0  0
    0.7376   -0.4395    0.0000 C   0  0  0  0  0  0  0  0  0  0  0  0
    0.0231   -0.0270    0.0000 C   0  0  0  0  0  0  0  0  0  0  0  0
   -0.6914   -0.4395    0.0000 O   0  0  0  0  0  0  0  0  0  0  0  0
    0.0231    0.7980    0.0000 C   0  0  0  0  0  0  0  0  0  0  0  0
   -0.6914    1.2105    0.0000 Cl  0  0  0  0  0  0  0  0  0  0  0  0
    0.7376    1.2105    0.0000 C   0  0  0  0  0  0  0  0  0  0  0  0
    1.4520    0.7980    0.0000 C   0  0  0  0  0  0  0  0  0  0  0  0
    2.1665    1.2105    0.0000 Cl  0  0  0  0  0  0  0  0  0  0  0  0
    1.4520   -0.0270    0.0000 C   0  0  0  0  0  0  0  0  0  0  0  0
    2.2725    0.0592    0.0000 Cl  0  0  0  0  0  0  0  0  0  0  0  0
    2.9870   -0.5258    0.0000 H   0  0  0  0  0  0  0  0  0  0  0  0
    3.5955   -2.9145    0.0000 H   0  0  0  0  0  0  0  0  0  0  0  0
   -0.0860   -1.3125    0.0000 H   0  0  0  0  0  0  0  0  0  0  0  0
    0.2842   -1.9538    0.0000 H   0  0  0  0  0  0  0  0  0  0  0  0
   -1.4058   -0.0270    0.0000 H   0  0  0  0  0  0  0  0  0  0  0  0
    0.7376    2.0355    0.0000 H   0  0  0  0  0  0  0  0  0  0  0  0
  1  2  1  0  0  0  0
  2  3  4  0  0  0  0
  3  4  1  0  0  0  0
  3  5  4  0  0  0  0
  5  6  4  0  0  0  0
  6  7  1  0  0  0  0
  6  8  4  0  0  0  0
  8  9  1  0  0  0  0
  8 10  4  0  0  0  0
  2 10  4  0  0  0  0
 10 11  1  0  0  0  0
 11 12  1  0  0  0  0
 12 13  4  0  0  0  0
 13 14  1  0  0  0  0
 13 15  4  0  0  0  0
 15 16  1  0  0  0  0
 15 17  4  0  0  0  0
 17 18  4  0  0  0  0
 18 19  1  0  0  0  0
 18 20  4  0  0  0  0
 12 20  4  0  0  0  0
 20 21  1  0  0  0  0
  1 22  1  0  0  0  0
  5 23  1  0  0  0  0
 11 24  1  0  0  0  0
 11 25  1  0  0  0  0
 14 26  1  0  0  0  0
 17 27  1  0  0  0  0
M  END
>  <InChIKey>
InChI=1S/C13H6Cl6O2/c14-6-2-8(16)12(20)4(10(6)18)1-5-11(19)7(15)3-9(17)13(5)21/h2-3,20-21H,1H2

>  <CASRN>
70-30-4

> <Outcome>
1

>  <Index>
1041

>  <StandardizerResult>
Dearomatize (ID: Dearomatize)
Clear Stereo (ID: ClearStereo)
Wedge Clean (ID: WedgeClean)
Mesomerize (ID: Mesomerize)
Tautomerize (ID: Tautomerize)
Aromatize (ID: Aromatize)
Add Explicit Hydrogens (ID: AddExplicitH)
Neutralize (ID: Neutralize)
Clean 2D (ID: Clean2D)

> <knn Distance>


> <CpId>
1041

$$$$
1045
  Mrv1532301301811342D          

 14 14  0  0  0  0            999 V2000
    0.7145    2.0625    0.0000 Cl  0  0  0  0  0  0  0  0  0  0  0  0
    0.7145    1.2375    0.0000 C   0  0  0  0  0  0  0  0  0  0  0  0
    1.4289    0.8250    0.0000 C   0  0  0  0  0  0  0  0  0  0  0  0
    1.4289   -0.0000    0.0000 C   0  0  0  0  0  0  0  0  0  0  0  0
    0.7145   -0.4125    0.0000 C   0  0  0  0  0  0  0  0  0  0  0  0
   -0.0000    0.0000    0.0000 C   0  0  0  0  0  0  0  0  0  0  0  0
   -0.0000    0.8250    0.0000 C   0  0  0  0  0  0  0  0  0  0  0  0
    0.7145   -1.2375    0.0000 N   0  0  0  0  0  0  0  0  0  0  0  0
    1.4289   -1.6500    0.0000 C   0  0  0  0  0  0  0  0  0  0  0  0
    2.1434   -2.0625    0.0000 O   0  0  0  0  0  0  0  0  0  0  0  0
    2.1434    1.2375    0.0000 H   0  0  0  0  0  0  0  0  0  0  0  0
    2.1434   -0.4125    0.0000 H   0  0  0  0  0  0  0  0  0  0  0  0
   -0.7145   -0.4125    0.0000 H   0  0  0  0  0  0  0  0  0  0  0  0
   -0.7145    1.2375    0.0000 H   0  0  0  0  0  0  0  0  0  0  0  0
  1  2  1  0  0  0  0
  2  3  4  0  0  0  0
  3  4  4  0  0  0  0
  4  5  4  0  0  0  0
  5  6  4  0  0  0  0
  6  7  4  0  0  0  0
  2  7  4  0  0  0  0
  5  8  1  0  0  0  0
  8  9  2  0  0  0  0
  9 10  2  0  0  0  0
  3 11  1  0  0  0  0
  4 12  1  0  0  0  0
  6 13  1  0  0  0  0
  7 14  1  0  0  0  0
M  END
>  <InChIKey>
InChI=1S/C7H4ClNO/c8-6-1-3-7(4-2-6)9-5-10/h1-4H

>  <CASRN>
104-12-1

> <Outcome>
1

>  <Index>
1045

>  <StandardizerResult>
Dearomatize (ID: Dearomatize)
Clear Stereo (ID: ClearStereo)
Wedge Clean (ID: WedgeClean)
Mesomerize (ID: Mesomerize)
Tautomerize (ID: Tautomerize)
Aromatize (ID: Aromatize)
Add Explicit Hydrogens (ID: AddExplicitH)
Neutralize (ID: Neutralize)
Clean 2D (ID: Clean2D)

> <knn Distance>


> <CpId>
1045

$$$$
1057
  Mrv1532301301811342D          

 30 29  0  0  0  0            999 V2000
    2.2836    2.1428    0.0000 C   0  0  0  0  0  0  0  0  0  0  0  0
    2.9980    2.5553    0.0000 C   0  0  0  0  0  0  0  0  0  0  0  0
    3.7125    2.1428    0.0000 C   0  0  0  0  0  0  0  0  0  0  0  0
    4.4270    2.5553    0.0000 C   0  0  0  0  0  0  0  0  0  0  0  0
    5.1414    2.1428    0.0000 C   0  0  0  0  0  0  0  0  0  0  0  0
    5.8559    2.5553    0.0000 C   0  0  0  0  0  0  0  0  0  0  0  0
    6.5704    2.1428    0.0000 C   0  0  0  0  0  0  0  0  0  0  0  0
    7.2849    2.5553    0.0000 C   0  0  0  0  0  0  0  0  0  0  0  0
    7.9993    2.1428    0.0000 C   0  0  0  0  0  0  0  0  0  0  0  0
    8.7138    2.5553    0.0000 C   0  0  0  0  0  0  0  0  0  0  0  0
    1.8711    2.8573    0.0000 H   0  0  0  0  0  0  0  0  0  0  0  0
    1.5691    1.7303    0.0000 H   0  0  0  0  0  0  0  0  0  0  0  0
    2.6961    1.4283    0.0000 H   0  0  0  0  0  0  0  0  0  0  0  0
    3.3683    3.2926    0.0000 H   0  0  0  0  0  0  0  0  0  0  0  0
    2.6278    3.2926    0.0000 H   0  0  0  0  0  0  0  0  0  0  0  0
    3.3422    1.4056    0.0000 H   0  0  0  0  0  0  0  0  0  0  0  0
    4.0828    1.4056    0.0000 H   0  0  0  0  0  0  0  0  0  0  0  0
    4.7972    3.2926    0.0000 H   0  0  0  0  0  0  0  0  0  0  0  0
    4.0567    3.2926    0.0000 H   0  0  0  0  0  0  0  0  0  0  0  0
    4.7712    1.4056    0.0000 H   0  0  0  0  0  0  0  0  0  0  0  0
    5.5117    1.4056    0.0000 H   0  0  0  0  0  0  0  0  0  0  0  0
    6.2262    3.2926    0.0000 H   0  0  0  0  0  0  0  0  0  0  0  0
    5.4857    3.2926    0.0000 H   0  0  0  0  0  0  0  0  0  0  0  0
    6.2001    1.4056    0.0000 H   0  0  0  0  0  0  0  0  0  0  0  0
    6.9406    1.4056    0.0000 H   0  0  0  0  0  0  0  0  0  0  0  0
    7.6551    3.2926    0.0000 H   0  0  0  0  0  0  0  0  0  0  0  0
    6.9146    3.2926    0.0000 H   0  0  0  0  0  0  0  0  0  0  0  0
    7.9993    1.3178    0.0000 H   0  0  0  0  0  0  0  0  0  0  0  0
    9.4283    2.1428    0.0000 H   0  0  0  0  0  0  0  0  0  0  0  0
    8.7138    3.3803    0.0000 H   0  0  0  0  0  0  0  0  0  0  0  0
  1  2  1  0  0  0  0
  2  3  1  0  0  0  0
  3  4  1  0  0  0  0
  4  5  1  0  0  0  0
  5  6  1  0  0  0  0
  6  7  1  0  0  0  0
  7  8  1  0  0  0  0
  8  9  1  0  0  0  0
  9 10  2  0  0  0  0
  1 11  1  0  0  0  0
  1 12  1  0  0  0  0
  1 13  1  0  0  0  0
  2 14  1  0  0  0  0
  2 15  1  0  0  0  0
  3 16  1  0  0  0  0
  3 17  1  0  0  0  0
  4 18  1  0  0  0  0
  4 19  1  0  0  0  0
  5 20  1  0  0  0  0
  5 21  1  0  0  0  0
  6 22  1  0  0  0  0
  6 23  1  0  0  0  0
  7 24  1  0  0  0  0
  7 25  1  0  0  0  0
  8 26  1  0  0  0  0
  8 27  1  0  0  0  0
  9 28  1  0  0  0  0
 10 29  1  0  0  0  0
 10 30  1  0  0  0  0
M  END
>  <InChIKey>
InChI=1S/C10H20/c1-3-5-7-9-10-8-6-4-2/h3H,1,4-10H2,2H3

>  <CASRN>
872-05-9

> <Outcome>
1

>  <Index>
1057

>  <StandardizerResult>
Clear Stereo (ID: ClearStereo)
Wedge Clean (ID: WedgeClean)
Mesomerize (ID: Mesomerize)
Tautomerize (ID: Tautomerize)
Add Explicit Hydrogens (ID: AddExplicitH)
Neutralize (ID: Neutralize)
Clean 2D (ID: Clean2D)

> <knn Distance>


> <CpId>
1057

$$$$
1061
  Mrv1532301301811342D          

 25 25  0  0  0  0            999 V2000
   -0.0286    2.4255    0.0000 C   0  0  0  0  0  0  0  0  0  0  0  0
    0.6859    2.0130    0.0000 N   0  0  0  0  0  0  0  0  0  0  0  0
    0.6859    1.1880    0.0000 C   0  0  0  0  0  0  0  0  0  0  0  0
    1.4004    0.7755    0.0000 C   0  0  0  0  0  0  0  0  0  0  0  0
    1.4004   -0.0495    0.0000 C   0  0  0  0  0  0  0  0  0  0  0  0
    0.6859   -0.4620    0.0000 C   0  0  0  0  0  0  0  0  0  0  0  0
   -0.0286   -0.0495    0.0000 C   0  0  0  0  0  0  0  0  0  0  0  0
   -0.0286    0.7755    0.0000 C   0  0  0  0  0  0  0  0  0  0  0  0
   -0.7431    1.1880    0.0000 N   0  0  0  0  0  0  0  0  0  0  0  0
   -0.7431    2.0130    0.0000 O   0  0  0  0  0  0  0  0  0  0  0  0
   -1.4575    0.7755    0.0000 O   0  0  0  0  0  0  0  0  0  0  0  0
    0.6859   -1.2870    0.0000 N   0  0  0  0  0  0  0  0  0  0  0  0
   -0.0286   -1.6995    0.0000 O   0  0  0  0  0  0  0  0  0  0  0  0
    1.4004   -1.6995    0.0000 O   0  0  0  0  0  0  0  0  0  0  0  0
    2.1148    1.1880    0.0000 N   0  0  0  0  0  0  0  0  0  0  0  0
    2.8293    0.7755    0.0000 O   0  0  0  0  0  0  0  0  0  0  0  0
    2.1148    2.0130    0.0000 O   0  0  0  0  0  0  0  0  0  0  0  0
    1.4004    2.4255    0.0000 N   0  0  0  0  0  0  0  0  0  0  0  0
    1.4004    3.2505    0.0000 O   0  0  0  0  0  0  0  0  0  0  0  0
    2.2208    2.5117    0.0000 O   0  0  0  0  0  0  0  0  0  0  0  0
    0.6859    2.8380    0.0000 H   0  0  0  0  0  0  0  0  0  0  0  0
   -0.0286    3.2505    0.0000 H   0  0  0  0  0  0  0  0  0  0  0  0
   -0.7431    2.8380    0.0000 H   0  0  0  0  0  0  0  0  0  0  0  0
    2.1148   -0.4620    0.0000 H   0  0  0  0  0  0  0  0  0  0  0  0
   -0.7431   -0.4620    0.0000 H   0  0  0  0  0  0  0  0  0  0  0  0
  1  2  1  0  0  0  0
  2  3  1  0  0  0  0
  3  4  4  0  0  0  0
  4  5  4  0  0  0  0
  5  6  4  0  0  0  0
  6  7  4  0  0  0  0
  7  8  4  0  0  0  0
  3  8  4  0  0  0  0
  8  9  1  0  0  0  0
  9 10  2  0  0  0  0
  9 11  2  0  0  0  0
  6 12  1  0  0  0  0
 12 13  2  0  0  0  0
 12 14  2  0  0  0  0
  4 15  1  0  0  0  0
 15 16  2  0  0  0  0
 15 17  2  0  0  0  0
  2 18  1  0  0  0  0
 18 19  2  0  0  0  0
 18 20  2  0  0  0  0
  1 21  1  0  0  0  0
  1 22  1  0  0  0  0
  1 23  1  0  0  0  0
  5 24  1  0  0  0  0
  7 25  1  0  0  0  0
M  END
>  <InChIKey>
InChI=1S/C7H5N5O8/c1-8(12(19)20)7-5(10(15)16)2-4(9(13)14)3-6(7)11(17)18/h2-3H,1H3

>  <CASRN>
479-45-8

> <Outcome>
1

>  <Index>
1061

>  <StandardizerResult>
Dearomatize (ID: Dearomatize)
Clear Stereo (ID: ClearStereo)
Wedge Clean (ID: WedgeClean)
Mesomerize (ID: Mesomerize)
Tautomerize (ID: Tautomerize)
Aromatize (ID: Aromatize)
Add Explicit Hydrogens (ID: AddExplicitH)
Neutralize (ID: Neutralize)
Clean 2D (ID: Clean2D)

> <knn Distance>


> <CpId>
1061

$$$$
1062
  Mrv1532301301811342D          

 22 21  0  0  0  0            999 V2000
    2.2835    2.1434    0.0000 Cl  0  0  0  0  0  0  0  0  0  0  0  0
    2.9980    2.5559    0.0000 C   0  0  0  0  0  0  0  0  0  0  0  0
    3.7125    2.1434    0.0000 C   0  0  0  0  0  0  0  0  0  0  0  0
    4.4270    2.5559    0.0000 O   0  0  0  0  0  0  0  0  0  0  0  0
    5.1414    2.1434    0.0000 C   0  0  0  0  0  0  0  0  0  0  0  0
    5.8559    2.5559    0.0000 C   0  0  0  0  0  0  0  0  0  0  0  0
    6.5704    2.1434    0.0000 O   0  0  0  0  0  0  0  0  0  0  0  0
    7.2848    2.5559    0.0000 C   0  0  0  0  0  0  0  0  0  0  0  0
    7.9993    2.1434    0.0000 C   0  0  0  0  0  0  0  0  0  0  0  0
    8.7138    2.5559    0.0000 Cl  0  0  0  0  0  0  0  0  0  0  0  0
    3.3683    3.2931    0.0000 H   0  0  0  0  0  0  0  0  0  0  0  0
    2.6278    3.2931    0.0000 H   0  0  0  0  0  0  0  0  0  0  0  0
    3.3422    1.4062    0.0000 H   0  0  0  0  0  0  0  0  0  0  0  0
    4.0828    1.4062    0.0000 H   0  0  0  0  0  0  0  0  0  0  0  0
    4.7712    1.4062    0.0000 H   0  0  0  0  0  0  0  0  0  0  0  0
    5.5117    1.4062    0.0000 H   0  0  0  0  0  0  0  0  0  0  0  0
    6.2262    3.2931    0.0000 H   0  0  0  0  0  0  0  0  0  0  0  0
    5.4856    3.2931    0.0000 H   0  0  0  0  0  0  0  0  0  0  0  0
    7.6551    3.2931    0.0000 H   0  0  0  0  0  0  0  0  0  0  0  0
    6.9146    3.2931    0.0000 H   0  0  0  0  0  0  0  0  0  0  0  0
    7.6291    1.4062    0.0000 H   0  0  0  0  0  0  0  0  0  0  0  0
    8.3696    1.4062    0.0000 H   0  0  0  0  0  0  0  0  0  0  0  0
  1  2  1  0  0  0  0
  2  3  1  0  0  0  0
  3  4  1  0  0  0  0
  4  5  1  0  0  0  0
  5  6  1  0  0  0  0
  6  7  1  0  0  0  0
  7  8  1  0  0  0  0
  8  9  1  0  0  0  0
  9 10  1  0  0  0  0
  2 11  1  0  0  0  0
  2 12  1  0  0  0  0
  3 13  1  0  0  0  0
  3 14  1  0  0  0  0
  5 15  1  0  0  0  0
  5 16  1  0  0  0  0
  6 17  1  0  0  0  0
  6 18  1  0  0  0  0
  8 19  1  0  0  0  0
  8 20  1  0  0  0  0
  9 21  1  0  0  0  0
  9 22  1  0  0  0  0
M  END
>  <InChIKey>
InChI=1S/C6H12Cl2O2/c7-1-3-9-5-6-10-4-2-8/h1-6H2

>  <UN GHS>
1

>  <CASRN>
27252-69-3

> <Outcome>
1

>  <Index>
1062

>  <StandardizerResult>
Clear Stereo (ID: ClearStereo)
Wedge Clean (ID: WedgeClean)
Mesomerize (ID: Mesomerize)
Tautomerize (ID: Tautomerize)
Add Explicit Hydrogens (ID: AddExplicitH)
Neutralize (ID: Neutralize)
Clean 2D (ID: Clean2D)

> <knn Distance>


> <CpId>
1062

$$$$
1064
  Mrv1532301301811342D          

 10 10  0  0  0  0            999 V2000
    0.4125    0.9936    0.0000 C   0  0  0  0  0  0  0  0  0  0  0  0
    0.9958    0.4103    0.0000 C   0  0  0  0  0  0  0  0  0  0  0  0
    0.4125   -0.1731    0.0000 O   0  0  0  0  0  0  0  0  0  0  0  0
   -0.1709    0.4103    0.0000 C   0  0  0  0  0  0  0  0  0  0  0  0
    0.8250    1.7081    0.0000 H   0  0  0  0  0  0  0  0  0  0  0  0
   -0.0000    1.7081    0.0000 H   0  0  0  0  0  0  0  0  0  0  0  0
    1.7103   -0.0022    0.0000 H   0  0  0  0  0  0  0  0  0  0  0  0
    1.7103    0.8228    0.0000 H   0  0  0  0  0  0  0  0  0  0  0  0
   -0.8854    0.8228    0.0000 H   0  0  0  0  0  0  0  0  0  0  0  0
   -0.8854   -0.0022    0.0000 H   0  0  0  0  0  0  0  0  0  0  0  0
  1  2  1  0  0  0  0
  2  3  1  0  0  0  0
  3  4  1  0  0  0  0
  1  4  1  0  0  0  0
  1  5  1  0  0  0  0
  1  6  1  0  0  0  0
  2  7  1  0  0  0  0
  2  8  1  0  0  0  0
  4  9  1  0  0  0  0
  4 10  1  0  0  0  0
M  END
>  <InChIKey>
InChI=1S/C3H6O/c1-2-4-3-1/h1-3H2

>  <CASRN>
503-30-0

> <Outcome>
1

>  <Index>
1064

>  <StandardizerResult>
Clear Stereo (ID: ClearStereo)
Wedge Clean (ID: WedgeClean)
Mesomerize (ID: Mesomerize)
Tautomerize (ID: Tautomerize)
Add Explicit Hydrogens (ID: AddExplicitH)
Neutralize (ID: Neutralize)
Clean 2D (ID: Clean2D)

> <knn Distance>


> <CpId>
1064

$$$$
1065
  Mrv1532301301811342D          

 28 29  0  0  0  0            999 V2000
    0.7613   -0.4069    0.0000 Cl  0  0  0  0  0  0  0  0  0  0  0  0
    1.4757    0.0056    0.0000 C   0  0  0  0  0  0  0  0  0  0  0  0
    1.4757    0.8306    0.0000 Cl  0  0  0  0  0  0  0  0  0  0  0  0
    2.1902   -0.4069    0.0000 C   0  0  0  0  0  0  0  0  0  0  0  0
    2.1902   -1.2319    0.0000 C   0  0  0  0  0  0  0  0  0  0  0  0
    2.9047   -1.6444    0.0000 C   0  0  0  0  0  0  0  0  0  0  0  0
    2.9047   -2.4694    0.0000 C   0  0  0  0  0  0  0  0  0  0  0  0
    2.1902   -2.8819    0.0000 C   0  0  0  0  0  0  0  0  0  0  0  0
    2.1902   -3.7069    0.0000 Cl  0  0  0  0  0  0  0  0  0  0  0  0
    1.4757   -2.4694    0.0000 C   0  0  0  0  0  0  0  0  0  0  0  0
    1.4757   -1.6444    0.0000 C   0  0  0  0  0  0  0  0  0  0  0  0
    2.9047    0.0056    0.0000 C   0  0  0  0  0  0  0  0  0  0  0  0
    2.9047    0.8306    0.0000 C   0  0  0  0  0  0  0  0  0  0  0  0
    3.6191    1.2431    0.0000 C   0  0  0  0  0  0  0  0  0  0  0  0
    4.3336    0.8306    0.0000 C   0  0  0  0  0  0  0  0  0  0  0  0
    5.0481    1.2431    0.0000 Cl  0  0  0  0  0  0  0  0  0  0  0  0
    4.3336    0.0056    0.0000 C   0  0  0  0  0  0  0  0  0  0  0  0
    3.6191   -0.4069    0.0000 C   0  0  0  0  0  0  0  0  0  0  0  0
    0.7613    0.4181    0.0000 H   0  0  0  0  0  0  0  0  0  0  0  0
    1.4757   -0.8194    0.0000 H   0  0  0  0  0  0  0  0  0  0  0  0
    3.6191   -1.2319    0.0000 H   0  0  0  0  0  0  0  0  0  0  0  0
    3.6191   -2.8819    0.0000 H   0  0  0  0  0  0  0  0  0  0  0  0
    0.7613   -2.8819    0.0000 H   0  0  0  0  0  0  0  0  0  0  0  0
    0.6507   -1.6444    0.0000 H   0  0  0  0  0  0  0  0  0  0  0  0
    2.1902    1.2431    0.0000 H   0  0  0  0  0  0  0  0  0  0  0  0
    3.6191    2.0681    0.0000 H   0  0  0  0  0  0  0  0  0  0  0  0
    5.0481   -0.4069    0.0000 H   0  0  0  0  0  0  0  0  0  0  0  0
    2.9047   -0.8194    0.0000 H   0  0  0  0  0  0  0  0  0  0  0  0
  1  2  1  0  0  0  0
  2  3  1  0  0  0  0
  2  4  1  0  0  0  0
  4  5  1  0  0  0  0
  5  6  4  0  0  0  0
  6  7  4  0  0  0  0
  7  8  4  0  0  0  0
  8  9  1  0  0  0  0
  8 10  4  0  0  0  0
 10 11  4  0  0  0  0
  5 11  4  0  0  0  0
  4 12  1  0  0  0  0
 12 13  4  0  0  0  0
 13 14  4  0  0  0  0
 14 15  4  0  0  0  0
 15 16  1  0  0  0  0
 15 17  4  0  0  0  0
 17 18  4  0  0  0  0
 12 18  4  0  0  0  0
  2 19  1  0  0  0  0
  4 20  1  0  0  0  0
  6 21  1  0  0  0  0
  7 22  1  0  0  0  0
 10 23  1  0  0  0  0
 11 24  1  0  0  0  0
 13 25  1  0  0  0  0
 14 26  1  0  0  0  0
 17 27  1  0  0  0  0
 18 28  1  0  0  0  0
M  END
>  <InChIKey>
InChI=1S/C14H10Cl4/c15-11-5-1-9(2-6-11)13(14(17)18)10-3-7-12(16)8-4-10/h1-8,13-14H

>  <CASRN>
72-54-8

> <Outcome>
1

>  <Index>
1065

>  <StandardizerResult>
Dearomatize (ID: Dearomatize)
Clear Stereo (ID: ClearStereo)
Wedge Clean (ID: WedgeClean)
Mesomerize (ID: Mesomerize)
Tautomerize (ID: Tautomerize)
Aromatize (ID: Aromatize)
Add Explicit Hydrogens (ID: AddExplicitH)
Neutralize (ID: Neutralize)
Clean 2D (ID: Clean2D)

> <knn Distance>


> <CpId>
1065

$$$$
1070
  Mrv1532301301811342D          

 26 25  0  0  0  0            999 V2000
    4.9040   -2.9079    0.0000 C   0  0  0  0  0  0  0  0  0  0  0  0
    4.0790   -2.9079    0.0000 O   0  0  0  0  0  0  0  0  0  0  0  0
    3.6665   -2.1934    0.0000 P   0  0  0  0  0  0  0  0  0  0  0  0
    4.3810   -1.7809    0.0000 S   0  0  0  0  0  0  0  0  0  0  0  0
    2.9521   -2.6059    0.0000 O   0  0  0  0  0  0  0  0  0  0  0  0
    2.2376   -2.1934    0.0000 C   0  0  0  0  0  0  0  0  0  0  0  0
    3.2540   -1.4790    0.0000 S   0  0  0  0  0  0  0  0  0  0  0  0
    2.4290   -1.4790    0.0000 C   0  0  0  0  0  0  0  0  0  0  0  0
    2.0165   -0.7645    0.0000 C   0  0  0  0  0  0  0  0  0  0  0  0
    2.4290   -0.0500    0.0000 O   0  0  0  0  0  0  0  0  0  0  0  0
    1.1915   -0.7645    0.0000 N   0  0  0  0  0  0  0  0  0  0  0  0
    0.7790   -1.4790    0.0000 C   0  0  0  0  0  0  0  0  0  0  0  0
    0.7790   -0.0500    0.0000 C   0  0  0  0  0  0  0  0  0  0  0  0
   -0.0460   -0.0500    0.0000 O   0  0  0  0  0  0  0  0  0  0  0  0
    4.9040   -3.7329    0.0000 H   0  0  0  0  0  0  0  0  0  0  0  0
    5.7290   -2.9079    0.0000 H   0  0  0  0  0  0  0  0  0  0  0  0
    4.9040   -2.0829    0.0000 H   0  0  0  0  0  0  0  0  0  0  0  0
    1.6173   -1.6495    0.0000 H   0  0  0  0  0  0  0  0  0  0  0  0
    1.4754   -2.5092    0.0000 H   0  0  0  0  0  0  0  0  0  0  0  0
    2.1836   -3.0167    0.0000 H   0  0  0  0  0  0  0  0  0  0  0  0
    2.9313   -2.1335    0.0000 H   0  0  0  0  0  0  0  0  0  0  0  0
    2.8415   -0.7645    0.0000 H   0  0  0  0  0  0  0  0  0  0  0  0
    0.2257   -0.8671    0.0000 H   0  0  0  0  0  0  0  0  0  0  0  0
    0.0268   -1.8178    0.0000 H   0  0  0  0  0  0  0  0  0  0  0  0
    0.8707   -2.2989    0.0000 H   0  0  0  0  0  0  0  0  0  0  0  0
    1.1915    0.6644    0.0000 H   0  0  0  0  0  0  0  0  0  0  0  0
  1  2  1  0  0  0  0
  2  3  1  0  0  0  0
  3  4  2  0  0  0  0
  3  5  1  0  0  0  0
  5  6  1  0  0  0  0
  3  7  1  0  0  0  0
  7  8  1  0  0  0  0
  8  9  1  0  0  0  0
  9 10  2  0  0  0  0
  9 11  1  0  0  0  0
 11 12  1  0  0  0  0
 11 13  1  0  0  0  0
 13 14  2  0  0  0  0
  1 15  1  0  0  0  0
  1 16  1  0  0  0  0
  1 17  1  0  0  0  0
  6 18  1  0  0  0  0
  6 19  1  0  0  0  0
  6 20  1  0  0  0  0
  8 21  1  0  0  0  0
  8 22  1  0  0  0  0
 12 23  1  0  0  0  0
 12 24  1  0  0  0  0
 12 25  1  0  0  0  0
 13 26  1  0  0  0  0
M  END
>  <InChIKey>
InChI=1S/C6H12NO4PS2/c1-7(5-8)6(9)4-14-12(13,10-2)11-3/h5H,4H2,1-3H3

>  <CASRN>
2540-82-1

> <Outcome>
1

>  <Index>
1070

>  <StandardizerResult>
Clear Stereo (ID: ClearStereo)
Wedge Clean (ID: WedgeClean)
Mesomerize (ID: Mesomerize)
Tautomerize (ID: Tautomerize)
Add Explicit Hydrogens (ID: AddExplicitH)
Neutralize (ID: Neutralize)
Clean 2D (ID: Clean2D)

> <knn Distance>


> <CpId>
1070

$$$$
1076
  Mrv1532301301811342D          

 21 20  0  0  0  0            999 V2000
    0.0412   -1.4490    0.0000 C   0  0  0  0  0  0  0  0  0  0  0  0
    0.8662   -1.4490    0.0000 C   0  0  0  0  0  0  0  0  0  0  0  0
    1.2787   -0.7345    0.0000 N   0  0  0  0  0  0  0  0  0  0  0  0
    2.1037   -0.7345    0.0000 C   0  0  0  0  0  0  0  0  0  0  0  0
    2.5162   -0.0200    0.0000 C   0  0  0  0  0  0  0  0  0  0  0  0
    0.8662   -0.0200    0.0000 C   0  0  0  0  0  0  0  0  0  0  0  0
    1.2787    0.6944    0.0000 C   0  0  0  0  0  0  0  0  0  0  0  0
    0.0412   -0.0200    0.0000 O   0  0  0  0  0  0  0  0  0  0  0  0
    0.0412   -0.6240    0.0000 H   0  0  0  0  0  0  0  0  0  0  0  0
   -0.7838   -1.4490    0.0000 H   0  0  0  0  0  0  0  0  0  0  0  0
    0.0412   -2.2740    0.0000 H   0  0  0  0  0  0  0  0  0  0  0  0
    0.9141   -2.2726    0.0000 H   0  0  0  0  0  0  0  0  0  0  0  0
    1.5554   -1.9023    0.0000 H   0  0  0  0  0  0  0  0  0  0  0  0
    2.1516   -1.5581    0.0000 H   0  0  0  0  0  0  0  0  0  0  0  0
    2.7929   -1.1878    0.0000 H   0  0  0  0  0  0  0  0  0  0  0  0
    3.2306   -0.4325    0.0000 H   0  0  0  0  0  0  0  0  0  0  0  0
    2.9287    0.6944    0.0000 H   0  0  0  0  0  0  0  0  0  0  0  0
    1.8017    0.3925    0.0000 H   0  0  0  0  0  0  0  0  0  0  0  0
    1.9332    1.1967    0.0000 H   0  0  0  0  0  0  0  0  0  0  0  0
    1.0651    1.4913    0.0000 H   0  0  0  0  0  0  0  0  0  0  0  0
    0.4607    0.8021    0.0000 H   0  0  0  0  0  0  0  0  0  0  0  0
  1  2  1  0  0  0  0
  2  3  1  0  0  0  0
  3  4  1  0  0  0  0
  4  5  1  0  0  0  0
  3  6  1  0  0  0  0
  6  7  1  0  0  0  0
  6  8  2  0  0  0  0
  1  9  1  0  0  0  0
  1 10  1  0  0  0  0
  1 11  1  0  0  0  0
  2 12  1  0  0  0  0
  2 13  1  0  0  0  0
  4 14  1  0  0  0  0
  4 15  1  0  0  0  0
  5 16  1  0  0  0  0
  5 17  1  0  0  0  0
  5 18  1  0  0  0  0
  7 19  1  0  0  0  0
  7 20  1  0  0  0  0
  7 21  1  0  0  0  0
M  END
>  <InChIKey>
InChI=1S/C6H13NO/c1-4-7(5-2)6(3)8/h4-5H2,1-3H3

>  <CASRN>
685-91-6

> <Outcome>
1

>  <Index>
1076

>  <StandardizerResult>
Clear Stereo (ID: ClearStereo)
Wedge Clean (ID: WedgeClean)
Mesomerize (ID: Mesomerize)
Tautomerize (ID: Tautomerize)
Add Explicit Hydrogens (ID: AddExplicitH)
Neutralize (ID: Neutralize)
Clean 2D (ID: Clean2D)

> <knn Distance>


> <CpId>
1076

$$$$
1085
  Mrv1532301301811342D          

 21 20  0  0  0  0            999 V2000
    1.7605    1.8414    0.0000 C   0  0  0  0  0  0  0  0  0  0  0  0
    2.4750    1.4289    0.0000 C   0  0  0  0  0  0  0  0  0  0  0  0
    3.1895    1.8414    0.0000 C   0  0  0  0  0  0  0  0  0  0  0  0
    3.9039    1.4289    0.0000 C   0  0  0  0  0  0  0  0  0  0  0  0
    4.6184    1.8414    0.0000 C   0  0  0  0  0  0  0  0  0  0  0  0
    5.3329    1.4289    0.0000 C   0  0  0  0  0  0  0  0  0  0  0  0
    6.0474    1.8414    0.0000 N   0  0  0  0  0  0  0  0  0  0  0  0
    5.3329    0.6039    0.0000 O   0  0  0  0  0  0  0  0  0  0  0  0
    2.1730    2.5559    0.0000 H   0  0  0  0  0  0  0  0  0  0  0  0
    1.0461    2.2539    0.0000 H   0  0  0  0  0  0  0  0  0  0  0  0
    1.3480    1.1269    0.0000 H   0  0  0  0  0  0  0  0  0  0  0  0
    2.1047    0.6917    0.0000 H   0  0  0  0  0  0  0  0  0  0  0  0
    2.8453    0.6917    0.0000 H   0  0  0  0  0  0  0  0  0  0  0  0
    3.5597    2.5786    0.0000 H   0  0  0  0  0  0  0  0  0  0  0  0
    2.8192    2.5786    0.0000 H   0  0  0  0  0  0  0  0  0  0  0  0
    3.5337    0.6917    0.0000 H   0  0  0  0  0  0  0  0  0  0  0  0
    4.2742    0.6917    0.0000 H   0  0  0  0  0  0  0  0  0  0  0  0
    4.9887    2.5786    0.0000 H   0  0  0  0  0  0  0  0  0  0  0  0
    4.2482    2.5786    0.0000 H   0  0  0  0  0  0  0  0  0  0  0  0
    6.7618    1.4289    0.0000 H   0  0  0  0  0  0  0  0  0  0  0  0
    6.0474    2.6664    0.0000 H   0  0  0  0  0  0  0  0  0  0  0  0
  1  2  1  0  0  0  0
  2  3  1  0  0  0  0
  3  4  1  0  0  0  0
  4  5  1  0  0  0  0
  5  6  1  0  0  0  0
  6  7  1  0  0  0  0
  6  8  2  0  0  0  0
  1  9  1  0  0  0  0
  1 10  1  0  0  0  0
  1 11  1  0  0  0  0
  2 12  1  0  0  0  0
  2 13  1  0  0  0  0
  3 14  1  0  0  0  0
  3 15  1  0  0  0  0
  4 16  1  0  0  0  0
  4 17  1  0  0  0  0
  5 18  1  0  0  0  0
  5 19  1  0  0  0  0
  7 20  1  0  0  0  0
  7 21  1  0  0  0  0
M  END
>  <InChIKey>
InChI=1S/C6H13NO/c1-2-3-4-5-6(7)8/h2-5H2,1H3,(H2,7,8)

>  <CASRN>
628-02-4

> <Outcome>
1

>  <Index>
1085

>  <StandardizerResult>
Clear Stereo (ID: ClearStereo)
Wedge Clean (ID: WedgeClean)
Mesomerize (ID: Mesomerize)
Tautomerize (ID: Tautomerize)
Add Explicit Hydrogens (ID: AddExplicitH)
Neutralize (ID: Neutralize)
Clean 2D (ID: Clean2D)

> <knn Distance>


> <CpId>
1085

$$$$
1088
  Mrv1532301301811342D          

 12 11  0  0  0  0            999 V2000
    1.2375    2.1434    0.0000 O   0  0  0  0  0  0  0  0  0  0  0  0
    0.8250    1.4289    0.0000 C   0  0  0  0  0  0  0  0  0  0  0  0
    1.2375    0.7145    0.0000 C   0  0  0  0  0  0  0  0  0  0  0  0
    0.8250   -0.0000    0.0000 C   0  0  0  0  0  0  0  0  0  0  0  0
    1.2375   -0.7145    0.0000 O   0  0  0  0  0  0  0  0  0  0  0  0
   -0.0000   -0.0000    0.0000 O   0  0  0  0  0  0  0  0  0  0  0  0
    2.0625    2.1434    0.0000 H   0  0  0  0  0  0  0  0  0  0  0  0
    0.0878    1.7992    0.0000 H   0  0  0  0  0  0  0  0  0  0  0  0
    0.0878    1.0587    0.0000 H   0  0  0  0  0  0  0  0  0  0  0  0
    1.9747    0.3442    0.0000 H   0  0  0  0  0  0  0  0  0  0  0  0
    1.9747    1.0847    0.0000 H   0  0  0  0  0  0  0  0  0  0  0  0
    0.8250   -1.4290    0.0000 H   0  0  0  0  0  0  0  0  0  0  0  0
  1  2  1  0  0  0  0
  2  3  1  0  0  0  0
  3  4  1  0  0  0  0
  4  5  1  0  0  0  0
  4  6  2  0  0  0  0
  1  7  1  0  0  0  0
  2  8  1  0  0  0  0
  2  9  1  0  0  0  0
  3 10  1  0  0  0  0
  3 11  1  0  0  0  0
  5 12  1  0  0  0  0
M  END
>  <InChIKey>
InChI=1S/C3H6O3/c4-2-1-3(5)6/h4H,1-2H2,(H,5,6)

>  <CASRN>
503-66-2

> <Outcome>
1

>  <Index>
1088

>  <StandardizerResult>
Clear Stereo (ID: ClearStereo)
Wedge Clean (ID: WedgeClean)
Mesomerize (ID: Mesomerize)
Tautomerize (ID: Tautomerize)
Add Explicit Hydrogens (ID: AddExplicitH)
Neutralize (ID: Neutralize)
Clean 2D (ID: Clean2D)

> <knn Distance>


> <CpId>
1088

$$$$
1093
  Mrv1532301301811342D          

 13 12  0  0  0  0            999 V2000
    2.1142   -0.7213    0.0000 C   0  0  0  0  0  0  0  0  0  0  0  0
    1.2892   -0.7213    0.0000 C   0  0  0  0  0  0  0  0  0  0  0  0
    0.8767   -1.4357    0.0000 C   0  0  0  0  0  0  0  0  0  0  0  0
    0.8767   -0.0068    0.0000 C   0  0  0  0  0  0  0  0  0  0  0  0
    0.0517   -0.0068    0.0000 O   0  0  0  0  0  0  0  0  0  0  0  0
    2.1142   -1.5463    0.0000 H   0  0  0  0  0  0  0  0  0  0  0  0
    2.9392   -0.7213    0.0000 H   0  0  0  0  0  0  0  0  0  0  0  0
    2.1142    0.1037    0.0000 H   0  0  0  0  0  0  0  0  0  0  0  0
    1.7017   -1.4357    0.0000 H   0  0  0  0  0  0  0  0  0  0  0  0
    0.2933   -0.8524    0.0000 H   0  0  0  0  0  0  0  0  0  0  0  0
    0.1622   -1.8482    0.0000 H   0  0  0  0  0  0  0  0  0  0  0  0
    1.0902   -2.2326    0.0000 H   0  0  0  0  0  0  0  0  0  0  0  0
    1.2892    0.7077    0.0000 H   0  0  0  0  0  0  0  0  0  0  0  0
  1  2  1  0  0  0  0
  2  3  1  0  0  0  0
  2  4  1  0  0  0  0
  4  5  2  0  0  0  0
  1  6  1  0  0  0  0
  1  7  1  0  0  0  0
  1  8  1  0  0  0  0
  2  9  1  0  0  0  0
  3 10  1  0  0  0  0
  3 11  1  0  0  0  0
  3 12  1  0  0  0  0
  4 13  1  0  0  0  0
M  END
>  <InChIKey>
InChI=1S/C4H8O/c1-4(2)3-5/h3-4H,1-2H3

>  <UN GHS>
2B

>  <CASRN>
78-84-2

> <Outcome>
1

>  <Index>
1093

>  <StandardizerResult>
Clear Stereo (ID: ClearStereo)
Wedge Clean (ID: WedgeClean)
Mesomerize (ID: Mesomerize)
Tautomerize (ID: Tautomerize)
Add Explicit Hydrogens (ID: AddExplicitH)
Neutralize (ID: Neutralize)
Clean 2D (ID: Clean2D)

> <knn Distance>


> <CpId>
1093

$$$$
1096
  Mrv1532301301811342D          

 12 11  0  0  0  0            999 V2000
   -0.1914   -0.7130    0.0000 C   0  0  0  0  0  0  0  0  0  0  0  0
    0.5230   -1.1255    0.0000 O   0  0  0  0  0  0  0  0  0  0  0  0
    1.2375   -0.7130    0.0000 C   0  0  0  0  0  0  0  0  0  0  0  0
    1.2375    0.1120    0.0000 O   0  0  0  0  0  0  0  0  0  0  0  0
    1.9520   -1.1255    0.0000 C   0  0  0  0  0  0  0  0  0  0  0  0
    2.6665   -0.7130    0.0000 C   0  0  0  0  0  0  0  0  0  0  0  0
    3.3809   -0.3005    0.0000 N   0  0  0  0  0  0  0  0  0  0  0  0
    0.2211    0.0014    0.0000 H   0  0  0  0  0  0  0  0  0  0  0  0
   -0.9059   -0.3005    0.0000 H   0  0  0  0  0  0  0  0  0  0  0  0
   -0.6039   -1.4275    0.0000 H   0  0  0  0  0  0  0  0  0  0  0  0
    1.5817   -1.8628    0.0000 H   0  0  0  0  0  0  0  0  0  0  0  0
    2.3222   -1.8628    0.0000 H   0  0  0  0  0  0  0  0  0  0  0  0
  1  2  1  0  0  0  0
  2  3  1  0  0  0  0
  3  4  2  0  0  0  0
  3  5  1  0  0  0  0
  5  6  1  0  0  0  0
  6  7  3  0  0  0  0
  1  8  1  0  0  0  0
  1  9  1  0  0  0  0
  1 10  1  0  0  0  0
  5 11  1  0  0  0  0
  5 12  1  0  0  0  0
M  END
>  <InChIKey>
InChI=1S/C4H5NO2/c1-7-4(6)2-3-5/h2H2,1H3

>  <UN GHS>
2A

>  <CASRN>
105-34-0

> <Outcome>
1

>  <Index>
1096

>  <StandardizerResult>
Clear Stereo (ID: ClearStereo)
Wedge Clean (ID: WedgeClean)
Mesomerize (ID: Mesomerize)
Tautomerize (ID: Tautomerize)
Add Explicit Hydrogens (ID: AddExplicitH)
Neutralize (ID: Neutralize)
Clean 2D (ID: Clean2D)

> <knn Distance>


> <CpId>
1096

$$$$
1103
  Mrv1532301301811342D          

 53 52  0  0  0  0            999 V2000
    6.0423    2.6645    0.0000 C   0  0  0  0  0  0  0  0  0  0  0  0
    6.6839    3.1831    0.0000 C   0  0  0  0  0  0  0  0  0  0  0  0
    7.4539    2.8868    0.0000 C   0  0  0  0  0  0  0  0  0  0  0  0
    8.0955    3.4054    0.0000 C   0  0  0  0  0  0  0  0  0  0  0  0
    8.8654    3.1090    0.0000 C   0  0  0  0  0  0  0  0  0  0  0  0
    9.5070    3.6276    0.0000 C   0  0  0  0  0  0  0  0  0  0  0  0
   10.2770    3.3313    0.0000 C   0  0  0  0  0  0  0  0  0  0  0  0
   10.9186    3.8499    0.0000 C   0  0  0  0  0  0  0  0  0  0  0  0
   11.6885    3.5535    0.0000 C   0  0  0  0  0  0  0  0  0  0  0  0
   12.3301    4.0722    0.0000 C   0  0  0  0  0  0  0  0  0  0  0  0
   13.1001    3.7758    0.0000 C   0  0  0  0  0  0  0  0  0  0  0  0
   13.7417    4.2944    0.0000 C   0  0  0  0  0  0  0  0  0  0  0  0
   13.6134    5.1094    0.0000 O   0  0  0  0  0  0  0  0  0  0  0  0
   14.5116    3.9981    0.0000 N   0  0  0  0  0  0  0  0  0  0  0  0
   15.1532    4.5167    0.0000 C   0  0  0  0  0  0  0  0  0  0  0  0
   15.9232    4.2203    0.0000 C   0  0  0  0  0  0  0  0  0  0  0  0
   16.5648    4.7389    0.0000 O   0  0  0  0  0  0  0  0  0  0  0  0
   14.6400    3.1831    0.0000 C   0  0  0  0  0  0  0  0  0  0  0  0
   15.4099    2.8868    0.0000 C   0  0  0  0  0  0  0  0  0  0  0  0
   15.5382    2.0718    0.0000 O   0  0  0  0  0  0  0  0  0  0  0  0
    5.5237    3.3061    0.0000 H   0  0  0  0  0  0  0  0  0  0  0  0
    5.4007    2.1459    0.0000 H   0  0  0  0  0  0  0  0  0  0  0  0
    6.5609    2.0229    0.0000 H   0  0  0  0  0  0  0  0  0  0  0  0
    6.9350    3.9690    0.0000 H   0  0  0  0  0  0  0  0  0  0  0  0
    6.2035    3.8538    0.0000 H   0  0  0  0  0  0  0  0  0  0  0  0
    7.2028    2.1009    0.0000 H   0  0  0  0  0  0  0  0  0  0  0  0
    7.9343    2.2161    0.0000 H   0  0  0  0  0  0  0  0  0  0  0  0
    8.3466    4.1912    0.0000 H   0  0  0  0  0  0  0  0  0  0  0  0
    7.6151    4.0761    0.0000 H   0  0  0  0  0  0  0  0  0  0  0  0
    8.6143    2.3232    0.0000 H   0  0  0  0  0  0  0  0  0  0  0  0
    9.3459    2.4383    0.0000 H   0  0  0  0  0  0  0  0  0  0  0  0
    9.7581    4.4135    0.0000 H   0  0  0  0  0  0  0  0  0  0  0  0
    9.0266    4.2983    0.0000 H   0  0  0  0  0  0  0  0  0  0  0  0
   10.0259    2.5454    0.0000 H   0  0  0  0  0  0  0  0  0  0  0  0
   10.7574    2.6606    0.0000 H   0  0  0  0  0  0  0  0  0  0  0  0
   11.1697    4.6358    0.0000 H   0  0  0  0  0  0  0  0  0  0  0  0
   10.4382    4.5206    0.0000 H   0  0  0  0  0  0  0  0  0  0  0  0
   11.4375    2.7677    0.0000 H   0  0  0  0  0  0  0  0  0  0  0  0
   12.1690    2.8829    0.0000 H   0  0  0  0  0  0  0  0  0  0  0  0
   12.5812    4.8580    0.0000 H   0  0  0  0  0  0  0  0  0  0  0  0
   11.8497    4.7428    0.0000 H   0  0  0  0  0  0  0  0  0  0  0  0
   12.8490    2.9899    0.0000 H   0  0  0  0  0  0  0  0  0  0  0  0
   13.5805    3.1051    0.0000 H   0  0  0  0  0  0  0  0  0  0  0  0
   15.4043    5.3025    0.0000 H   0  0  0  0  0  0  0  0  0  0  0  0
   14.6728    5.1874    0.0000 H   0  0  0  0  0  0  0  0  0  0  0  0
   15.6721    3.4345    0.0000 H   0  0  0  0  0  0  0  0  0  0  0  0
   16.4036    3.5496    0.0000 H   0  0  0  0  0  0  0  0  0  0  0  0
   17.3347    4.4426    0.0000 H   0  0  0  0  0  0  0  0  0  0  0  0
   13.8338    3.0076    0.0000 H   0  0  0  0  0  0  0  0  0  0  0  0
   14.2993    2.4317    0.0000 H   0  0  0  0  0  0  0  0  0  0  0  0
   16.2262    2.7674    0.0000 H   0  0  0  0  0  0  0  0  0  0  0  0
   14.7683    2.3682    0.0000 H   0  0  0  0  0  0  0  0  0  0  0  0
   16.0568    1.4302    0.0000 H   0  0  0  0  0  0  0  0  0  0  0  0
  1  2  1  0  0  0  0
  2  3  1  0  0  0  0
  3  4  1  0  0  0  0
  4  5  1  0  0  0  0
  5  6  1  0  0  0  0
  6  7  1  0  0  0  0
  7  8  1  0  0  0  0
  8  9  1  0  0  0  0
  9 10  1  0  0  0  0
 10 11  1  0  0  0  0
 11 12  1  0  0  0  0
 12 13  2  0  0  0  0
 12 14  1  0  0  0  0
 14 15  1  0  0  0  0
 15 16  1  0  0  0  0
 16 17  1  0  0  0  0
 14 18  1  0  0  0  0
 18 19  1  0  0  0  0
 19 20  1  0  0  0  0
  1 21  1  0  0  0  0
  1 22  1  0  0  0  0
  1 23  1  0  0  0  0
  2 24  1  0  0  0  0
  2 25  1  0  0  0  0
  3 26  1  0  0  0  0
  3 27  1  0  0  0  0
  4 28  1  0  0  0  0
  4 29  1  0  0  0  0
  5 30  1  0  0  0  0
  5 31  1  0  0  0  0
  6 32  1  0  0  0  0
  6 33  1  0  0  0  0
  7 34  1  0  0  0  0
  7 35  1  0  0  0  0
  8 36  1  0  0  0  0
  8 37  1  0  0  0  0
  9 38  1  0  0  0  0
  9 39  1  0  0  0  0
 10 40  1  0  0  0  0
 10 41  1  0  0  0  0
 11 42  1  0  0  0  0
 11 43  1  0  0  0  0
 15 44  1  0  0  0  0
 15 45  1  0  0  0  0
 16 46  1  0  0  0  0
 16 47  1  0  0  0  0
 17 48  1  0  0  0  0
 18 49  1  0  0  0  0
 18 50  1  0  0  0  0
 19 51  1  0  0  0  0
 19 52  1  0  0  0  0
 20 53  1  0  0  0  0
M  END
>  <InChIKey>
InChI=1S/C16H33NO3/c1-2-3-4-5-6-7-8-9-10-11-16(20)17(12-14-18)13-15-19/h18-19H,2-15H2,1H3

>  <CASRN>
120-40-1

> <Outcome>
1

>  <Index>
1103

>  <StandardizerResult>
Clear Stereo (ID: ClearStereo)
Wedge Clean (ID: WedgeClean)
Mesomerize (ID: Mesomerize)
Tautomerize (ID: Tautomerize)
Add Explicit Hydrogens (ID: AddExplicitH)
Neutralize (ID: Neutralize)
Clean 2D (ID: Clean2D)

> <knn Distance>


> <CpId>
1103

$$$$
1109
  Mrv1532301301811342D          

 39 40  0  0  0  0            999 V2000
    1.4289   -4.1250    0.0000 C   0  0  0  0  0  0  0  0  0  0  0  0
    2.1434   -3.7125    0.0000 C   0  0  0  0  0  0  0  0  0  0  0  0
    2.8579   -4.1250    0.0000 O   0  0  0  0  0  0  0  0  0  0  0  0
    3.5723   -3.7125    0.0000 C   0  0  0  0  0  0  0  0  0  0  0  0
    3.5723   -2.8875    0.0000 O   0  0  0  0  0  0  0  0  0  0  0  0
    4.2868   -4.1250    0.0000 C   0  0  0  0  0  0  0  0  0  0  0  0
    5.0013   -3.7125    0.0000 O   0  0  0  0  0  0  0  0  0  0  0  0
    5.7158   -4.1250    0.0000 C   0  0  0  0  0  0  0  0  0  0  0  0
    6.4302   -3.7125    0.0000 C   0  0  0  0  0  0  0  0  0  0  0  0
    7.1447   -4.1250    0.0000 C   0  0  0  0  0  0  0  0  0  0  0  0
    7.8592   -3.7125    0.0000 C   0  0  0  0  0  0  0  0  0  0  0  0
    7.9454   -2.8920    0.0000 N   0  0  0  0  0  0  0  0  0  0  0  0
    8.7524   -2.7205    0.0000 N   0  0  0  0  0  0  0  0  0  0  0  0
    9.0879   -1.9668    0.0000 C   0  0  0  0  0  0  0  0  0  0  0  0
    9.1649   -3.4350    0.0000 C   0  0  0  0  0  0  0  0  0  0  0  0
    9.9854   -3.5212    0.0000 O   0  0  0  0  0  0  0  0  0  0  0  0
   10.3209   -4.2749    0.0000 C   0  0  0  0  0  0  0  0  0  0  0  0
   11.1414   -4.3611    0.0000 F   0  0  0  0  0  0  0  0  0  0  0  0
    9.8360   -4.9423    0.0000 F   0  0  0  0  0  0  0  0  0  0  0  0
    8.6128   -4.0481    0.0000 C   0  0  0  0  0  0  0  0  0  0  0  0
    8.7844   -4.8550    0.0000 Cl  0  0  0  0  0  0  0  0  0  0  0  0
    7.1447   -4.9500    0.0000 C   0  0  0  0  0  0  0  0  0  0  0  0
    7.8592   -5.3625    0.0000 F   0  0  0  0  0  0  0  0  0  0  0  0
    6.4302   -5.3625    0.0000 C   0  0  0  0  0  0  0  0  0  0  0  0
    5.7158   -4.9500    0.0000 C   0  0  0  0  0  0  0  0  0  0  0  0
    5.0013   -5.3625    0.0000 Cl  0  0  0  0  0  0  0  0  0  0  0  0
    1.0164   -3.4105    0.0000 H   0  0  0  0  0  0  0  0  0  0  0  0
    0.7145   -4.5375    0.0000 H   0  0  0  0  0  0  0  0  0  0  0  0
    1.8414   -4.8395    0.0000 H   0  0  0  0  0  0  0  0  0  0  0  0
    2.5137   -2.9753    0.0000 H   0  0  0  0  0  0  0  0  0  0  0  0
    1.7731   -2.9753    0.0000 H   0  0  0  0  0  0  0  0  0  0  0  0
    3.9166   -4.8622    0.0000 H   0  0  0  0  0  0  0  0  0  0  0  0
    4.6571   -4.8622    0.0000 H   0  0  0  0  0  0  0  0  0  0  0  0
    6.4302   -2.8875    0.0000 H   0  0  0  0  0  0  0  0  0  0  0  0
    9.8416   -2.3024    0.0000 H   0  0  0  0  0  0  0  0  0  0  0  0
    9.4235   -1.2131    0.0000 H   0  0  0  0  0  0  0  0  0  0  0  0
    8.3343   -1.6313    0.0000 H   0  0  0  0  0  0  0  0  0  0  0  0
   10.8058   -3.6074    0.0000 H   0  0  0  0  0  0  0  0  0  0  0  0
    6.4302   -6.1875    0.0000 H   0  0  0  0  0  0  0  0  0  0  0  0
  1  2  1  0  0  0  0
  2  3  1  0  0  0  0
  3  4  1  0  0  0  0
  4  5  2  0  0  0  0
  4  6  1  0  0  0  0
  6  7  1  0  0  0  0
  7  8  1  0  0  0  0
  8  9  4  0  0  0  0
  9 10  4  0  0  0  0
 10 11  1  0  0  0  0
 11 12  4  0  0  0  0
 12 13  4  0  0  0  0
 13 14  1  0  0  0  0
 13 15  4  0  0  0  0
 15 16  1  0  0  0  0
 16 17  1  0  0  0  0
 17 18  1  0  0  0  0
 17 19  1  0  0  0  0
 15 20  4  0  0  0  0
 11 20  4  0  0  0  0
 20 21  1  0  0  0  0
 10 22  4  0  0  0  0
 22 23  1  0  0  0  0
 22 24  4  0  0  0  0
 24 25  4  0  0  0  0
  8 25  4  0  0  0  0
 25 26  1  0  0  0  0
  1 27  1  0  0  0  0
  1 28  1  0  0  0  0
  1 29  1  0  0  0  0
  2 30  1  0  0  0  0
  2 31  1  0  0  0  0
  6 32  1  0  0  0  0
  6 33  1  0  0  0  0
  9 34  1  0  0  0  0
 14 35  1  0  0  0  0
 14 36  1  0  0  0  0
 14 37  1  0  0  0  0
 17 38  1  0  0  0  0
 24 39  1  0  0  0  0
M  END
>  <InChIKey>
InChI=1S/C15H13Cl2F3N2O4/c1-3-24-11(23)6-25-10-4-7(9(18)5-8(10)16)13-12(17)14(22(2)21-13)26-15(19)20/h4-5,15H,3,6H2,1-2H3

>  <CASRN>
129630-19-9

> <Outcome>
1

>  <Index>
1109

>  <StandardizerResult>
Dearomatize (ID: Dearomatize)
Clear Stereo (ID: ClearStereo)
Wedge Clean (ID: WedgeClean)
Mesomerize (ID: Mesomerize)
Tautomerize (ID: Tautomerize)
Aromatize (ID: Aromatize)
Add Explicit Hydrogens (ID: AddExplicitH)
Neutralize (ID: Neutralize)
Clean 2D (ID: Clean2D)

> <knn Distance>


> <CpId>
1109

$$$$
1127
  Mrv1532301301811342D          

  3  2  0  0  0  0            999 V2000
    1.6500   -0.0000    0.0000 Br  0  0  0  0  0  0  0  0  0  0  0  0
    2.4750   -0.0000    0.0000 C   0  0  0  0  0  0  0  0  0  0  0  0
    3.3000    0.0000    0.0000 N   0  0  0  0  0  0  0  0  0  0  0  0
  1  2  1  0  0  0  0
  2  3  3  0  0  0  0
M  END
>  <InChIKey>
InChI=1S/CBrN/c2-1-3

>  <CASRN>
506-68-3

> <Outcome>
1

>  <Index>
1127

>  <StandardizerResult>
Mesomerize (ID: Mesomerize)
Tautomerize (ID: Tautomerize)
Clean 2D (ID: Clean2D)

> <knn Distance>


> <CpId>
1127

$$$$
1128
  Mrv1532301301811342D          

  9  8  0  0  0  0            999 V2000
    2.0625   -0.7145    0.0000 C   0  0  0  0  0  0  0  0  0  0  0  0
    1.2375   -0.7145    0.0000 N   0  0  0  0  0  0  0  0  0  0  0  0
    0.8250   -0.0000    0.0000 C   0  0  0  0  0  0  0  0  0  0  0  0
    0.0000   -0.0000    0.0000 O   0  0  0  0  0  0  0  0  0  0  0  0
    2.0625   -1.5395    0.0000 H   0  0  0  0  0  0  0  0  0  0  0  0
    2.8875   -0.7145    0.0000 H   0  0  0  0  0  0  0  0  0  0  0  0
    2.0625    0.1105    0.0000 H   0  0  0  0  0  0  0  0  0  0  0  0
    0.8250   -1.4290    0.0000 H   0  0  0  0  0  0  0  0  0  0  0  0
    1.2375    0.7145    0.0000 H   0  0  0  0  0  0  0  0  0  0  0  0
  1  2  1  0  0  0  0
  2  3  1  0  0  0  0
  3  4  2  0  0  0  0
  1  5  1  0  0  0  0
  1  6  1  0  0  0  0
  1  7  1  0  0  0  0
  2  8  1  0  0  0  0
  3  9  1  0  0  0  0
M  END
>  <InChIKey>
InChI=1S/C2H5NO/c1-3-2-4/h2H,1H3,(H,3,4)

>  <CASRN>
123-39-7

> <Outcome>
1

>  <Index>
1128

>  <StandardizerResult>
Clear Stereo (ID: ClearStereo)
Wedge Clean (ID: WedgeClean)
Mesomerize (ID: Mesomerize)
Tautomerize (ID: Tautomerize)
Add Explicit Hydrogens (ID: AddExplicitH)
Neutralize (ID: Neutralize)
Clean 2D (ID: Clean2D)

> <knn Distance>


> <CpId>
1128

$$$$
1131
  Mrv1532301301811342D          

 21 21  0  0  0  0            999 V2000
    0.7145    2.0625    0.0000 C   0  0  0  0  0  0  0  0  0  0  0  0
    0.7145    1.2375    0.0000 C   0  0  0  0  0  0  0  0  0  0  0  0
    1.4289    0.8250    0.0000 C   0  0  0  0  0  0  0  0  0  0  0  0
    1.4289    0.0000    0.0000 C   0  0  0  0  0  0  0  0  0  0  0  0
    2.1434   -0.4125    0.0000 C   0  0  0  0  0  0  0  0  0  0  0  0
    0.7145   -0.4125    0.0000 C   0  0  0  0  0  0  0  0  0  0  0  0
   -0.0000    0.0000    0.0000 C   0  0  0  0  0  0  0  0  0  0  0  0
   -0.7145   -0.4125    0.0000 C   0  0  0  0  0  0  0  0  0  0  0  0
   -0.0000    0.8250    0.0000 C   0  0  0  0  0  0  0  0  0  0  0  0
    1.5395    2.0625    0.0000 H   0  0  0  0  0  0  0  0  0  0  0  0
    0.7145    2.8875    0.0000 H   0  0  0  0  0  0  0  0  0  0  0  0
   -0.1105    2.0625    0.0000 H   0  0  0  0  0  0  0  0  0  0  0  0
    2.1434    1.2375    0.0000 H   0  0  0  0  0  0  0  0  0  0  0  0
    1.7309   -1.1270    0.0000 H   0  0  0  0  0  0  0  0  0  0  0  0
    2.8579   -0.8250    0.0000 H   0  0  0  0  0  0  0  0  0  0  0  0
    2.5559    0.3020    0.0000 H   0  0  0  0  0  0  0  0  0  0  0  0
    0.7145   -1.2375    0.0000 H   0  0  0  0  0  0  0  0  0  0  0  0
   -1.1270    0.3020    0.0000 H   0  0  0  0  0  0  0  0  0  0  0  0
   -1.4289   -0.8250    0.0000 H   0  0  0  0  0  0  0  0  0  0  0  0
   -0.3020   -1.1270    0.0000 H   0  0  0  0  0  0  0  0  0  0  0  0
   -0.7145    1.2375    0.0000 H   0  0  0  0  0  0  0  0  0  0  0  0
  1  2  1  0  0  0  0
  2  3  4  0  0  0  0
  3  4  4  0  0  0  0
  4  5  1  0  0  0  0
  4  6  4  0  0  0  0
  6  7  4  0  0  0  0
  7  8  1  0  0  0  0
  7  9  4  0  0  0  0
  2  9  4  0  0  0  0
  1 10  1  0  0  0  0
  1 11  1  0  0  0  0
  1 12  1  0  0  0  0
  3 13  1  0  0  0  0
  5 14  1  0  0  0  0
  5 15  1  0  0  0  0
  5 16  1  0  0  0  0
  6 17  1  0  0  0  0
  8 18  1  0  0  0  0
  8 19  1  0  0  0  0
  8 20  1  0  0  0  0
  9 21  1  0  0  0  0
M  END
>  <InChIKey>
InChI=1S/C9H12/c1-7-4-8(2)6-9(3)5-7/h4-6H,1-3H3

>  <CASRN>
108-67-8

> <Outcome>
1

>  <Index>
1131

>  <StandardizerResult>
Dearomatize (ID: Dearomatize)
Clear Stereo (ID: ClearStereo)
Wedge Clean (ID: WedgeClean)
Mesomerize (ID: Mesomerize)
Tautomerize (ID: Tautomerize)
Aromatize (ID: Aromatize)
Add Explicit Hydrogens (ID: AddExplicitH)
Neutralize (ID: Neutralize)
Clean 2D (ID: Clean2D)

> <knn Distance>


> <CpId>
1131

$$$$
1133
  Mrv1532301301811342D          

 14 14  0  0  0  0            999 V2000
    0.7145    2.0625    0.0000 Cl  0  0  0  0  0  0  0  0  0  0  0  0
    0.7145    1.2375    0.0000 C   0  0  0  0  0  0  0  0  0  0  0  0
    1.4289    0.8250    0.0000 C   0  0  0  0  0  0  0  0  0  0  0  0
    1.4289    0.0000    0.0000 C   0  0  0  0  0  0  0  0  0  0  0  0
    0.7145   -0.4125    0.0000 C   0  0  0  0  0  0  0  0  0  0  0  0
    0.7145   -1.2375    0.0000 Cl  0  0  0  0  0  0  0  0  0  0  0  0
   -0.0000    0.0000    0.0000 C   0  0  0  0  0  0  0  0  0  0  0  0
   -0.7145   -0.4125    0.0000 C   0  0  0  0  0  0  0  0  0  0  0  0
   -1.4289    0.0000    0.0000 O   0  0  0  0  0  0  0  0  0  0  0  0
   -0.0000    0.8250    0.0000 C   0  0  0  0  0  0  0  0  0  0  0  0
   -0.7145    1.2375    0.0000 Cl  0  0  0  0  0  0  0  0  0  0  0  0
    2.1434    1.2375    0.0000 H   0  0  0  0  0  0  0  0  0  0  0  0
    2.1434   -0.4125    0.0000 H   0  0  0  0  0  0  0  0  0  0  0  0
   -0.7145   -1.2375    0.0000 H   0  0  0  0  0  0  0  0  0  0  0  0
  1  2  1  0  0  0  0
  2  3  4  0  0  0  0
  3  4  4  0  0  0  0
  4  5  4  0  0  0  0
  5  6  1  0  0  0  0
  5  7  4  0  0  0  0
  7  8  1  0  0  0  0
  8  9  2  0  0  0  0
  7 10  4  0  0  0  0
  2 10  4  0  0  0  0
 10 11  1  0  0  0  0
  3 12  1  0  0  0  0
  4 13  1  0  0  0  0
  8 14  1  0  0  0  0
M  END
>  <InChIKey>
InChI=1S/C7H3Cl3O/c8-5-1-2-6(9)7(10)4(5)3-11/h1-3H

>  <CASRN>
4659-47-6

> <Outcome>
1

>  <Index>
1133

>  <StandardizerResult>
Dearomatize (ID: Dearomatize)
Clear Stereo (ID: ClearStereo)
Wedge Clean (ID: WedgeClean)
Mesomerize (ID: Mesomerize)
Tautomerize (ID: Tautomerize)
Aromatize (ID: Aromatize)
Add Explicit Hydrogens (ID: AddExplicitH)
Neutralize (ID: Neutralize)
Clean 2D (ID: Clean2D)

> <knn Distance>


> <CpId>
1133

$$$$
1141
  Mrv1532301301811342D          

 17 18  0  0  0  0            999 V2000
    2.2116    0.7913    0.0000 C   0  0  0  0  0  0  0  0  0  0  0  0
    2.6241    0.0768    0.0000 O   0  0  0  0  0  0  0  0  0  0  0  0
    1.7991    0.0768    0.0000 C   0  0  0  0  0  0  0  0  0  0  0  0
    1.0847   -0.3357    0.0000 C   0  0  0  0  0  0  0  0  0  0  0  0
    1.0847   -1.1607    0.0000 C   0  0  0  0  0  0  0  0  0  0  0  0
    0.3702   -1.5732    0.0000 C   0  0  0  0  0  0  0  0  0  0  0  0
   -0.3443   -1.1607    0.0000 C   0  0  0  0  0  0  0  0  0  0  0  0
   -0.3443   -0.3357    0.0000 C   0  0  0  0  0  0  0  0  0  0  0  0
    0.3702    0.0768    0.0000 C   0  0  0  0  0  0  0  0  0  0  0  0
    2.6650    1.4805    0.0000 H   0  0  0  0  0  0  0  0  0  0  0  0
    1.7583    1.4805    0.0000 H   0  0  0  0  0  0  0  0  0  0  0  0
    1.2158    0.6602    0.0000 H   0  0  0  0  0  0  0  0  0  0  0  0
    1.7991   -1.5732    0.0000 H   0  0  0  0  0  0  0  0  0  0  0  0
    0.3702   -2.3982    0.0000 H   0  0  0  0  0  0  0  0  0  0  0  0
   -1.0588   -1.5732    0.0000 H   0  0  0  0  0  0  0  0  0  0  0  0
   -1.0588    0.0768    0.0000 H   0  0  0  0  0  0  0  0  0  0  0  0
    0.3702    0.9018    0.0000 H   0  0  0  0  0  0  0  0  0  0  0  0
  1  2  1  0  0  0  0
  2  3  1  0  0  0  0
  1  3  1  0  0  0  0
  3  4  1  0  0  0  0
  4  5  4  0  0  0  0
  5  6  4  0  0  0  0
  6  7  4  0  0  0  0
  7  8  4  0  0  0  0
  8  9  4  0  0  0  0
  4  9  4  0  0  0  0
  1 10  1  0  0  0  0
  1 11  1  0  0  0  0
  3 12  1  0  0  0  0
  5 13  1  0  0  0  0
  6 14  1  0  0  0  0
  7 15  1  0  0  0  0
  8 16  1  0  0  0  0
  9 17  1  0  0  0  0
M  END
>  <InChIKey>
InChI=1S/C8H8O/c1-2-4-7(5-3-1)8-6-9-8/h1-5,8H,6H2

>  <CASRN>
96-09-3

> <Outcome>
1

>  <Index>
1141

>  <StandardizerResult>
Dearomatize (ID: Dearomatize)
Clear Stereo (ID: ClearStereo)
Wedge Clean (ID: WedgeClean)
Mesomerize (ID: Mesomerize)
Tautomerize (ID: Tautomerize)
Aromatize (ID: Aromatize)
Add Explicit Hydrogens (ID: AddExplicitH)
Neutralize (ID: Neutralize)
Clean 2D (ID: Clean2D)

> <knn Distance>


> <CpId>
1141

$$$$
1142
  Mrv1532301301811342D          

 18 17  0  0  0  0            999 V2000
    1.0461    1.4289    0.0000 S   0  0  0  0  0  0  0  0  0  0  0  0
    1.7605    1.8414    0.0000 C   0  0  0  0  0  0  0  0  0  0  0  0
    1.7605    2.6664    0.0000 S   0  0  0  0  0  0  0  0  0  0  0  0
    2.4750    1.4289    0.0000 N   0  0  0  0  0  0  0  0  0  0  0  0
    3.1895    1.8414    0.0000 C   0  0  0  0  0  0  0  0  0  0  0  0
    3.9039    1.4289    0.0000 C   0  0  0  0  0  0  0  0  0  0  0  0
    4.6184    1.8414    0.0000 N   0  0  0  0  0  0  0  0  0  0  0  0
    5.3329    1.4289    0.0000 C   0  0  0  0  0  0  0  0  0  0  0  0
    6.0474    1.8414    0.0000 S   0  0  0  0  0  0  0  0  0  0  0  0
    5.3329    0.6039    0.0000 S   0  0  0  0  0  0  0  0  0  0  0  0
    0.3316    1.8414    0.0000 H   0  0  0  0  0  0  0  0  0  0  0  0
    2.4750    0.6039    0.0000 H   0  0  0  0  0  0  0  0  0  0  0  0
    3.5597    2.5786    0.0000 H   0  0  0  0  0  0  0  0  0  0  0  0
    2.8192    2.5786    0.0000 H   0  0  0  0  0  0  0  0  0  0  0  0
    3.5337    0.6917    0.0000 H   0  0  0  0  0  0  0  0  0  0  0  0
    4.2742    0.6917    0.0000 H   0  0  0  0  0  0  0  0  0  0  0  0
    4.6184    2.6664    0.0000 H   0  0  0  0  0  0  0  0  0  0  0  0
    6.7618    1.4289    0.0000 H   0  0  0  0  0  0  0  0  0  0  0  0
  1  2  1  0  0  0  0
  2  3  2  0  0  0  0
  2  4  1  0  0  0  0
  4  5  1  0  0  0  0
  5  6  1  0  0  0  0
  6  7  1  0  0  0  0
  7  8  1  0  0  0  0
  8  9  1  0  0  0  0
  8 10  2  0  0  0  0
  1 11  1  0  0  0  0
  4 12  1  0  0  0  0
  5 13  1  0  0  0  0
  5 14  1  0  0  0  0
  6 15  1  0  0  0  0
  6 16  1  0  0  0  0
  7 17  1  0  0  0  0
  9 18  1  0  0  0  0
M  END
>  <InChIKey>
InChI=1S/C4H8N2S4/c7-3(8)5-1-2-6-4(9)10/h1-2H2,(H2,5,7,8)(H2,6,9,10)

>  <CASRN>
142-59-6 12427-38-2

> <Outcome>
1

>  <Index>
1142

>  <StandardizerResult>
Clear Stereo (ID: ClearStereo)
Wedge Clean (ID: WedgeClean)
Mesomerize (ID: Mesomerize)
Tautomerize (ID: Tautomerize)
Add Explicit Hydrogens (ID: AddExplicitH)
Neutralize (ID: Neutralize)
Clean 2D (ID: Clean2D)

> <knn Distance>


> <CpId>
1142

$$$$
1146
  Mrv1532301301811342D          

 12 12  0  0  0  0            999 V2000
    0.5678    1.9393    0.0000 C   0  0  0  0  0  0  0  0  0  0  0  0
    0.5678    1.1143    0.0000 C   0  0  0  0  0  0  0  0  0  0  0  0
    1.2352    0.6294    0.0000 C   0  0  0  0  0  0  0  0  0  0  0  0
    0.9803   -0.1552    0.0000 C   0  0  0  0  0  0  0  0  0  0  0  0
    1.4652   -0.8227    0.0000 O   0  0  0  0  0  0  0  0  0  0  0  0
    0.1553   -0.1552    0.0000 O   0  0  0  0  0  0  0  0  0  0  0  0
   -0.0997    0.6294    0.0000 C   0  0  0  0  0  0  0  0  0  0  0  0
   -0.8843    0.8843    0.0000 O   0  0  0  0  0  0  0  0  0  0  0  0
    1.3928    1.9393    0.0000 H   0  0  0  0  0  0  0  0  0  0  0  0
    0.5678    2.7643    0.0000 H   0  0  0  0  0  0  0  0  0  0  0  0
   -0.2572    1.9393    0.0000 H   0  0  0  0  0  0  0  0  0  0  0  0
    2.0198    0.8843    0.0000 H   0  0  0  0  0  0  0  0  0  0  0  0
  1  2  1  0  0  0  0
  2  3  2  0  0  0  0
  3  4  1  0  0  0  0
  4  5  2  0  0  0  0
  4  6  1  0  0  0  0
  6  7  1  0  0  0  0
  2  7  1  0  0  0  0
  7  8  2  0  0  0  0
  1  9  1  0  0  0  0
  1 10  1  0  0  0  0
  1 11  1  0  0  0  0
  3 12  1  0  0  0  0
M  END
>  <InChIKey>
InChI=1S/C5H4O3/c1-3-2-4(6)8-5(3)7/h2H,1H3

>  <CASRN>
616-02-4

> <Outcome>
1

>  <Index>
1146

>  <StandardizerResult>
Clear Stereo (ID: ClearStereo)
Wedge Clean (ID: WedgeClean)
Mesomerize (ID: Mesomerize)
Tautomerize (ID: Tautomerize)
Add Explicit Hydrogens (ID: AddExplicitH)
Neutralize (ID: Neutralize)
Clean 2D (ID: Clean2D)

> <knn Distance>


> <CpId>
1146

$$$$
1147
  Mrv1532301301811342D          

 29 28  0  0  0  0            999 V2000
    2.9795    2.5701    0.0000 C   0  0  0  0  0  0  0  0  0  0  0  0
    3.6940    2.1576    0.0000 C   0  0  0  0  0  0  0  0  0  0  0  0
    4.4084    2.5701    0.0000 C   0  0  0  0  0  0  0  0  0  0  0  0
    5.1229    2.1576    0.0000 C   0  0  0  0  0  0  0  0  0  0  0  0
    5.8374    2.5701    0.0000 O   0  0  0  0  0  0  0  0  0  0  0  0
    6.5518    2.1576    0.0000 C   0  0  0  0  0  0  0  0  0  0  0  0
    6.5518    1.3326    0.0000 O   0  0  0  0  0  0  0  0  0  0  0  0
    7.2663    2.5701    0.0000 C   0  0  0  0  0  0  0  0  0  0  0  0
    7.9808    2.1576    0.0000 C   0  0  0  0  0  0  0  0  0  0  0  0
    8.6953    2.5701    0.0000 C   0  0  0  0  0  0  0  0  0  0  0  0
    7.9808    1.3326    0.0000 C   0  0  0  0  0  0  0  0  0  0  0  0
    3.3920    3.2846    0.0000 H   0  0  0  0  0  0  0  0  0  0  0  0
    2.2650    2.9826    0.0000 H   0  0  0  0  0  0  0  0  0  0  0  0
    2.5670    1.8557    0.0000 H   0  0  0  0  0  0  0  0  0  0  0  0
    3.3237    1.4204    0.0000 H   0  0  0  0  0  0  0  0  0  0  0  0
    4.0642    1.4204    0.0000 H   0  0  0  0  0  0  0  0  0  0  0  0
    4.7787    3.3074    0.0000 H   0  0  0  0  0  0  0  0  0  0  0  0
    4.0382    3.3074    0.0000 H   0  0  0  0  0  0  0  0  0  0  0  0
    4.7526    1.4204    0.0000 H   0  0  0  0  0  0  0  0  0  0  0  0
    5.4932    1.4204    0.0000 H   0  0  0  0  0  0  0  0  0  0  0  0
    7.6366    3.3074    0.0000 H   0  0  0  0  0  0  0  0  0  0  0  0
    6.8961    3.3074    0.0000 H   0  0  0  0  0  0  0  0  0  0  0  0
    7.9808    2.9826    0.0000 H   0  0  0  0  0  0  0  0  0  0  0  0
    8.9088    1.7732    0.0000 H   0  0  0  0  0  0  0  0  0  0  0  0
    9.5203    2.5701    0.0000 H   0  0  0  0  0  0  0  0  0  0  0  0
    8.9088    3.3670    0.0000 H   0  0  0  0  0  0  0  0  0  0  0  0
    7.1558    1.3326    0.0000 H   0  0  0  0  0  0  0  0  0  0  0  0
    7.9808    0.5076    0.0000 H   0  0  0  0  0  0  0  0  0  0  0  0
    8.8058    1.3326    0.0000 H   0  0  0  0  0  0  0  0  0  0  0  0
  1  2  1  0  0  0  0
  2  3  1  0  0  0  0
  3  4  1  0  0  0  0
  4  5  1  0  0  0  0
  5  6  1  0  0  0  0
  6  7  2  0  0  0  0
  6  8  1  0  0  0  0
  8  9  1  0  0  0  0
  9 10  1  0  0  0  0
  9 11  1  0  0  0  0
  1 12  1  0  0  0  0
  1 13  1  0  0  0  0
  1 14  1  0  0  0  0
  2 15  1  0  0  0  0
  2 16  1  0  0  0  0
  3 17  1  0  0  0  0
  3 18  1  0  0  0  0
  4 19  1  0  0  0  0
  4 20  1  0  0  0  0
  8 21  1  0  0  0  0
  8 22  1  0  0  0  0
  9 23  1  0  0  0  0
 10 24  1  0  0  0  0
 10 25  1  0  0  0  0
 10 26  1  0  0  0  0
 11 27  1  0  0  0  0
 11 28  1  0  0  0  0
 11 29  1  0  0  0  0
M  END
>  <InChIKey>
InChI=1S/C9H18O2/c1-4-5-6-11-9(10)7-8(2)3/h8H,4-7H2,1-3H3

>  <CASRN>
109-19-3

> <Outcome>
1

>  <Index>
1147

>  <StandardizerResult>
Clear Stereo (ID: ClearStereo)
Wedge Clean (ID: WedgeClean)
Mesomerize (ID: Mesomerize)
Tautomerize (ID: Tautomerize)
Add Explicit Hydrogens (ID: AddExplicitH)
Neutralize (ID: Neutralize)
Clean 2D (ID: Clean2D)

> <knn Distance>


> <CpId>
1147

$$$$
1148
  Mrv1532301301811342D          

 12 12  0  0  0  0            999 V2000
    0.7145    2.0625    0.0000 O   0  0  0  0  0  0  0  0  0  0  0  0
    0.7145    1.2375    0.0000 C   0  0  0  0  0  0  0  0  0  0  0  0
    1.4289    0.8250    0.0000 C   0  0  0  0  0  0  0  0  0  0  0  0
    1.4289   -0.0000    0.0000 C   0  0  0  0  0  0  0  0  0  0  0  0
    0.7145   -0.4125    0.0000 C   0  0  0  0  0  0  0  0  0  0  0  0
    0.7145   -1.2375    0.0000 O   0  0  0  0  0  0  0  0  0  0  0  0
   -0.0000    0.0000    0.0000 C   0  0  0  0  0  0  0  0  0  0  0  0
   -0.0000    0.8250    0.0000 C   0  0  0  0  0  0  0  0  0  0  0  0
    2.1434    1.2375    0.0000 H   0  0  0  0  0  0  0  0  0  0  0  0
    2.1434   -0.4125    0.0000 H   0  0  0  0  0  0  0  0  0  0  0  0
   -0.7145   -0.4125    0.0000 H   0  0  0  0  0  0  0  0  0  0  0  0
   -0.7145    1.2375    0.0000 H   0  0  0  0  0  0  0  0  0  0  0  0
  1  2  2  0  0  0  0
  2  3  1  0  0  0  0
  3  4  2  0  0  0  0
  4  5  1  0  0  0  0
  5  6  2  0  0  0  0
  5  7  1  0  0  0  0
  7  8  2  0  0  0  0
  2  8  1  0  0  0  0
  3  9  1  0  0  0  0
  4 10  1  0  0  0  0
  7 11  1  0  0  0  0
  8 12  1  0  0  0  0
M  END
>  <InChIKey>
InChI=1S/C6H4O2/c7-5-1-2-6(8)4-3-5/h1-4H

>  <CASRN>
106-51-4

> <Outcome>
1

>  <Index>
1148

>  <StandardizerResult>
Clear Stereo (ID: ClearStereo)
Wedge Clean (ID: WedgeClean)
Mesomerize (ID: Mesomerize)
Tautomerize (ID: Tautomerize)
Add Explicit Hydrogens (ID: AddExplicitH)
Neutralize (ID: Neutralize)
Clean 2D (ID: Clean2D)

> <knn Distance>


> <CpId>
1148

$$$$
1149
  Mrv1532301301811342D          

 37 40  0  0  0  0            999 V2000
    0.0000    2.4839    0.0000 O   0  0  0  0  0  0  0  0  0  0  0  0
    0.7145    2.0714    0.0000 C   0  0  0  0  0  0  0  0  0  0  0  0
    0.2295    1.4040    0.0000 O   0  0  0  0  0  0  0  0  0  0  0  0
    1.4289    2.4839    0.0000 C   0  0  0  0  0  0  0  0  0  0  0  0
    1.4289    3.3089    0.0000 C   0  0  0  0  0  0  0  0  0  0  0  0
    2.1434    3.7214    0.0000 C   0  0  0  0  0  0  0  0  0  0  0  0
    2.8579    3.3089    0.0000 C   0  0  0  0  0  0  0  0  0  0  0  0
    2.8579    2.4839    0.0000 C   0  0  0  0  0  0  0  0  0  0  0  0
    2.1434    2.0714    0.0000 C   0  0  0  0  0  0  0  0  0  0  0  0
    2.1434    1.2464    0.0000 C   0  0  0  0  0  0  0  0  0  0  0  0
    2.8579    0.8339    0.0000 C   0  0  0  0  0  0  0  0  0  0  0  0
    3.5724    1.2464    0.0000 C   0  0  0  0  0  0  0  0  0  0  0  0
    4.2868    0.8339    0.0000 C   0  0  0  0  0  0  0  0  0  0  0  0
    5.0013    1.2464    0.0000 Br  0  0  0  0  0  0  0  0  0  0  0  0
    4.2868    0.0089    0.0000 C   0  0  0  0  0  0  0  0  0  0  0  0
    5.0013   -0.4036    0.0000 O   0  0  0  0  0  0  0  0  0  0  0  0
    3.5724   -0.4036    0.0000 C   0  0  0  0  0  0  0  0  0  0  0  0
    3.5724   -1.2286    0.0000 Br  0  0  0  0  0  0  0  0  0  0  0  0
    2.8579    0.0089    0.0000 C   0  0  0  0  0  0  0  0  0  0  0  0
    2.1434   -0.4036    0.0000 O   0  0  0  0  0  0  0  0  0  0  0  0
    1.4289    0.0089    0.0000 C   0  0  0  0  0  0  0  0  0  0  0  0
    0.7145   -0.4036    0.0000 C   0  0  0  0  0  0  0  0  0  0  0  0
    0.7145   -1.2286    0.0000 Br  0  0  0  0  0  0  0  0  0  0  0  0
    0.0000    0.0089    0.0000 C   0  0  0  0  0  0  0  0  0  0  0  0
   -0.7145   -0.4036    0.0000 O   0  0  0  0  0  0  0  0  0  0  0  0
    0.0000    0.8339    0.0000 C   0  0  0  0  0  0  0  0  0  0  0  0
   -0.7145    1.2464    0.0000 Br  0  0  0  0  0  0  0  0  0  0  0  0
    0.7145    1.2464    0.0000 C   0  0  0  0  0  0  0  0  0  0  0  0
    1.4289    0.8339    0.0000 C   0  0  0  0  0  0  0  0  0  0  0  0
    0.0000    3.3089    0.0000 H   0  0  0  0  0  0  0  0  0  0  0  0
    0.7145    3.7214    0.0000 H   0  0  0  0  0  0  0  0  0  0  0  0
    2.1434    4.5464    0.0000 H   0  0  0  0  0  0  0  0  0  0  0  0
    3.5724    3.7214    0.0000 H   0  0  0  0  0  0  0  0  0  0  0  0
    3.5724    2.0714    0.0000 H   0  0  0  0  0  0  0  0  0  0  0  0
    2.8579    1.6589    0.0000 H   0  0  0  0  0  0  0  0  0  0  0  0
    5.0013   -1.2286    0.0000 H   0  0  0  0  0  0  0  0  0  0  0  0
    1.4289    1.6589    0.0000 H   0  0  0  0  0  0  0  0  0  0  0  0
  1  2  1  0  0  0  0
  2  3  2  0  0  0  0
  2  4  1  0  0  0  0
  4  5  4  0  0  0  0
  5  6  4  0  0  0  0
  6  7  4  0  0  0  0
  7  8  4  0  0  0  0
  8  9  4  0  0  0  0
  4  9  4  0  0  0  0
  9 10  1  0  0  0  0
 10 11  1  0  0  0  0
 11 12  4  0  0  0  0
 12 13  4  0  0  0  0
 13 14  1  0  0  0  0
 13 15  4  0  0  0  0
 15 16  1  0  0  0  0
 15 17  4  0  0  0  0
 17 18  1  0  0  0  0
 17 19  4  0  0  0  0
 11 19  4  0  0  0  0
 19 20  1  0  0  0  0
 20 21  1  0  0  0  0
 21 22  2  0  0  0  0
 22 23  1  0  0  0  0
 22 24  1  0  0  0  0
 24 25  2  0  0  0  0
 24 26  1  0  0  0  0
 26 27  1  0  0  0  0
 26 28  2  0  0  0  0
 28 29  1  0  0  0  0
 10 29  2  0  0  0  0
 21 29  1  0  0  0  0
  1 30  1  0  0  0  0
  5 31  1  0  0  0  0
  6 32  1  0  0  0  0
  7 33  1  0  0  0  0
  8 34  1  0  0  0  0
 12 35  1  0  0  0  0
 16 36  1  0  0  0  0
 28 37  1  0  0  0  0
M  END
>  <InChIKey>
InChI=1S/C20H8Br4O5/c21-11-5-9-13(7-3-1-2-4-8(7)20(27)28)10-6-12(22)17(26)15(24)19(10)29-18(9)14(23)16(11)25/h1-6,25H,(H,27,28)

>  <CASRN>
548-26-5

> <Outcome>
1

>  <Index>
1149

>  <StandardizerResult>
Dearomatize (ID: Dearomatize)
Clear Stereo (ID: ClearStereo)
Wedge Clean (ID: WedgeClean)
Mesomerize (ID: Mesomerize)
Tautomerize (ID: Tautomerize)
Aromatize (ID: Aromatize)
Add Explicit Hydrogens (ID: AddExplicitH)
Neutralize (ID: Neutralize)
Clean 2D (ID: Clean2D)

> <knn Distance>


> <CpId>
1149

$$$$
1152
  Mrv1532301301811342D          

 12 11  0  0  0  0            999 V2000
    2.4750   -1.4289    0.0000 C   0  0  0  0  0  0  0  0  0  0  0  0
    2.0625   -0.7145    0.0000 O   0  0  0  0  0  0  0  0  0  0  0  0
    1.2375   -0.7145    0.0000 C   0  0  0  0  0  0  0  0  0  0  0  0
    0.8250   -1.4289    0.0000 O   0  0  0  0  0  0  0  0  0  0  0  0
    0.8250    0.0000    0.0000 C   0  0  0  0  0  0  0  0  0  0  0  0
    0.0000    0.0000    0.0000 C   0  0  0  0  0  0  0  0  0  0  0  0
    1.7605   -1.8414    0.0000 H   0  0  0  0  0  0  0  0  0  0  0  0
    2.8875   -2.1434    0.0000 H   0  0  0  0  0  0  0  0  0  0  0  0
    3.1895   -1.0164    0.0000 H   0  0  0  0  0  0  0  0  0  0  0  0
    1.2375    0.7145    0.0000 H   0  0  0  0  0  0  0  0  0  0  0  0
   -0.4125    0.7145    0.0000 H   0  0  0  0  0  0  0  0  0  0  0  0
   -0.4125   -0.7145    0.0000 H   0  0  0  0  0  0  0  0  0  0  0  0
  1  2  1  0  0  0  0
  2  3  1  0  0  0  0
  3  4  2  0  0  0  0
  3  5  1  0  0  0  0
  5  6  2  0  0  0  0
  1  7  1  0  0  0  0
  1  8  1  0  0  0  0
  1  9  1  0  0  0  0
  5 10  1  0  0  0  0
  6 11  1  0  0  0  0
  6 12  1  0  0  0  0
M  END
>  <InChIKey>
InChI=1S/C4H6O2/c1-3-4(5)6-2/h3H,1H2,2H3

>  <CASRN>
96-33-3

> <Outcome>
1

>  <Index>
1152

>  <StandardizerResult>
Clear Stereo (ID: ClearStereo)
Wedge Clean (ID: WedgeClean)
Mesomerize (ID: Mesomerize)
Tautomerize (ID: Tautomerize)
Add Explicit Hydrogens (ID: AddExplicitH)
Neutralize (ID: Neutralize)
Clean 2D (ID: Clean2D)

> <knn Distance>


> <CpId>
1152

$$$$
1155
  Mrv1532301301811342D          

  7  6  0  0  0  0            999 V2000
    0.8250    0.0000    0.0000 C   0  0  0  0  0  0  0  0  0  0  0  0
   -0.0000    0.0000    0.0000 N   0  0  0  0  0  0  0  0  0  0  0  0
    0.8250   -0.8250    0.0000 H   0  0  0  0  0  0  0  0  0  0  0  0
    1.6500   -0.0000    0.0000 H   0  0  0  0  0  0  0  0  0  0  0  0
    0.8250    0.8250    0.0000 H   0  0  0  0  0  0  0  0  0  0  0  0
   -0.4125    0.7145    0.0000 H   0  0  0  0  0  0  0  0  0  0  0  0
   -0.4125   -0.7145    0.0000 H   0  0  0  0  0  0  0  0  0  0  0  0
  1  2  1  0  0  0  0
  1  3  1  0  0  0  0
  1  4  1  0  0  0  0
  1  5  1  0  0  0  0
  2  6  1  0  0  0  0
  2  7  1  0  0  0  0
M  END
>  <InChIKey>
InChI=1S/CH5N/c1-2/h2H2,1H3

>  <CASRN>
74-89-5

> <Outcome>
1

>  <Index>
1155

>  <StandardizerResult>
Mesomerize (ID: Mesomerize)
Tautomerize (ID: Tautomerize)
Add Explicit Hydrogens (ID: AddExplicitH)
Neutralize (ID: Neutralize)
Clean 2D (ID: Clean2D)

> <knn Distance>


> <CpId>
1155

$$$$
1157
  Mrv1532301301811342D          

 16 16  0  0  0  0            999 V2000
   -0.0000    2.4750    0.0000 C   0  0  0  0  0  0  0  0  0  0  0  0
    0.7145    2.0625    0.0000 O   0  0  0  0  0  0  0  0  0  0  0  0
    0.7145    1.2375    0.0000 C   0  0  0  0  0  0  0  0  0  0  0  0
    1.4289    0.8250    0.0000 C   0  0  0  0  0  0  0  0  0  0  0  0
    2.1434    1.2375    0.0000 Cl  0  0  0  0  0  0  0  0  0  0  0  0
    1.4289   -0.0000    0.0000 C   0  0  0  0  0  0  0  0  0  0  0  0
    2.1434   -0.4125    0.0000 Cl  0  0  0  0  0  0  0  0  0  0  0  0
    0.7145   -0.4125    0.0000 C   0  0  0  0  0  0  0  0  0  0  0  0
    0.7145   -1.2375    0.0000 Cl  0  0  0  0  0  0  0  0  0  0  0  0
   -0.0000   -0.0000    0.0000 C   0  0  0  0  0  0  0  0  0  0  0  0
   -0.7145   -0.4125    0.0000 Cl  0  0  0  0  0  0  0  0  0  0  0  0
   -0.0000    0.8250    0.0000 C   0  0  0  0  0  0  0  0  0  0  0  0
   -0.7145    1.2375    0.0000 Cl  0  0  0  0  0  0  0  0  0  0  0  0
    0.4125    3.1895    0.0000 H   0  0  0  0  0  0  0  0  0  0  0  0
   -0.7145    2.8875    0.0000 H   0  0  0  0  0  0  0  0  0  0  0  0
   -0.4125    1.7605    0.0000 H   0  0  0  0  0  0  0  0  0  0  0  0
  1  2  1  0  0  0  0
  2  3  1  0  0  0  0
  3  4  4  0  0  0  0
  4  5  1  0  0  0  0
  4  6  4  0  0  0  0
  6  7  1  0  0  0  0
  6  8  4  0  0  0  0
  8  9  1  0  0  0  0
  8 10  4  0  0  0  0
 10 11  1  0  0  0  0
 10 12  4  0  0  0  0
  3 12  4  0  0  0  0
 12 13  1  0  0  0  0
  1 14  1  0  0  0  0
  1 15  1  0  0  0  0
  1 16  1  0  0  0  0
M  END
>  <InChIKey>
InChI=1S/C7H3Cl5O/c1-13-7-5(11)3(9)2(8)4(10)6(7)12/h1H3

>  <CASRN>
1825-21-4

> <Outcome>
1

>  <Index>
1157

>  <StandardizerResult>
Dearomatize (ID: Dearomatize)
Clear Stereo (ID: ClearStereo)
Wedge Clean (ID: WedgeClean)
Mesomerize (ID: Mesomerize)
Tautomerize (ID: Tautomerize)
Aromatize (ID: Aromatize)
Add Explicit Hydrogens (ID: AddExplicitH)
Neutralize (ID: Neutralize)
Clean 2D (ID: Clean2D)

> <knn Distance>


> <CpId>
1157

$$$$
1158
  Mrv1532301301811342D          

 35 37  0  0  0  0            999 V2000
    4.3211   -4.1323    0.0000 C   0  0  0  0  0  0  0  0  0  0  0  0
    3.6066   -3.7198    0.0000 O   0  0  0  0  0  0  0  0  0  0  0  0
    2.8921   -4.1323    0.0000 C   0  0  0  0  0  0  0  0  0  0  0  0
    2.8921   -4.9573    0.0000 C   0  0  0  0  0  0  0  0  0  0  0  0
    2.1777   -5.3698    0.0000 C   0  0  0  0  0  0  0  0  0  0  0  0
    1.4632   -4.9573    0.0000 C   0  0  0  0  0  0  0  0  0  0  0  0
    1.4632   -4.1323    0.0000 C   0  0  0  0  0  0  0  0  0  0  0  0
    2.1777   -3.7198    0.0000 C   0  0  0  0  0  0  0  0  0  0  0  0
    2.1777   -2.8948    0.0000 N   0  0  0  0  0  0  0  0  0  0  0  0
    1.4632   -2.4823    0.0000 N   0  0  0  0  0  0  0  0  0  0  0  0
    1.4632   -1.6573    0.0000 C   0  0  0  0  0  0  0  0  0  0  0  0
    0.7487   -1.2448    0.0000 C   0  0  0  0  0  0  0  0  0  0  0  0
    0.0343   -1.6573    0.0000 O   0  0  0  0  0  0  0  0  0  0  0  0
    0.7487   -0.4198    0.0000 C   0  0  0  0  0  0  0  0  0  0  0  0
    1.4632   -0.0073    0.0000 C   0  0  0  0  0  0  0  0  0  0  0  0
    2.1777   -0.4198    0.0000 C   0  0  0  0  0  0  0  0  0  0  0  0
    2.8921   -0.0073    0.0000 C   0  0  0  0  0  0  0  0  0  0  0  0
    3.6066   -0.4198    0.0000 C   0  0  0  0  0  0  0  0  0  0  0  0
    3.6066   -1.2448    0.0000 C   0  0  0  0  0  0  0  0  0  0  0  0
    2.8921   -1.6573    0.0000 C   0  0  0  0  0  0  0  0  0  0  0  0
    2.1777   -1.2448    0.0000 C   0  0  0  0  0  0  0  0  0  0  0  0
    3.9086   -4.8468    0.0000 H   0  0  0  0  0  0  0  0  0  0  0  0
    5.0356   -4.5448    0.0000 H   0  0  0  0  0  0  0  0  0  0  0  0
    4.7336   -3.4178    0.0000 H   0  0  0  0  0  0  0  0  0  0  0  0
    3.6066   -5.3698    0.0000 H   0  0  0  0  0  0  0  0  0  0  0  0
    2.1777   -6.1948    0.0000 H   0  0  0  0  0  0  0  0  0  0  0  0
    0.7487   -5.3698    0.0000 H   0  0  0  0  0  0  0  0  0  0  0  0
    0.7487   -3.7198    0.0000 H   0  0  0  0  0  0  0  0  0  0  0  0
    2.8921   -2.4823    0.0000 H   0  0  0  0  0  0  0  0  0  0  0  0
    0.0343   -0.0073    0.0000 H   0  0  0  0  0  0  0  0  0  0  0  0
    1.4632    0.8177    0.0000 H   0  0  0  0  0  0  0  0  0  0  0  0
    2.8921    0.8177    0.0000 H   0  0  0  0  0  0  0  0  0  0  0  0
    4.3211   -0.0073    0.0000 H   0  0  0  0  0  0  0  0  0  0  0  0
    4.3211   -1.6573    0.0000 H   0  0  0  0  0  0  0  0  0  0  0  0
    2.1777   -2.0698    0.0000 H   0  0  0  0  0  0  0  0  0  0  0  0
  1  2  1  0  0  0  0
  2  3  1  0  0  0  0
  3  4  4  0  0  0  0
  4  5  4  0  0  0  0
  5  6  4  0  0  0  0
  6  7  4  0  0  0  0
  7  8  4  0  0  0  0
  3  8  4  0  0  0  0
  8  9  1  0  0  0  0
 10  9  1  4  0  0  0
 10 11  2  0  0  0  0
 11 12  1  0  0  0  0
 12 13  2  0  0  0  0
 12 14  1  0  0  0  0
 14 15  2  0  0  0  0
 15 16  1  0  0  0  0
 16 17  4  0  0  0  0
 17 18  4  0  0  0  0
 18 19  4  0  0  0  0
 19 20  4  0  0  0  0
 20 21  4  0  0  0  0
 11 21  1  0  0  0  0
 16 21  4  0  0  0  0
  1 22  1  0  0  0  0
  1 23  1  0  0  0  0
  1 24  1  0  0  0  0
  4 25  1  0  0  0  0
  5 26  1  0  0  0  0
  6 27  1  0  0  0  0
  7 28  1  0  0  0  0
  9 29  1  0  0  0  0
 14 30  1  0  0  0  0
 15 31  1  0  0  0  0
 17 32  1  0  0  0  0
 18 33  1  0  0  0  0
 19 34  1  0  0  0  0
 20 35  1  0  0  0  0
M  END
>  <InChIKey>
InChI=1S/C17H14N2O2/c1-21-16-9-5-4-8-14(16)18-19-17-13-7-3-2-6-12(13)10-11-15(17)20/h2-11,18H,1H3

>  <CASRN>
1229-55-6

> <Outcome>
1

>  <Index>
1158

>  <StandardizerResult>
Dearomatize (ID: Dearomatize)
Clear Stereo (ID: ClearStereo)
Wedge Clean (ID: WedgeClean)
Mesomerize (ID: Mesomerize)
Tautomerize (ID: Tautomerize)
Aromatize (ID: Aromatize)
Add Explicit Hydrogens (ID: AddExplicitH)
Neutralize (ID: Neutralize)
Clean 2D (ID: Clean2D)

> <knn Distance>


> <CpId>
1158

$$$$
1159
  Mrv1532301301811342D          

 26 29  0  0  0  0            999 V2000
    4.7289   -0.8250    0.0000 C   0  0  0  0  0  0  0  0  0  0  0  0
    4.3164   -1.5395    0.0000 C   0  0  0  0  0  0  0  0  0  0  0  0
    3.4914   -1.5395    0.0000 C   0  0  0  0  0  0  0  0  0  0  0  0
    3.0789   -2.2539    0.0000 C   0  0  0  0  0  0  0  0  0  0  0  0
    2.2539   -2.2539    0.0000 C   0  0  0  0  0  0  0  0  0  0  0  0
    1.8414   -1.5395    0.0000 C   0  0  0  0  0  0  0  0  0  0  0  0
    1.0164   -1.5395    0.0000 C   0  0  0  0  0  0  0  0  0  0  0  0
    0.6039   -0.8250    0.0000 C   0  0  0  0  0  0  0  0  0  0  0  0
    1.0164   -0.1105    0.0000 C   0  0  0  0  0  0  0  0  0  0  0  0
    1.8414   -0.1105    0.0000 C   0  0  0  0  0  0  0  0  0  0  0  0
    2.2539    0.6039    0.0000 C   0  0  0  0  0  0  0  0  0  0  0  0
    3.0789    0.6039    0.0000 C   0  0  0  0  0  0  0  0  0  0  0  0
    3.4914   -0.1105    0.0000 C   0  0  0  0  0  0  0  0  0  0  0  0
    4.3164   -0.1105    0.0000 C   0  0  0  0  0  0  0  0  0  0  0  0
    3.0789   -0.8250    0.0000 C   0  0  0  0  0  0  0  0  0  0  0  0
    2.2539   -0.8250    0.0000 C   0  0  0  0  0  0  0  0  0  0  0  0
    5.5539   -0.8250    0.0000 H   0  0  0  0  0  0  0  0  0  0  0  0
    4.7289   -2.2539    0.0000 H   0  0  0  0  0  0  0  0  0  0  0  0
    3.4914   -2.9684    0.0000 H   0  0  0  0  0  0  0  0  0  0  0  0
    1.8414   -2.9684    0.0000 H   0  0  0  0  0  0  0  0  0  0  0  0
    0.6039   -2.2539    0.0000 H   0  0  0  0  0  0  0  0  0  0  0  0
   -0.2211   -0.8250    0.0000 H   0  0  0  0  0  0  0  0  0  0  0  0
    0.6039    0.6039    0.0000 H   0  0  0  0  0  0  0  0  0  0  0  0
    1.8414    1.3184    0.0000 H   0  0  0  0  0  0  0  0  0  0  0  0
    3.4914    1.3184    0.0000 H   0  0  0  0  0  0  0  0  0  0  0  0
    4.7289    0.6039    0.0000 H   0  0  0  0  0  0  0  0  0  0  0  0
  1  2  4  0  0  0  0
  2  3  4  0  0  0  0
  3  4  4  0  0  0  0
  4  5  4  0  0  0  0
  5  6  4  0  0  0  0
  6  7  4  0  0  0  0
  7  8  4  0  0  0  0
  8  9  4  0  0  0  0
  9 10  4  0  0  0  0
 10 11  4  0  0  0  0
 11 12  4  0  0  0  0
 12 13  4  0  0  0  0
 13 14  4  0  0  0  0
  1 14  4  0  0  0  0
 13 15  4  0  0  0  0
  3 15  4  0  0  0  0
 15 16  4  0  0  0  0
  6 16  4  0  0  0  0
 10 16  4  0  0  0  0
  1 17  1  0  0  0  0
  2 18  1  0  0  0  0
  4 19  1  0  0  0  0
  5 20  1  0  0  0  0
  7 21  1  0  0  0  0
  8 22  1  0  0  0  0
  9 23  1  0  0  0  0
 11 24  1  0  0  0  0
 12 25  1  0  0  0  0
 14 26  1  0  0  0  0
M  END
>  <InChIKey>
InChI=1S/C16H10/c1-3-11-7-9-13-5-2-6-14-10-8-12(4-1)15(11)16(13)14/h1-10H

>  <CASRN>
129-00-0

> <Outcome>
1

>  <Index>
1159

>  <StandardizerResult>
Dearomatize (ID: Dearomatize)
Clear Stereo (ID: ClearStereo)
Wedge Clean (ID: WedgeClean)
Mesomerize (ID: Mesomerize)
Tautomerize (ID: Tautomerize)
Aromatize (ID: Aromatize)
Add Explicit Hydrogens (ID: AddExplicitH)
Neutralize (ID: Neutralize)
Clean 2D (ID: Clean2D)

> <knn Distance>


> <CpId>
1159

$$$$
1160
  Mrv1532301301811342D          

 24 23  0  0  0  0            999 V2000
    1.0461    1.4289    0.0000 C   0  0  0  0  0  0  0  0  0  0  0  0
    1.7605    1.8414    0.0000 C   0  0  0  0  0  0  0  0  0  0  0  0
    2.4750    1.4289    0.0000 C   0  0  0  0  0  0  0  0  0  0  0  0
    3.1895    1.8414    0.0000 C   0  0  0  0  0  0  0  0  0  0  0  0
    3.9039    1.4289    0.0000 C   0  0  0  0  0  0  0  0  0  0  0  0
    4.6184    1.8414    0.0000 C   0  0  0  0  0  0  0  0  0  0  0  0
    5.3329    1.4289    0.0000 C   0  0  0  0  0  0  0  0  0  0  0  0
    6.0474    1.8414    0.0000 O   0  0  0  0  0  0  0  0  0  0  0  0
    0.6336    2.1434    0.0000 H   0  0  0  0  0  0  0  0  0  0  0  0
    0.3316    1.0164    0.0000 H   0  0  0  0  0  0  0  0  0  0  0  0
    1.4586    0.7144    0.0000 H   0  0  0  0  0  0  0  0  0  0  0  0
    2.1308    2.5786    0.0000 H   0  0  0  0  0  0  0  0  0  0  0  0
    1.3903    2.5786    0.0000 H   0  0  0  0  0  0  0  0  0  0  0  0
    2.1047    0.6917    0.0000 H   0  0  0  0  0  0  0  0  0  0  0  0
    2.8453    0.6917    0.0000 H   0  0  0  0  0  0  0  0  0  0  0  0
    3.5597    2.5786    0.0000 H   0  0  0  0  0  0  0  0  0  0  0  0
    2.8192    2.5786    0.0000 H   0  0  0  0  0  0  0  0  0  0  0  0
    3.5337    0.6917    0.0000 H   0  0  0  0  0  0  0  0  0  0  0  0
    4.2742    0.6917    0.0000 H   0  0  0  0  0  0  0  0  0  0  0  0
    4.9887    2.5786    0.0000 H   0  0  0  0  0  0  0  0  0  0  0  0
    4.2482    2.5786    0.0000 H   0  0  0  0  0  0  0  0  0  0  0  0
    4.9626    0.6917    0.0000 H   0  0  0  0  0  0  0  0  0  0  0  0
    5.7031    0.6917    0.0000 H   0  0  0  0  0  0  0  0  0  0  0  0
    6.7618    1.4289    0.0000 H   0  0  0  0  0  0  0  0  0  0  0  0
  1  2  1  0  0  0  0
  2  3  1  0  0  0  0
  3  4  1  0  0  0  0
  4  5  1  0  0  0  0
  5  6  1  0  0  0  0
  6  7  1  0  0  0  0
  7  8  1  0  0  0  0
  1  9  1  0  0  0  0
  1 10  1  0  0  0  0
  1 11  1  0  0  0  0
  2 12  1  0  0  0  0
  2 13  1  0  0  0  0
  3 14  1  0  0  0  0
  3 15  1  0  0  0  0
  4 16  1  0  0  0  0
  4 17  1  0  0  0  0
  5 18  1  0  0  0  0
  5 19  1  0  0  0  0
  6 20  1  0  0  0  0
  6 21  1  0  0  0  0
  7 22  1  0  0  0  0
  7 23  1  0  0  0  0
  8 24  1  0  0  0  0
M  END
>  <InChIKey>
InChI=1S/C7H16O/c1-2-3-4-5-6-7-8/h8H,2-7H2,1H3

>  <CASRN>
111-70-6

> <Outcome>
1

>  <Index>
1160

>  <StandardizerResult>
Clear Stereo (ID: ClearStereo)
Wedge Clean (ID: WedgeClean)
Mesomerize (ID: Mesomerize)
Tautomerize (ID: Tautomerize)
Add Explicit Hydrogens (ID: AddExplicitH)
Neutralize (ID: Neutralize)
Clean 2D (ID: Clean2D)

> <knn Distance>


> <CpId>
1160

$$$$
1170
  Mrv1532301301811342D          

 25 24  0  0  0  0            999 V2000
    1.3614   -4.7329    0.0000 C   0  0  0  0  0  0  0  0  0  0  0  0
    1.3614   -3.9079    0.0000 C   0  0  0  0  0  0  0  0  0  0  0  0
    0.6470   -3.4954    0.0000 O   0  0  0  0  0  0  0  0  0  0  0  0
    0.6470   -2.6704    0.0000 P   0  0  0  0  0  0  0  0  0  0  0  0
   -0.0675   -2.2579    0.0000 O   0  0  0  0  0  0  0  0  0  0  0  0
   -0.0675   -1.4329    0.0000 C   0  0  0  0  0  0  0  0  0  0  0  0
   -0.7820   -1.0204    0.0000 C   0  0  0  0  0  0  0  0  0  0  0  0
    1.3614   -2.2579    0.0000 O   0  0  0  0  0  0  0  0  0  0  0  0
    1.3614   -1.4329    0.0000 C   0  0  0  0  0  0  0  0  0  0  0  0
    2.0759   -1.0204    0.0000 C   0  0  0  0  0  0  0  0  0  0  0  0
    0.5364   -4.7329    0.0000 H   0  0  0  0  0  0  0  0  0  0  0  0
    1.3614   -5.5579    0.0000 H   0  0  0  0  0  0  0  0  0  0  0  0
    2.1864   -4.7329    0.0000 H   0  0  0  0  0  0  0  0  0  0  0  0
    2.1850   -3.8599    0.0000 H   0  0  0  0  0  0  0  0  0  0  0  0
    1.8148   -3.2186    0.0000 H   0  0  0  0  0  0  0  0  0  0  0  0
    0.7561   -1.3849    0.0000 H   0  0  0  0  0  0  0  0  0  0  0  0
    0.3858   -0.7436    0.0000 H   0  0  0  0  0  0  0  0  0  0  0  0
   -0.3695   -0.3059    0.0000 H   0  0  0  0  0  0  0  0  0  0  0  0
   -1.4964   -0.6079    0.0000 H   0  0  0  0  0  0  0  0  0  0  0  0
   -1.1945   -1.7349    0.0000 H   0  0  0  0  0  0  0  0  0  0  0  0
    1.1796   -0.6282    0.0000 H   0  0  0  0  0  0  0  0  0  0  0  0
    2.0759   -1.8454    0.0000 H   0  0  0  0  0  0  0  0  0  0  0  0
    2.8728   -1.2339    0.0000 H   0  0  0  0  0  0  0  0  0  0  0  0
    2.4884   -0.3059    0.0000 H   0  0  0  0  0  0  0  0  0  0  0  0
    1.4925   -0.4370    0.0000 H   0  0  0  0  0  0  0  0  0  0  0  0
  1  2  1  0  0  0  0
  2  3  1  0  0  0  0
  3  4  1  0  0  0  0
  4  5  1  0  0  0  0
  5  6  1  0  0  0  0
  6  7  1  0  0  0  0
  4  8  1  0  0  0  0
  8  9  1  0  0  0  0
  9 10  1  0  0  0  0
  1 11  1  0  0  0  0
  1 12  1  0  0  0  0
  1 13  1  0  0  0  0
  2 14  1  0  0  0  0
  2 15  1  0  0  0  0
  6 16  1  0  0  0  0
  6 17  1  0  0  0  0
  7 18  1  0  0  0  0
  7 19  1  0  0  0  0
  7 20  1  0  0  0  0
  9 21  1  0  0  0  0
  9 22  1  0  0  0  0
 10 23  1  0  0  0  0
 10 24  1  0  0  0  0
 10 25  1  0  0  0  0
M  END
>  <InChIKey>
InChI=1S/C6H15O3P/c1-4-7-10(8-5-2)9-6-3/h4-6H2,1-3H3

>  <CASRN>
122-52-1

> <Outcome>
1

>  <Index>
1170

>  <StandardizerResult>
Clear Stereo (ID: ClearStereo)
Wedge Clean (ID: WedgeClean)
Mesomerize (ID: Mesomerize)
Tautomerize (ID: Tautomerize)
Add Explicit Hydrogens (ID: AddExplicitH)
Neutralize (ID: Neutralize)
Clean 2D (ID: Clean2D)

> <knn Distance>


> <CpId>
1170

$$$$
1171
  Mrv1532301301811342D          

 12 12  0  0  0  0            999 V2000
    0.5678    1.9393    0.0000 C   0  0  0  0  0  0  0  0  0  0  0  0
    0.5678    1.1143    0.0000 N   0  0  0  0  0  0  0  0  0  0  0  0
    1.2352    0.6294    0.0000 S   0  0  0  0  0  0  0  0  0  0  0  0
    0.9803   -0.1553    0.0000 C   0  0  0  0  0  0  0  0  0  0  0  0
    0.1553   -0.1553    0.0000 C   0  0  0  0  0  0  0  0  0  0  0  0
   -0.0996    0.6294    0.0000 C   0  0  0  0  0  0  0  0  0  0  0  0
   -0.8843    0.8843    0.0000 O   0  0  0  0  0  0  0  0  0  0  0  0
    1.3928    1.9393    0.0000 H   0  0  0  0  0  0  0  0  0  0  0  0
    0.5678    2.7643    0.0000 H   0  0  0  0  0  0  0  0  0  0  0  0
   -0.2572    1.9393    0.0000 H   0  0  0  0  0  0  0  0  0  0  0  0
    1.4652   -0.8227    0.0000 H   0  0  0  0  0  0  0  0  0  0  0  0
   -0.3296   -0.8227    0.0000 H   0  0  0  0  0  0  0  0  0  0  0  0
  1  2  1  0  0  0  0
  2  3  1  0  0  0  0
  3  4  1  0  0  0  0
  4  5  2  0  0  0  0
  5  6  1  0  0  0  0
  2  6  1  0  0  0  0
  6  7  2  0  0  0  0
  1  8  1  0  0  0  0
  1  9  1  0  0  0  0
  1 10  1  0  0  0  0
  4 11  1  0  0  0  0
  5 12  1  0  0  0  0
M  END
>  <InChIKey>
InChI=1S/C4H5NOS/c1-5-4(6)2-3-7-5/h2-3H,1H3

>  <CASRN>
2682-20-4

> <Outcome>
1

>  <Index>
1171

>  <StandardizerResult>
Dearomatize (ID: Dearomatize)
Clear Stereo (ID: ClearStereo)
Wedge Clean (ID: WedgeClean)
Mesomerize (ID: Mesomerize)
Tautomerize (ID: Tautomerize)
Add Explicit Hydrogens (ID: AddExplicitH)
Neutralize (ID: Neutralize)
Clean 2D (ID: Clean2D)

> <knn Distance>


> <CpId>
1171

$$$$
1176
  Mrv1532301301811342D          

 23 22  0  0  0  0            999 V2000
   -0.2049    0.7466    0.0000 C   0  0  0  0  0  0  0  0  0  0  0  0
    0.5096    1.1591    0.0000 C   0  0  0  0  0  0  0  0  0  0  0  0
    1.2240    0.7466    0.0000 N   0  0  0  0  0  0  0  0  0  0  0  0
    1.2240   -0.0784    0.0000 C   0  0  0  0  0  0  0  0  0  0  0  0
    0.5096   -0.4909    0.0000 C   0  0  0  0  0  0  0  0  0  0  0  0
    1.9385    1.1591    0.0000 C   0  0  0  0  0  0  0  0  0  0  0  0
    2.6530    0.7466    0.0000 C   0  0  0  0  0  0  0  0  0  0  0  0
    3.3675    1.1591    0.0000 O   0  0  0  0  0  0  0  0  0  0  0  0
   -0.6174    1.4611    0.0000 H   0  0  0  0  0  0  0  0  0  0  0  0
   -0.9194    0.3341    0.0000 H   0  0  0  0  0  0  0  0  0  0  0  0
    0.2076    0.0322    0.0000 H   0  0  0  0  0  0  0  0  0  0  0  0
    0.8798    1.8964    0.0000 H   0  0  0  0  0  0  0  0  0  0  0  0
    0.1393    1.8964    0.0000 H   0  0  0  0  0  0  0  0  0  0  0  0
    1.6774   -0.7676    0.0000 H   0  0  0  0  0  0  0  0  0  0  0  0
    2.0476   -0.1263    0.0000 H   0  0  0  0  0  0  0  0  0  0  0  0
   -0.3084   -0.5986    0.0000 H   0  0  0  0  0  0  0  0  0  0  0  0
    0.2960   -1.2878    0.0000 H   0  0  0  0  0  0  0  0  0  0  0  0
    1.1641   -0.9931    0.0000 H   0  0  0  0  0  0  0  0  0  0  0  0
    2.3088    1.8964    0.0000 H   0  0  0  0  0  0  0  0  0  0  0  0
    1.5683    1.8964    0.0000 H   0  0  0  0  0  0  0  0  0  0  0  0
    2.2827    0.0094    0.0000 H   0  0  0  0  0  0  0  0  0  0  0  0
    3.0232    0.0094    0.0000 H   0  0  0  0  0  0  0  0  0  0  0  0
    4.0819    0.7466    0.0000 H   0  0  0  0  0  0  0  0  0  0  0  0
  1  2  1  0  0  0  0
  2  3  1  0  0  0  0
  3  4  1  0  0  0  0
  4  5  1  0  0  0  0
  3  6  1  0  0  0  0
  6  7  1  0  0  0  0
  7  8  1  0  0  0  0
  1  9  1  0  0  0  0
  1 10  1  0  0  0  0
  1 11  1  0  0  0  0
  2 12  1  0  0  0  0
  2 13  1  0  0  0  0
  4 14  1  0  0  0  0
  4 15  1  0  0  0  0
  5 16  1  0  0  0  0
  5 17  1  0  0  0  0
  5 18  1  0  0  0  0
  6 19  1  0  0  0  0
  6 20  1  0  0  0  0
  7 21  1  0  0  0  0
  7 22  1  0  0  0  0
  8 23  1  0  0  0  0
M  END
>  <InChIKey>
InChI=1S/C6H15NO/c1-3-7(4-2)5-6-8/h8H,3-6H2,1-2H3

>  <UN GHS>
1

>  <CASRN>
100-37-8

> <Outcome>
1

>  <Index>
1176

>  <StandardizerResult>
Clear Stereo (ID: ClearStereo)
Wedge Clean (ID: WedgeClean)
Mesomerize (ID: Mesomerize)
Tautomerize (ID: Tautomerize)
Add Explicit Hydrogens (ID: AddExplicitH)
Neutralize (ID: Neutralize)
Clean 2D (ID: Clean2D)

> <knn Distance>


> <CpId>
1176

$$$$
1183
  Mrv1532301301811342D          

 12 12  0  0  0  0            999 V2000
    0.7145    2.0625    0.0000 O   0  0  0  0  0  0  0  0  0  0  0  0
    0.7145    1.2375    0.0000 C   0  0  0  0  0  0  0  0  0  0  0  0
    1.4289    0.8250    0.0000 C   0  0  0  0  0  0  0  0  0  0  0  0
    1.4289   -0.0000    0.0000 C   0  0  0  0  0  0  0  0  0  0  0  0
    0.7145   -0.4125    0.0000 C   0  0  0  0  0  0  0  0  0  0  0  0
    0.7145   -1.2375    0.0000 O   0  0  0  0  0  0  0  0  0  0  0  0
   -0.0000    0.0000    0.0000 N   0  0  0  0  0  0  0  0  0  0  0  0
   -0.0000    0.8250    0.0000 N   0  0  0  0  0  0  0  0  0  0  0  0
    2.1434    1.2375    0.0000 H   0  0  0  0  0  0  0  0  0  0  0  0
    2.1434   -0.4125    0.0000 H   0  0  0  0  0  0  0  0  0  0  0  0
   -0.7145   -0.4125    0.0000 H   0  0  0  0  0  0  0  0  0  0  0  0
   -0.7145    1.2375    0.0000 H   0  0  0  0  0  0  0  0  0  0  0  0
  1  2  2  0  0  0  0
  2  3  1  0  0  0  0
  3  4  2  0  0  0  0
  4  5  1  0  0  0  0
  5  6  2  0  0  0  0
  5  7  1  0  0  0  0
  7  8  1  0  0  0  0
  2  8  1  0  0  0  0
  3  9  1  0  0  0  0
  4 10  1  0  0  0  0
  7 11  1  0  0  0  0
  8 12  1  0  0  0  0
M  END
>  <InChIKey>
InChI=1S/C4H4N2O2/c7-3-1-2-4(8)6-5-3/h1-2H,(H,5,7)(H,6,8)

>  <CASRN>
123-33-1

> <Outcome>
1

>  <Index>
1183

>  <StandardizerResult>
Dearomatize (ID: Dearomatize)
Clear Stereo (ID: ClearStereo)
Wedge Clean (ID: WedgeClean)
Mesomerize (ID: Mesomerize)
Tautomerize (ID: Tautomerize)
Add Explicit Hydrogens (ID: AddExplicitH)
Neutralize (ID: Neutralize)
Clean 2D (ID: Clean2D)

> <knn Distance>


> <CpId>
1183

$$$$
1186
  Mrv1532301301811342D          

 38 39  0  0  0  0            999 V2000
    1.4351    1.6238    0.0000 C   0  0  0  0  0  0  0  0  0  0  0  0
    1.4351    0.7988    0.0000 S   0  0  0  0  0  0  0  0  0  0  0  0
    0.6101    0.7988    0.0000 O   0  0  0  0  0  0  0  0  0  0  0  0
    2.2601    0.7988    0.0000 O   0  0  0  0  0  0  0  0  0  0  0  0
    1.4351   -0.0262    0.0000 N   0  0  0  0  0  0  0  0  0  0  0  0
    2.1496   -0.4387    0.0000 C   0  0  0  0  0  0  0  0  0  0  0  0
    2.8640   -0.0262    0.0000 O   0  0  0  0  0  0  0  0  0  0  0  0
    2.1496   -1.2637    0.0000 C   0  0  0  0  0  0  0  0  0  0  0  0
    2.8640   -1.6762    0.0000 C   0  0  0  0  0  0  0  0  0  0  0  0
    2.8640   -2.5012    0.0000 C   0  0  0  0  0  0  0  0  0  0  0  0
    3.5785   -2.9137    0.0000 O   0  0  0  0  0  0  0  0  0  0  0  0
    3.5785   -3.7387    0.0000 C   0  0  0  0  0  0  0  0  0  0  0  0
    4.2930   -4.1512    0.0000 C   0  0  0  0  0  0  0  0  0  0  0  0
    4.2930   -4.9762    0.0000 C   0  0  0  0  0  0  0  0  0  0  0  0
    3.5785   -5.3887    0.0000 C   0  0  0  0  0  0  0  0  0  0  0  0
    2.8640   -4.9762    0.0000 C   0  0  0  0  0  0  0  0  0  0  0  0
    2.8640   -4.1512    0.0000 C   0  0  0  0  0  0  0  0  0  0  0  0
    2.1496   -3.7387    0.0000 Cl  0  0  0  0  0  0  0  0  0  0  0  0
    3.5785   -6.2137    0.0000 C   0  0  0  0  0  0  0  0  0  0  0  0
    3.5785   -7.0387    0.0000 F   0  0  0  0  0  0  0  0  0  0  0  0
    2.7535   -6.2137    0.0000 F   0  0  0  0  0  0  0  0  0  0  0  0
    4.4035   -6.2137    0.0000 F   0  0  0  0  0  0  0  0  0  0  0  0
    2.1496   -2.9137    0.0000 C   0  0  0  0  0  0  0  0  0  0  0  0
    1.4351   -2.5012    0.0000 C   0  0  0  0  0  0  0  0  0  0  0  0
    1.4351   -1.6762    0.0000 C   0  0  0  0  0  0  0  0  0  0  0  0
    0.7206   -1.2637    0.0000 N   0  0  0  0  0  0  0  0  0  0  0  0
    0.7206   -0.4387    0.0000 O   0  0  0  0  0  0  0  0  0  0  0  0
    0.0062   -1.6762    0.0000 O   0  0  0  0  0  0  0  0  0  0  0  0
    2.2601    1.6238    0.0000 H   0  0  0  0  0  0  0  0  0  0  0  0
    1.4351    2.4488    0.0000 H   0  0  0  0  0  0  0  0  0  0  0  0
    0.6101    1.6238    0.0000 H   0  0  0  0  0  0  0  0  0  0  0  0
    0.7206    0.3863    0.0000 H   0  0  0  0  0  0  0  0  0  0  0  0
    3.5785   -1.2637    0.0000 H   0  0  0  0  0  0  0  0  0  0  0  0
    5.0075   -3.7387    0.0000 H   0  0  0  0  0  0  0  0  0  0  0  0
    5.0075   -5.3887    0.0000 H   0  0  0  0  0  0  0  0  0  0  0  0
    2.1496   -5.3887    0.0000 H   0  0  0  0  0  0  0  0  0  0  0  0
    1.4351   -3.3262    0.0000 H   0  0  0  0  0  0  0  0  0  0  0  0
    0.6101   -2.5012    0.0000 H   0  0  0  0  0  0  0  0  0  0  0  0
  1  2  1  0  0  0  0
  2  3  2  0  0  0  0
  2  4  2  0  0  0  0
  2  5  1  0  0  0  0
  5  6  1  0  0  0  0
  6  7  2  0  0  0  0
  6  8  1  0  0  0  0
  8  9  4  0  0  0  0
  9 10  4  0  0  0  0
 10 11  1  0  0  0  0
 11 12  1  0  0  0  0
 12 13  4  0  0  0  0
 13 14  4  0  0  0  0
 14 15  4  0  0  0  0
 15 16  4  0  0  0  0
 16 17  4  0  0  0  0
 12 17  4  0  0  0  0
 17 18  1  0  0  0  0
 15 19  1  0  0  0  0
 19 20  1  0  0  0  0
 19 21  1  0  0  0  0
 19 22  1  0  0  0  0
 10 23  4  0  0  0  0
 23 24  4  0  0  0  0
 24 25  4  0  0  0  0
  8 25  4  0  0  0  0
 25 26  1  0  0  0  0
 26 27  2  0  0  0  0
 26 28  2  0  0  0  0
  1 29  1  0  0  0  0
  1 30  1  0  0  0  0
  1 31  1  0  0  0  0
  5 32  1  0  0  0  0
  9 33  1  0  0  0  0
 13 34  1  0  0  0  0
 14 35  1  0  0  0  0
 16 36  1  0  0  0  0
 23 37  1  0  0  0  0
 24 38  1  0  0  0  0
M  END
>  <InChIKey>
InChI=1S/C15H10ClF3N2O6S/c1-28(25,26)20-14(22)10-7-9(3-4-12(10)21(23)24)27-13-5-2-8(6-11(13)16)15(17,18)19/h2-7H,1H3,(H,20,22)

>  <CASRN>
72178-02-0

> <Outcome>
1

>  <Index>
1186

>  <StandardizerResult>
Dearomatize (ID: Dearomatize)
Clear Stereo (ID: ClearStereo)
Wedge Clean (ID: WedgeClean)
Mesomerize (ID: Mesomerize)
Tautomerize (ID: Tautomerize)
Aromatize (ID: Aromatize)
Add Explicit Hydrogens (ID: AddExplicitH)
Neutralize (ID: Neutralize)
Clean 2D (ID: Clean2D)

> <knn Distance>


> <CpId>
1186

$$$$
1187
  Mrv1532301301811342D          

 18 18  0  0  0  0            999 V2000
    0.0000    2.4750    0.0000 C   0  0  0  0  0  0  0  0  0  0  0  0
    0.7145    2.0625    0.0000 O   0  0  0  0  0  0  0  0  0  0  0  0
    0.7145    1.2375    0.0000 C   0  0  0  0  0  0  0  0  0  0  0  0
    1.4289    0.8250    0.0000 C   0  0  0  0  0  0  0  0  0  0  0  0
    1.4289   -0.0000    0.0000 C   0  0  0  0  0  0  0  0  0  0  0  0
    0.7145   -0.4125    0.0000 C   0  0  0  0  0  0  0  0  0  0  0  0
    0.7145   -1.2375    0.0000 N   0  0  0  0  0  0  0  0  0  0  0  0
    0.0000   -0.0000    0.0000 C   0  0  0  0  0  0  0  0  0  0  0  0
    0.0000    0.8250    0.0000 C   0  0  0  0  0  0  0  0  0  0  0  0
    0.4125    3.1895    0.0000 H   0  0  0  0  0  0  0  0  0  0  0  0
   -0.7145    2.8875    0.0000 H   0  0  0  0  0  0  0  0  0  0  0  0
   -0.4125    1.7605    0.0000 H   0  0  0  0  0  0  0  0  0  0  0  0
    2.1434    1.2375    0.0000 H   0  0  0  0  0  0  0  0  0  0  0  0
    2.1434   -0.4125    0.0000 H   0  0  0  0  0  0  0  0  0  0  0  0
    0.0000   -1.6500    0.0000 H   0  0  0  0  0  0  0  0  0  0  0  0
    1.4289   -1.6500    0.0000 H   0  0  0  0  0  0  0  0  0  0  0  0
   -0.7145   -0.4125    0.0000 H   0  0  0  0  0  0  0  0  0  0  0  0
   -0.7145    1.2375    0.0000 H   0  0  0  0  0  0  0  0  0  0  0  0
  1  2  1  0  0  0  0
  2  3  1  0  0  0  0
  3  4  4  0  0  0  0
  4  5  4  0  0  0  0
  5  6  4  0  0  0  0
  6  7  1  0  0  0  0
  6  8  4  0  0  0  0
  8  9  4  0  0  0  0
  3  9  4  0  0  0  0
  1 10  1  0  0  0  0
  1 11  1  0  0  0  0
  1 12  1  0  0  0  0
  4 13  1  0  0  0  0
  5 14  1  0  0  0  0
  7 15  1  0  0  0  0
  7 16  1  0  0  0  0
  8 17  1  0  0  0  0
  9 18  1  0  0  0  0
M  END
>  <InChIKey>
InChI=1S/C7H9NO/c1-9-7-4-2-6(8)3-5-7/h2-5H,8H2,1H3

>  <CASRN>
104-94-9

> <Outcome>
1

>  <Index>
1187

>  <StandardizerResult>
Dearomatize (ID: Dearomatize)
Clear Stereo (ID: ClearStereo)
Wedge Clean (ID: WedgeClean)
Mesomerize (ID: Mesomerize)
Tautomerize (ID: Tautomerize)
Aromatize (ID: Aromatize)
Add Explicit Hydrogens (ID: AddExplicitH)
Neutralize (ID: Neutralize)
Clean 2D (ID: Clean2D)

> <knn Distance>


> <CpId>
1187

$$$$
1192
  Mrv1532301301811342D          

 15 14  0  0  0  0            999 V2000
    1.9520    1.9532    0.0000 O   0  0  0  0  0  0  0  0  0  0  0  0
    1.9520    1.1282    0.0000 C   0  0  0  0  0  0  0  0  0  0  0  0
    1.2375    0.7157    0.0000 C   0  0  0  0  0  0  0  0  0  0  0  0
    0.5230    1.1282    0.0000 C   0  0  0  0  0  0  0  0  0  0  0  0
   -0.1914    0.7157    0.0000 O   0  0  0  0  0  0  0  0  0  0  0  0
    0.5230    1.9532    0.0000 O   0  0  0  0  0  0  0  0  0  0  0  0
    2.6664    0.7157    0.0000 C   0  0  0  0  0  0  0  0  0  0  0  0
    3.3809    1.1282    0.0000 O   0  0  0  0  0  0  0  0  0  0  0  0
    2.6664   -0.1093    0.0000 O   0  0  0  0  0  0  0  0  0  0  0  0
    2.6664    2.3657    0.0000 H   0  0  0  0  0  0  0  0  0  0  0  0
    1.2375    1.5407    0.0000 H   0  0  0  0  0  0  0  0  0  0  0  0
    0.8672   -0.0216    0.0000 H   0  0  0  0  0  0  0  0  0  0  0  0
    1.6078   -0.0216    0.0000 H   0  0  0  0  0  0  0  0  0  0  0  0
   -0.9059    1.1282    0.0000 H   0  0  0  0  0  0  0  0  0  0  0  0
    4.0954    0.7157    0.0000 H   0  0  0  0  0  0  0  0  0  0  0  0
  1  2  1  0  0  0  0
  2  3  1  0  0  0  0
  3  4  1  0  0  0  0
  4  5  1  0  0  0  0
  4  6  2  0  0  0  0
  2  7  1  0  0  0  0
  7  8  1  0  0  0  0
  7  9  2  0  0  0  0
  1 10  1  0  0  0  0
  2 11  1  0  0  0  0
  3 12  1  0  0  0  0
  3 13  1  0  0  0  0
  5 14  1  0  0  0  0
  8 15  1  0  0  0  0
M  END
>  <InChIKey>
InChI=1S/C4H6O5/c5-2(4(8)9)1-3(6)7/h2,5H,1H2,(H,6,7)(H,8,9)

>  <CASRN>
6915-15-7

> <Outcome>
1

>  <Index>
1192

>  <StandardizerResult>
Clear Stereo (ID: ClearStereo)
Wedge Clean (ID: WedgeClean)
Mesomerize (ID: Mesomerize)
Tautomerize (ID: Tautomerize)
Add Explicit Hydrogens (ID: AddExplicitH)
Neutralize (ID: Neutralize)
Clean 2D (ID: Clean2D)

> <knn Distance>


> <CpId>
1192

$$$$
1194
  Mrv1532301301811342D          

 24 24  0  0  0  0            999 V2000
    0.0034    2.4667    0.0000 C   0  0  0  0  0  0  0  0  0  0  0  0
    0.7179    2.0542    0.0000 O   0  0  0  0  0  0  0  0  0  0  0  0
    0.7179    1.2292    0.0000 C   0  0  0  0  0  0  0  0  0  0  0  0
    1.4324    0.8167    0.0000 C   0  0  0  0  0  0  0  0  0  0  0  0
    1.4324   -0.0083    0.0000 C   0  0  0  0  0  0  0  0  0  0  0  0
    2.1468   -0.4208    0.0000 C   0  0  0  0  0  0  0  0  0  0  0  0
    2.1468   -1.2458    0.0000 C   0  0  0  0  0  0  0  0  0  0  0  0
    2.8613   -1.6583    0.0000 C   0  0  0  0  0  0  0  0  0  0  0  0
    0.7179   -0.4208    0.0000 C   0  0  0  0  0  0  0  0  0  0  0  0
    0.0034   -0.0083    0.0000 C   0  0  0  0  0  0  0  0  0  0  0  0
    0.0034    0.8167    0.0000 C   0  0  0  0  0  0  0  0  0  0  0  0
   -0.7110    1.2292    0.0000 O   0  0  0  0  0  0  0  0  0  0  0  0
    0.4159    3.1812    0.0000 H   0  0  0  0  0  0  0  0  0  0  0  0
   -0.7110    2.8792    0.0000 H   0  0  0  0  0  0  0  0  0  0  0  0
   -0.4091    1.7522    0.0000 H   0  0  0  0  0  0  0  0  0  0  0  0
    2.1468    1.2292    0.0000 H   0  0  0  0  0  0  0  0  0  0  0  0
    2.8613   -0.0083    0.0000 H   0  0  0  0  0  0  0  0  0  0  0  0
    1.4324   -1.6583    0.0000 H   0  0  0  0  0  0  0  0  0  0  0  0
    2.4488   -2.3728    0.0000 H   0  0  0  0  0  0  0  0  0  0  0  0
    3.5758   -2.0708    0.0000 H   0  0  0  0  0  0  0  0  0  0  0  0
    3.2738   -0.9438    0.0000 H   0  0  0  0  0  0  0  0  0  0  0  0
    0.7179   -1.2458    0.0000 H   0  0  0  0  0  0  0  0  0  0  0  0
   -0.7110   -0.4208    0.0000 H   0  0  0  0  0  0  0  0  0  0  0  0
   -1.5079    1.0157    0.0000 H   0  0  0  0  0  0  0  0  0  0  0  0
  1  2  1  0  0  0  0
  2  3  1  0  0  0  0
  3  4  4  0  0  0  0
  4  5  4  0  0  0  0
  5  6  1  0  0  0  0
  6  7  2  0  0  0  0
  7  8  1  4  0  0  0
  5  9  4  0  0  0  0
  9 10  4  0  0  0  0
 10 11  4  0  0  0  0
  3 11  4  0  0  0  0
 11 12  1  0  0  0  0
  1 13  1  0  0  0  0
  1 14  1  0  0  0  0
  1 15  1  0  0  0  0
  4 16  1  0  0  0  0
  6 17  1  0  0  0  0
  7 18  1  0  0  0  0
  8 19  1  0  0  0  0
  8 20  1  0  0  0  0
  8 21  1  0  0  0  0
  9 22  1  0  0  0  0
 10 23  1  0  0  0  0
 12 24  1  0  0  0  0
M  END
>  <InChIKey>
InChI=1S/C10H12O2/c1-3-4-8-5-6-9(11)10(7-8)12-2/h3-7,11H,1-2H3

>  <CASRN>
97-54-1

> <Outcome>
1

>  <Index>
1194

>  <StandardizerResult>
Dearomatize (ID: Dearomatize)
Clear Stereo (ID: ClearStereo)
Wedge Clean (ID: WedgeClean)
Mesomerize (ID: Mesomerize)
Tautomerize (ID: Tautomerize)
Aromatize (ID: Aromatize)
Add Explicit Hydrogens (ID: AddExplicitH)
Neutralize (ID: Neutralize)
Clean 2D (ID: Clean2D)

> <knn Distance>


> <CpId>
1194

$$$$
1196
  Mrv1532301301811342D          

 29 28  0  0  0  0            999 V2000
    2.9980    2.5565    0.0000 C   0  0  0  0  0  0  0  0  0  0  0  0
    3.7125    2.1440    0.0000 C   0  0  0  0  0  0  0  0  0  0  0  0
    4.4270    2.5565    0.0000 C   0  0  0  0  0  0  0  0  0  0  0  0
    5.1414    2.1440    0.0000 C   0  0  0  0  0  0  0  0  0  0  0  0
    5.8559    2.5565    0.0000 C   0  0  0  0  0  0  0  0  0  0  0  0
    6.5704    2.1440    0.0000 C   0  0  0  0  0  0  0  0  0  0  0  0
    7.2849    2.5565    0.0000 C   0  0  0  0  0  0  0  0  0  0  0  0
    7.9993    2.1440    0.0000 C   0  0  0  0  0  0  0  0  0  0  0  0
    8.7138    2.5565    0.0000 C   0  0  0  0  0  0  0  0  0  0  0  0
    3.4105    3.2710    0.0000 H   0  0  0  0  0  0  0  0  0  0  0  0
    2.2836    2.9690    0.0000 H   0  0  0  0  0  0  0  0  0  0  0  0
    2.5855    1.8420    0.0000 H   0  0  0  0  0  0  0  0  0  0  0  0
    3.3422    1.4068    0.0000 H   0  0  0  0  0  0  0  0  0  0  0  0
    4.0828    1.4068    0.0000 H   0  0  0  0  0  0  0  0  0  0  0  0
    4.7972    3.2938    0.0000 H   0  0  0  0  0  0  0  0  0  0  0  0
    4.0567    3.2938    0.0000 H   0  0  0  0  0  0  0  0  0  0  0  0
    4.7712    1.4068    0.0000 H   0  0  0  0  0  0  0  0  0  0  0  0
    5.5117    1.4068    0.0000 H   0  0  0  0  0  0  0  0  0  0  0  0
    6.2262    3.2938    0.0000 H   0  0  0  0  0  0  0  0  0  0  0  0
    5.4857    3.2938    0.0000 H   0  0  0  0  0  0  0  0  0  0  0  0
    6.2001    1.4068    0.0000 H   0  0  0  0  0  0  0  0  0  0  0  0
    6.9406    1.4068    0.0000 H   0  0  0  0  0  0  0  0  0  0  0  0
    7.6551    3.2938    0.0000 H   0  0  0  0  0  0  0  0  0  0  0  0
    6.9146    3.2938    0.0000 H   0  0  0  0  0  0  0  0  0  0  0  0
    7.6291    1.4068    0.0000 H   0  0  0  0  0  0  0  0  0  0  0  0
    8.3696    1.4068    0.0000 H   0  0  0  0  0  0  0  0  0  0  0  0
    9.1263    1.8420    0.0000 H   0  0  0  0  0  0  0  0  0  0  0  0
    9.4283    2.9690    0.0000 H   0  0  0  0  0  0  0  0  0  0  0  0
    8.3013    3.2710    0.0000 H   0  0  0  0  0  0  0  0  0  0  0  0
  1  2  1  0  0  0  0
  2  3  1  0  0  0  0
  3  4  1  0  0  0  0
  4  5  1  0  0  0  0
  5  6  1  0  0  0  0
  6  7  1  0  0  0  0
  7  8  1  0  0  0  0
  8  9  1  0  0  0  0
  1 10  1  0  0  0  0
  1 11  1  0  0  0  0
  1 12  1  0  0  0  0
  2 13  1  0  0  0  0
  2 14  1  0  0  0  0
  3 15  1  0  0  0  0
  3 16  1  0  0  0  0
  4 17  1  0  0  0  0
  4 18  1  0  0  0  0
  5 19  1  0  0  0  0
  5 20  1  0  0  0  0
  6 21  1  0  0  0  0
  6 22  1  0  0  0  0
  7 23  1  0  0  0  0
  7 24  1  0  0  0  0
  8 25  1  0  0  0  0
  8 26  1  0  0  0  0
  9 27  1  0  0  0  0
  9 28  1  0  0  0  0
  9 29  1  0  0  0  0
M  END
>  <InChIKey>
InChI=1S/C9H20/c1-3-5-7-9-8-6-4-2/h3-9H2,1-2H3

>  <CASRN>
111-84-2

> <Outcome>
1

>  <Index>
1196

>  <StandardizerResult>
Clear Stereo (ID: ClearStereo)
Wedge Clean (ID: WedgeClean)
Mesomerize (ID: Mesomerize)
Tautomerize (ID: Tautomerize)
Add Explicit Hydrogens (ID: AddExplicitH)
Neutralize (ID: Neutralize)
Clean 2D (ID: Clean2D)

> <knn Distance>


> <CpId>
1196

$$$$
1197
  Mrv1532301301811342D          

 44 47  0  0  0  0            999 V2000
   -2.0861   -5.3641    0.0000 O   0  0  0  0  0  0  0  0  0  0  0  0
   -1.3716   -4.9516    0.0000 C   0  0  0  0  0  0  0  0  0  0  0  0
   -0.6571   -5.3641    0.0000 O   0  0  0  0  0  0  0  0  0  0  0  0
   -1.3716   -4.1266    0.0000 C   0  0  0  0  0  0  0  0  0  0  0  0
   -2.0861   -3.7141    0.0000 C   0  0  0  0  0  0  0  0  0  0  0  0
   -2.0861   -2.8891    0.0000 C   0  0  0  0  0  0  0  0  0  0  0  0
   -2.8006   -2.4766    0.0000 C   0  0  0  0  0  0  0  0  0  0  0  0
   -2.8006   -1.6516    0.0000 C   0  0  0  0  0  0  0  0  0  0  0  0
   -2.0861   -1.2391    0.0000 C   0  0  0  0  0  0  0  0  0  0  0  0
   -1.3716   -1.6516    0.0000 C   0  0  0  0  0  0  0  0  0  0  0  0
   -1.3716   -2.4766    0.0000 C   0  0  0  0  0  0  0  0  0  0  0  0
   -0.6571   -2.8891    0.0000 C   0  0  0  0  0  0  0  0  0  0  0  0
    0.0573   -2.4766    0.0000 N   0  0  0  0  0  0  0  0  0  0  0  0
    0.0573   -1.6516    0.0000 N   0  0  0  0  0  0  0  0  0  0  0  0
    0.7718   -1.2391    0.0000 C   0  0  0  0  0  0  0  0  0  0  0  0
    0.7718   -0.4141    0.0000 C   0  0  0  0  0  0  0  0  0  0  0  0
    1.4863   -0.0016    0.0000 C   0  0  0  0  0  0  0  0  0  0  0  0
    2.2007   -0.4141    0.0000 C   0  0  0  0  0  0  0  0  0  0  0  0
    2.9152   -0.0016    0.0000 C   0  0  0  0  0  0  0  0  0  0  0  0
    3.6297   -0.4141    0.0000 C   0  0  0  0  0  0  0  0  0  0  0  0
    3.6297   -1.2391    0.0000 C   0  0  0  0  0  0  0  0  0  0  0  0
    2.9152   -1.6516    0.0000 C   0  0  0  0  0  0  0  0  0  0  0  0
    2.2007   -1.2391    0.0000 C   0  0  0  0  0  0  0  0  0  0  0  0
    1.4863   -1.6516    0.0000 C   0  0  0  0  0  0  0  0  0  0  0  0
    1.4863   -2.4766    0.0000 S   0  0  0  0  0  0  0  0  0  0  0  0
    1.4863   -3.3016    0.0000 O   0  0  0  0  0  0  0  0  0  0  0  0
    0.6613   -2.4766    0.0000 O   0  0  0  0  0  0  0  0  0  0  0  0
    2.3113   -2.4766    0.0000 O   0  0  0  0  0  0  0  0  0  0  0  0
   -0.6571   -3.7141    0.0000 C   0  0  0  0  0  0  0  0  0  0  0  0
    0.0573   -4.1266    0.0000 O   0  0  0  0  0  0  0  0  0  0  0  0
   -2.8006   -4.9516    0.0000 H   0  0  0  0  0  0  0  0  0  0  0  0
   -2.8006   -4.1266    0.0000 H   0  0  0  0  0  0  0  0  0  0  0  0
   -3.5150   -2.8891    0.0000 H   0  0  0  0  0  0  0  0  0  0  0  0
   -3.5150   -1.2391    0.0000 H   0  0  0  0  0  0  0  0  0  0  0  0
   -2.0861   -0.4141    0.0000 H   0  0  0  0  0  0  0  0  0  0  0  0
   -0.6571   -1.2391    0.0000 H   0  0  0  0  0  0  0  0  0  0  0  0
   -0.6571   -2.0641    0.0000 H   0  0  0  0  0  0  0  0  0  0  0  0
    0.0573   -0.0016    0.0000 H   0  0  0  0  0  0  0  0  0  0  0  0
    1.4863    0.8234    0.0000 H   0  0  0  0  0  0  0  0  0  0  0  0
    2.9152    0.8234    0.0000 H   0  0  0  0  0  0  0  0  0  0  0  0
    4.3442   -0.0016    0.0000 H   0  0  0  0  0  0  0  0  0  0  0  0
    4.3442   -1.6516    0.0000 H   0  0  0  0  0  0  0  0  0  0  0  0
    2.9152   -2.4766    0.0000 H   0  0  0  0  0  0  0  0  0  0  0  0
    0.7718   -3.7141    0.0000 H   0  0  0  0  0  0  0  0  0  0  0  0
  1  2  1  0  0  0  0
  2  3  2  0  0  0  0
  2  4  1  0  0  0  0
  4  5  2  0  0  0  0
  5  6  1  0  0  0  0
  6  7  4  0  0  0  0
  7  8  4  0  0  0  0
  8  9  4  0  0  0  0
  9 10  4  0  0  0  0
 10 11  4  0  0  0  0
  6 11  4  0  0  0  0
 11 12  1  0  0  0  0
 12 13  2  0  0  0  0
 13 14  1  4  0  0  0
 14 15  1  0  0  0  0
 15 16  4  0  0  0  0
 16 17  4  0  0  0  0
 17 18  4  0  0  0  0
 18 19  4  0  0  0  0
 19 20  4  0  0  0  0
 20 21  4  0  0  0  0
 21 22  4  0  0  0  0
 22 23  4  0  0  0  0
 18 23  4  0  0  0  0
 23 24  4  0  0  0  0
 15 24  4  0  0  0  0
 24 25  1  0  0  0  0
 25 26  1  0  0  0  0
 25 27  2  0  0  0  0
 25 28  2  0  0  0  0
 12 29  1  0  0  0  0
  4 29  1  0  0  0  0
 29 30  2  0  0  0  0
  1 31  1  0  0  0  0
  5 32  1  0  0  0  0
  7 33  1  0  0  0  0
  8 34  1  0  0  0  0
  9 35  1  0  0  0  0
 10 36  1  0  0  0  0
 14 37  1  0  0  0  0
 16 38  1  0  0  0  0
 17 39  1  0  0  0  0
 19 40  1  0  0  0  0
 20 41  1  0  0  0  0
 21 42  1  0  0  0  0
 22 43  1  0  0  0  0
 26 44  1  0  0  0  0
M  END
>  <InChIKey>
InChI=1S/C21H14N2O6S/c24-19-16(21(25)26)11-13-6-2-3-7-14(13)18(19)23-22-17-10-9-12-5-1-4-8-15(12)20(17)30(27,28)29/h1-11,22H,(H,25,26)(H,27,28,29)

>  <CASRN>
6417-83-0

> <Outcome>
1

>  <Index>
1197

>  <StandardizerResult>
Dearomatize (ID: Dearomatize)
Clear Stereo (ID: ClearStereo)
Wedge Clean (ID: WedgeClean)
Mesomerize (ID: Mesomerize)
Tautomerize (ID: Tautomerize)
Aromatize (ID: Aromatize)
Add Explicit Hydrogens (ID: AddExplicitH)
Neutralize (ID: Neutralize)
Clean 2D (ID: Clean2D)

> <knn Distance>


> <CpId>
1197

$$$$
1206
  Mrv1532301301811342D          

 14 14  0  0  0  0            999 V2000
    0.7145    2.0625    0.0000 N   0  0  0  0  0  0  0  0  0  0  0  0
    0.7145    1.2375    0.0000 C   0  0  0  0  0  0  0  0  0  0  0  0
    1.4289    0.8250    0.0000 N   0  0  0  0  0  0  0  0  0  0  0  0
    1.4289    0.0000    0.0000 C   0  0  0  0  0  0  0  0  0  0  0  0
    0.7145   -0.4125    0.0000 C   0  0  0  0  0  0  0  0  0  0  0  0
    0.0000    0.0000    0.0000 C   0  0  0  0  0  0  0  0  0  0  0  0
    0.0000    0.8250    0.0000 C   0  0  0  0  0  0  0  0  0  0  0  0
   -0.7145    1.2375    0.0000 O   0  0  0  0  0  0  0  0  0  0  0  0
    1.4289    2.4750    0.0000 H   0  0  0  0  0  0  0  0  0  0  0  0
    0.0000    2.4750    0.0000 H   0  0  0  0  0  0  0  0  0  0  0  0
    2.1434   -0.4125    0.0000 H   0  0  0  0  0  0  0  0  0  0  0  0
    0.7145   -1.2375    0.0000 H   0  0  0  0  0  0  0  0  0  0  0  0
   -0.7145   -0.4125    0.0000 H   0  0  0  0  0  0  0  0  0  0  0  0
   -0.7145    2.0625    0.0000 H   0  0  0  0  0  0  0  0  0  0  0  0
  1  2  1  0  0  0  0
  2  3  4  0  0  0  0
  3  4  4  0  0  0  0
  4  5  4  0  0  0  0
  5  6  4  0  0  0  0
  6  7  4  0  0  0  0
  2  7  4  0  0  0  0
  7  8  1  0  0  0  0
  1  9  1  0  0  0  0
  1 10  1  0  0  0  0
  4 11  1  0  0  0  0
  5 12  1  0  0  0  0
  6 13  1  0  0  0  0
  8 14  1  0  0  0  0
M  END
>  <InChIKey>
InChI=1S/C5H6N2O/c6-5-4(8)2-1-3-7-5/h1-3,8H,(H2,6,7)

>  <UN GHS>
2A

>  <CASRN>
16867-03-1

> <Outcome>
1

>  <Index>
1206

>  <StandardizerResult>
Dearomatize (ID: Dearomatize)
Clear Stereo (ID: ClearStereo)
Wedge Clean (ID: WedgeClean)
Mesomerize (ID: Mesomerize)
Tautomerize (ID: Tautomerize)
Aromatize (ID: Aromatize)
Add Explicit Hydrogens (ID: AddExplicitH)
Neutralize (ID: Neutralize)
Clean 2D (ID: Clean2D)

> <knn Distance>


> <CpId>
1206

$$$$
1211
  Mrv1532301301811342D          

 20 21  0  0  0  0            999 V2000
    1.4289   -2.4750    0.0000 O   0  0  0  0  0  0  0  0  0  0  0  0
    1.4289   -1.6500    0.0000 C   0  0  0  0  0  0  0  0  0  0  0  0
    0.7145   -1.2375    0.0000 C   0  0  0  0  0  0  0  0  0  0  0  0
    0.7145   -0.4125    0.0000 C   0  0  0  0  0  0  0  0  0  0  0  0
    1.4289   -0.0000    0.0000 C   0  0  0  0  0  0  0  0  0  0  0  0
    2.1434   -0.4125    0.0000 C   0  0  0  0  0  0  0  0  0  0  0  0
    2.8579   -0.0000    0.0000 C   0  0  0  0  0  0  0  0  0  0  0  0
    2.8579    0.8250    0.0000 O   0  0  0  0  0  0  0  0  0  0  0  0
    3.5724   -0.4125    0.0000 C   0  0  0  0  0  0  0  0  0  0  0  0
    3.5724   -1.2375    0.0000 C   0  0  0  0  0  0  0  0  0  0  0  0
    2.8579   -1.6500    0.0000 C   0  0  0  0  0  0  0  0  0  0  0  0
    2.1434   -1.2375    0.0000 C   0  0  0  0  0  0  0  0  0  0  0  0
    0.7145   -2.8875    0.0000 H   0  0  0  0  0  0  0  0  0  0  0  0
    0.0000   -1.6500    0.0000 H   0  0  0  0  0  0  0  0  0  0  0  0
    0.0000   -0.0000    0.0000 H   0  0  0  0  0  0  0  0  0  0  0  0
    1.4289    0.8250    0.0000 H   0  0  0  0  0  0  0  0  0  0  0  0
    3.5724    1.2375    0.0000 H   0  0  0  0  0  0  0  0  0  0  0  0
    4.2868   -0.0000    0.0000 H   0  0  0  0  0  0  0  0  0  0  0  0
    4.2868   -1.6500    0.0000 H   0  0  0  0  0  0  0  0  0  0  0  0
    2.8579   -2.4750    0.0000 H   0  0  0  0  0  0  0  0  0  0  0  0
  1  2  1  0  0  0  0
  2  3  4  0  0  0  0
  3  4  4  0  0  0  0
  4  5  4  0  0  0  0
  5  6  4  0  0  0  0
  6  7  4  0  0  0  0
  7  8  1  0  0  0  0
  7  9  4  0  0  0  0
  9 10  4  0  0  0  0
 10 11  4  0  0  0  0
 11 12  4  0  0  0  0
  2 12  4  0  0  0  0
  6 12  4  0  0  0  0
  1 13  1  0  0  0  0
  3 14  1  0  0  0  0
  4 15  1  0  0  0  0
  5 16  1  0  0  0  0
  8 17  1  0  0  0  0
  9 18  1  0  0  0  0
 10 19  1  0  0  0  0
 11 20  1  0  0  0  0
M  END
>  <InChIKey>
InChI=1S/C10H8O2/c11-9-5-1-3-7-8(9)4-2-6-10(7)12/h1-6,11-12H

>  <UN GHS>
2A

>  <CASRN>
83-56-7

> <Outcome>
1

>  <Index>
1211

>  <StandardizerResult>
Dearomatize (ID: Dearomatize)
Clear Stereo (ID: ClearStereo)
Wedge Clean (ID: WedgeClean)
Mesomerize (ID: Mesomerize)
Tautomerize (ID: Tautomerize)
Aromatize (ID: Aromatize)
Add Explicit Hydrogens (ID: AddExplicitH)
Neutralize (ID: Neutralize)
Clean 2D (ID: Clean2D)

> <knn Distance>


> <CpId>
1211

$$$$
1216
  Mrv1532301301811342D          

 22 22  0  0  0  0            999 V2000
    0.0325    3.3562    0.0000 C   0  0  0  0  0  0  0  0  0  0  0  0
    0.0325    2.5312    0.0000 C   0  0  0  0  0  0  0  0  0  0  0  0
   -0.6820    2.1187    0.0000 O   0  0  0  0  0  0  0  0  0  0  0  0
    0.7469    2.1187    0.0000 N   0  0  0  0  0  0  0  0  0  0  0  0
    0.7469    1.2937    0.0000 C   0  0  0  0  0  0  0  0  0  0  0  0
    1.4614    0.8812    0.0000 C   0  0  0  0  0  0  0  0  0  0  0  0
    1.4614    0.0562    0.0000 C   0  0  0  0  0  0  0  0  0  0  0  0
    0.7469   -0.3563    0.0000 C   0  0  0  0  0  0  0  0  0  0  0  0
    0.0325    0.0562    0.0000 C   0  0  0  0  0  0  0  0  0  0  0  0
    0.0325    0.8812    0.0000 C   0  0  0  0  0  0  0  0  0  0  0  0
   -0.6820    1.2937    0.0000 C   0  0  0  0  0  0  0  0  0  0  0  0
    0.8575    3.3562    0.0000 H   0  0  0  0  0  0  0  0  0  0  0  0
    0.0325    4.1812    0.0000 H   0  0  0  0  0  0  0  0  0  0  0  0
   -0.7925    3.3562    0.0000 H   0  0  0  0  0  0  0  0  0  0  0  0
    1.4614    2.5312    0.0000 H   0  0  0  0  0  0  0  0  0  0  0  0
    2.1759    1.2937    0.0000 H   0  0  0  0  0  0  0  0  0  0  0  0
    2.1759   -0.3563    0.0000 H   0  0  0  0  0  0  0  0  0  0  0  0
    0.7469   -1.1813    0.0000 H   0  0  0  0  0  0  0  0  0  0  0  0
   -0.6820   -0.3563    0.0000 H   0  0  0  0  0  0  0  0  0  0  0  0
   -1.3965    1.7062    0.0000 H   0  0  0  0  0  0  0  0  0  0  0  0
   -1.3965    0.8812    0.0000 H   0  0  0  0  0  0  0  0  0  0  0  0
   -0.6820    0.4687    0.0000 H   0  0  0  0  0  0  0  0  0  0  0  0
  1  2  1  0  0  0  0
  2  3  2  0  0  0  0
  2  4  1  0  0  0  0
  4  5  1  0  0  0  0
  5  6  4  0  0  0  0
  6  7  4  0  0  0  0
  7  8  4  0  0  0  0
  8  9  4  0  0  0  0
  9 10  4  0  0  0  0
  5 10  4  0  0  0  0
 10 11  1  0  0  0  0
  1 12  1  0  0  0  0
  1 13  1  0  0  0  0
  1 14  1  0  0  0  0
  4 15  1  0  0  0  0
  6 16  1  0  0  0  0
  7 17  1  0  0  0  0
  8 18  1  0  0  0  0
  9 19  1  0  0  0  0
 11 20  1  0  0  0  0
 11 21  1  0  0  0  0
 11 22  1  0  0  0  0
M  END
>  <InChIKey>
InChI=1S/C9H11NO/c1-7-5-3-4-6-9(7)10-8(2)11/h3-6H,1-2H3,(H,10,11)

>  <CASRN>
120-66-1

> <Outcome>
1

>  <Index>
1216

>  <StandardizerResult>
Dearomatize (ID: Dearomatize)
Clear Stereo (ID: ClearStereo)
Wedge Clean (ID: WedgeClean)
Mesomerize (ID: Mesomerize)
Tautomerize (ID: Tautomerize)
Aromatize (ID: Aromatize)
Add Explicit Hydrogens (ID: AddExplicitH)
Neutralize (ID: Neutralize)
Clean 2D (ID: Clean2D)

> <knn Distance>


> <CpId>
1216

$$$$
1223
  Mrv1532301301811342D          

 22 22  0  0  0  0            999 V2000
   -0.0007    2.4746    0.0000 C   0  0  0  0  0  0  0  0  0  0  0  0
    0.7138    2.0621    0.0000 C   0  0  0  0  0  0  0  0  0  0  0  0
    0.7138    1.2371    0.0000 C   0  0  0  0  0  0  0  0  0  0  0  0
    1.4283    0.8246    0.0000 C   0  0  0  0  0  0  0  0  0  0  0  0
    1.4283   -0.0004    0.0000 C   0  0  0  0  0  0  0  0  0  0  0  0
    0.7138   -0.4129    0.0000 C   0  0  0  0  0  0  0  0  0  0  0  0
   -0.0007   -0.0004    0.0000 C   0  0  0  0  0  0  0  0  0  0  0  0
   -0.0007    0.8246    0.0000 C   0  0  0  0  0  0  0  0  0  0  0  0
    0.7138   -1.2379    0.0000 S   0  0  0  0  0  0  0  0  0  0  0  0
    0.7138   -2.0629    0.0000 O   0  0  0  0  0  0  0  0  0  0  0  0
   -0.1112   -1.2379    0.0000 O   0  0  0  0  0  0  0  0  0  0  0  0
    1.5388   -1.2379    0.0000 O   0  0  0  0  0  0  0  0  0  0  0  0
    0.4118    3.1891    0.0000 H   0  0  0  0  0  0  0  0  0  0  0  0
   -0.7152    2.8871    0.0000 H   0  0  0  0  0  0  0  0  0  0  0  0
   -0.4132    1.7601    0.0000 H   0  0  0  0  0  0  0  0  0  0  0  0
    1.5374    2.1101    0.0000 H   0  0  0  0  0  0  0  0  0  0  0  0
    1.1671    2.7514    0.0000 H   0  0  0  0  0  0  0  0  0  0  0  0
    2.1427    1.2371    0.0000 H   0  0  0  0  0  0  0  0  0  0  0  0
    2.1427   -0.4129    0.0000 H   0  0  0  0  0  0  0  0  0  0  0  0
   -0.7152   -0.4129    0.0000 H   0  0  0  0  0  0  0  0  0  0  0  0
   -0.7152    1.2371    0.0000 H   0  0  0  0  0  0  0  0  0  0  0  0
   -0.0007   -2.4754    0.0000 H   0  0  0  0  0  0  0  0  0  0  0  0
  1  2  1  0  0  0  0
  2  3  1  0  0  0  0
  3  4  4  0  0  0  0
  4  5  4  0  0  0  0
  5  6  4  0  0  0  0
  6  7  4  0  0  0  0
  7  8  4  0  0  0  0
  3  8  4  0  0  0  0
  6  9  1  0  0  0  0
  9 10  1  0  0  0  0
  9 11  2  0  0  0  0
  9 12  2  0  0  0  0
  1 13  1  0  0  0  0
  1 14  1  0  0  0  0
  1 15  1  0  0  0  0
  2 16  1  0  0  0  0
  2 17  1  0  0  0  0
  4 18  1  0  0  0  0
  5 19  1  0  0  0  0
  7 20  1  0  0  0  0
  8 21  1  0  0  0  0
 10 22  1  0  0  0  0
M  END
>  <InChIKey>
InChI=1S/C8H10O3S/c1-2-7-3-5-8(6-4-7)12(9,10)11/h3-6H,2H2,1H3,(H,9,10,11)

>  <CASRN>
98-69-1

> <Outcome>
1

>  <Index>
1223

>  <StandardizerResult>
Dearomatize (ID: Dearomatize)
Clear Stereo (ID: ClearStereo)
Wedge Clean (ID: WedgeClean)
Mesomerize (ID: Mesomerize)
Tautomerize (ID: Tautomerize)
Aromatize (ID: Aromatize)
Add Explicit Hydrogens (ID: AddExplicitH)
Neutralize (ID: Neutralize)
Clean 2D (ID: Clean2D)

> <knn Distance>


> <CpId>
1223

$$$$
1225
  Mrv1532301301811342D          

 39 41  0  0  0  0            999 V2000
    2.1558   -6.9873    0.0000 O   0  0  0  0  0  0  0  0  0  0  0  0
    2.1558   -6.1623    0.0000 S   0  0  0  0  0  0  0  0  0  0  0  0
    2.9808   -6.1623    0.0000 O   0  0  0  0  0  0  0  0  0  0  0  0
    1.3308   -6.1623    0.0000 O   0  0  0  0  0  0  0  0  0  0  0  0
    2.1558   -5.3373    0.0000 C   0  0  0  0  0  0  0  0  0  0  0  0
    1.4414   -4.9248    0.0000 C   0  0  0  0  0  0  0  0  0  0  0  0
    1.4414   -4.0998    0.0000 C   0  0  0  0  0  0  0  0  0  0  0  0
    2.1558   -3.6873    0.0000 C   0  0  0  0  0  0  0  0  0  0  0  0
    2.1558   -2.8623    0.0000 N   0  0  0  0  0  0  0  0  0  0  0  0
    1.4414   -2.4498    0.0000 N   0  0  0  0  0  0  0  0  0  0  0  0
    1.4414   -1.6248    0.0000 C   0  0  0  0  0  0  0  0  0  0  0  0
    0.7269   -1.2123    0.0000 C   0  0  0  0  0  0  0  0  0  0  0  0
    0.0124   -1.6248    0.0000 O   0  0  0  0  0  0  0  0  0  0  0  0
    0.7269   -0.3873    0.0000 C   0  0  0  0  0  0  0  0  0  0  0  0
    1.4414    0.0252    0.0000 C   0  0  0  0  0  0  0  0  0  0  0  0
    2.1558   -0.3873    0.0000 C   0  0  0  0  0  0  0  0  0  0  0  0
    2.8703    0.0252    0.0000 C   0  0  0  0  0  0  0  0  0  0  0  0
    3.5848   -0.3873    0.0000 C   0  0  0  0  0  0  0  0  0  0  0  0
    3.5848   -1.2123    0.0000 C   0  0  0  0  0  0  0  0  0  0  0  0
    2.8703   -1.6248    0.0000 C   0  0  0  0  0  0  0  0  0  0  0  0
    2.1558   -1.2123    0.0000 C   0  0  0  0  0  0  0  0  0  0  0  0
    4.2993    0.0252    0.0000 S   0  0  0  0  0  0  0  0  0  0  0  0
    5.0137    0.4377    0.0000 O   0  0  0  0  0  0  0  0  0  0  0  0
    4.7118   -0.6893    0.0000 O   0  0  0  0  0  0  0  0  0  0  0  0
    3.8868    0.7397    0.0000 O   0  0  0  0  0  0  0  0  0  0  0  0
    2.8703   -4.0998    0.0000 C   0  0  0  0  0  0  0  0  0  0  0  0
    2.8703   -4.9248    0.0000 C   0  0  0  0  0  0  0  0  0  0  0  0
    1.4414   -7.3998    0.0000 H   0  0  0  0  0  0  0  0  0  0  0  0
    0.7269   -5.3373    0.0000 H   0  0  0  0  0  0  0  0  0  0  0  0
    0.7269   -3.6873    0.0000 H   0  0  0  0  0  0  0  0  0  0  0  0
    2.8703   -2.4498    0.0000 H   0  0  0  0  0  0  0  0  0  0  0  0
    0.0124    0.0252    0.0000 H   0  0  0  0  0  0  0  0  0  0  0  0
    1.4414    0.8502    0.0000 H   0  0  0  0  0  0  0  0  0  0  0  0
    2.8703    0.8502    0.0000 H   0  0  0  0  0  0  0  0  0  0  0  0
    4.2993   -1.6248    0.0000 H   0  0  0  0  0  0  0  0  0  0  0  0
    2.1558   -2.0373    0.0000 H   0  0  0  0  0  0  0  0  0  0  0  0
    5.7282    0.0252    0.0000 H   0  0  0  0  0  0  0  0  0  0  0  0
    3.5848   -3.6873    0.0000 H   0  0  0  0  0  0  0  0  0  0  0  0
    3.5848   -5.3373    0.0000 H   0  0  0  0  0  0  0  0  0  0  0  0
  1  2  1  0  0  0  0
  2  3  2  0  0  0  0
  2  4  2  0  0  0  0
  2  5  1  0  0  0  0
  5  6  4  0  0  0  0
  6  7  4  0  0  0  0
  7  8  4  0  0  0  0
  8  9  1  0  0  0  0
 10  9  1  4  0  0  0
 10 11  2  0  0  0  0
 11 12  1  0  0  0  0
 12 13  2  0  0  0  0
 12 14  1  0  0  0  0
 14 15  2  0  0  0  0
 15 16  1  0  0  0  0
 16 17  4  0  0  0  0
 17 18  4  0  0  0  0
 18 19  4  0  0  0  0
 19 20  4  0  0  0  0
 20 21  4  0  0  0  0
 11 21  1  0  0  0  0
 16 21  4  0  0  0  0
 18 22  1  0  0  0  0
 22 23  1  0  0  0  0
 22 24  2  0  0  0  0
 22 25  2  0  0  0  0
  8 26  4  0  0  0  0
 26 27  4  0  0  0  0
  5 27  4  0  0  0  0
  1 28  1  0  0  0  0
  6 29  1  0  0  0  0
  7 30  1  0  0  0  0
  9 31  1  0  0  0  0
 14 32  1  0  0  0  0
 15 33  1  0  0  0  0
 17 34  1  0  0  0  0
 19 35  1  0  0  0  0
 20 36  1  0  0  0  0
 23 37  1  0  0  0  0
 26 38  1  0  0  0  0
 27 39  1  0  0  0  0
M  END
>  <InChIKey>
InChI=1S/C16H12N2O7S2/c19-15-8-1-10-9-13(27(23,24)25)6-7-14(10)16(15)18-17-11-2-4-12(5-3-11)26(20,21)22/h1-9,17H,(H,20,21,22)(H,23,24,25)

>  <CASRN>
2783-94-0

> <Outcome>
1

>  <Index>
1225

>  <StandardizerResult>
Dearomatize (ID: Dearomatize)
Clear Stereo (ID: ClearStereo)
Wedge Clean (ID: WedgeClean)
Mesomerize (ID: Mesomerize)
Tautomerize (ID: Tautomerize)
Aromatize (ID: Aromatize)
Add Explicit Hydrogens (ID: AddExplicitH)
Neutralize (ID: Neutralize)
Clean 2D (ID: Clean2D)

> <knn Distance>


> <CpId>
1225

$$$$
1226
  Mrv1532301301811342D          

 28 28  0  0  0  0            999 V2000
    1.1295    2.2574    0.0000 C   0  0  0  0  0  0  0  0  0  0  0  0
    1.1295    1.4324    0.0000 C   0  0  0  0  0  0  0  0  0  0  0  0
    1.8440    1.0199    0.0000 C   0  0  0  0  0  0  0  0  0  0  0  0
    1.8440    0.1949    0.0000 C   0  0  0  0  0  0  0  0  0  0  0  0
    2.5585   -0.2176    0.0000 O   0  0  0  0  0  0  0  0  0  0  0  0
    1.1295   -0.2176    0.0000 C   0  0  0  0  0  0  0  0  0  0  0  0
    0.4151    0.1949    0.0000 C   0  0  0  0  0  0  0  0  0  0  0  0
    0.1329   -0.5804    0.0000 C   0  0  0  0  0  0  0  0  0  0  0  0
   -0.3974    0.3382    0.0000 C   0  0  0  0  0  0  0  0  0  0  0  0
    0.4151    1.0199    0.0000 C   0  0  0  0  0  0  0  0  0  0  0  0
    1.9545    2.2574    0.0000 H   0  0  0  0  0  0  0  0  0  0  0  0
    1.1295    3.0824    0.0000 H   0  0  0  0  0  0  0  0  0  0  0  0
    0.3045    2.2574    0.0000 H   0  0  0  0  0  0  0  0  0  0  0  0
    0.4151    1.8449    0.0000 H   0  0  0  0  0  0  0  0  0  0  0  0
    2.6676    1.0679    0.0000 H   0  0  0  0  0  0  0  0  0  0  0  0
    2.2974    1.7092    0.0000 H   0  0  0  0  0  0  0  0  0  0  0  0
    1.8440   -0.6301    0.0000 H   0  0  0  0  0  0  0  0  0  0  0  0
    3.3835   -0.2176    0.0000 H   0  0  0  0  0  0  0  0  0  0  0  0
    0.4976   -0.7479    0.0000 H   0  0  0  0  0  0  0  0  0  0  0  0
    0.9863   -1.0301    0.0000 H   0  0  0  0  0  0  0  0  0  0  0  0
   -0.4561   -0.0026    0.0000 H   0  0  0  0  0  0  0  0  0  0  0  0
   -0.6368   -0.8774    0.0000 H   0  0  0  0  0  0  0  0  0  0  0  0
    0.0848   -1.4039    0.0000 H   0  0  0  0  0  0  0  0  0  0  0  0
    0.0452    1.0344    0.0000 H   0  0  0  0  0  0  0  0  0  0  0  0
   -0.8720    1.0130    0.0000 H   0  0  0  0  0  0  0  0  0  0  0  0
   -1.2023    0.1571    0.0000 H   0  0  0  0  0  0  0  0  0  0  0  0
    1.1295    0.6074    0.0000 H   0  0  0  0  0  0  0  0  0  0  0  0
   -0.1567    1.6146    0.0000 H   0  0  0  0  0  0  0  0  0  0  0  0
  1  2  1  0  0  0  0
  2  3  1  0  0  0  0
  3  4  1  0  0  0  0
  4  5  1  0  0  0  0
  4  6  1  0  0  0  0
  6  7  1  0  0  0  0
  7  8  1  0  0  0  0
  7  9  1  0  0  0  0
  7 10  1  0  0  0  0
  2 10  1  0  0  0  0
  1 11  1  0  0  0  0
  1 12  1  0  0  0  0
  1 13  1  0  0  0  0
  2 14  1  0  0  0  0
  3 15  1  0  0  0  0
  3 16  1  0  0  0  0
  4 17  1  0  0  0  0
  5 18  1  0  0  0  0
  6 19  1  0  0  0  0
  6 20  1  0  0  0  0
  8 21  1  0  0  0  0
  8 22  1  0  0  0  0
  8 23  1  0  0  0  0
  9 24  1  0  0  0  0
  9 25  1  0  0  0  0
  9 26  1  0  0  0  0
 10 27  1  0  0  0  0
 10 28  1  0  0  0  0
M  END
>  <InChIKey>
InChI=1S/C9H18O/c1-7-4-8(10)6-9(2,3)5-7/h7-8,10H,4-6H2,1-3H3

>  <CASRN>
116-02-9

> <Outcome>
1

>  <Index>
1226

>  <StandardizerResult>
Clear Stereo (ID: ClearStereo)
Wedge Clean (ID: WedgeClean)
Mesomerize (ID: Mesomerize)
Tautomerize (ID: Tautomerize)
Add Explicit Hydrogens (ID: AddExplicitH)
Neutralize (ID: Neutralize)
Clean 2D (ID: Clean2D)

> <knn Distance>


> <CpId>
1226

$$$$
1227
  Mrv1532301301811342D          

 14 14  0  0  0  0            999 V2000
    0.7145    2.0625    0.0000 C   0  0  0  0  0  0  0  0  0  0  0  0
    0.7145    1.2375    0.0000 C   0  0  0  0  0  0  0  0  0  0  0  0
    1.4289    0.8250    0.0000 C   0  0  0  0  0  0  0  0  0  0  0  0
    1.4289   -0.0000    0.0000 C   0  0  0  0  0  0  0  0  0  0  0  0
    0.7145   -0.4125    0.0000 C   0  0  0  0  0  0  0  0  0  0  0  0
    0.0000   -0.0000    0.0000 C   0  0  0  0  0  0  0  0  0  0  0  0
    0.0000    0.8250    0.0000 N   0  0  0  0  0  0  0  0  0  0  0  0
    1.5395    2.0625    0.0000 H   0  0  0  0  0  0  0  0  0  0  0  0
    0.7145    2.8875    0.0000 H   0  0  0  0  0  0  0  0  0  0  0  0
   -0.1105    2.0625    0.0000 H   0  0  0  0  0  0  0  0  0  0  0  0
    2.1434    1.2375    0.0000 H   0  0  0  0  0  0  0  0  0  0  0  0
    2.1434   -0.4125    0.0000 H   0  0  0  0  0  0  0  0  0  0  0  0
    0.7145   -1.2375    0.0000 H   0  0  0  0  0  0  0  0  0  0  0  0
   -0.7145   -0.4125    0.0000 H   0  0  0  0  0  0  0  0  0  0  0  0
  1  2  1  0  0  0  0
  2  3  4  0  0  0  0
  3  4  4  0  0  0  0
  4  5  4  0  0  0  0
  5  6  4  0  0  0  0
  6  7  4  0  0  0  0
  2  7  4  0  0  0  0
  1  8  1  0  0  0  0
  1  9  1  0  0  0  0
  1 10  1  0  0  0  0
  3 11  1  0  0  0  0
  4 12  1  0  0  0  0
  5 13  1  0  0  0  0
  6 14  1  0  0  0  0
M  END
>  <InChIKey>
InChI=1S/C6H7N/c1-6-4-2-3-5-7-6/h2-5H,1H3

>  <CASRN>
109-06-8

> <Outcome>
1

>  <Index>
1227

>  <StandardizerResult>
Dearomatize (ID: Dearomatize)
Clear Stereo (ID: ClearStereo)
Wedge Clean (ID: WedgeClean)
Mesomerize (ID: Mesomerize)
Tautomerize (ID: Tautomerize)
Aromatize (ID: Aromatize)
Add Explicit Hydrogens (ID: AddExplicitH)
Neutralize (ID: Neutralize)
Clean 2D (ID: Clean2D)

> <knn Distance>


> <CpId>
1227

$$$$
1228
  Mrv1532301301811342D          

 15 14  0  0  0  0            999 V2000
    0.8513    1.4648    0.0000 C   0  0  0  0  0  0  0  0  0  0  0  0
    1.2638    0.7503    0.0000 C   0  0  0  0  0  0  0  0  0  0  0  0
    0.8513    0.0358    0.0000 C   0  0  0  0  0  0  0  0  0  0  0  0
    1.2638   -0.6786    0.0000 C   0  0  0  0  0  0  0  0  0  0  0  0
    0.0263    0.0358    0.0000 O   0  0  0  0  0  0  0  0  0  0  0  0
    1.5658    1.8773    0.0000 H   0  0  0  0  0  0  0  0  0  0  0  0
    0.4388    2.1792    0.0000 H   0  0  0  0  0  0  0  0  0  0  0  0
    0.1369    1.0523    0.0000 H   0  0  0  0  0  0  0  0  0  0  0  0
    2.0011    0.3800    0.0000 H   0  0  0  0  0  0  0  0  0  0  0  0
    2.0011    1.1206    0.0000 H   0  0  0  0  0  0  0  0  0  0  0  0
    1.6763    0.0358    0.0000 H   0  0  0  0  0  0  0  0  0  0  0  0
    0.4669   -0.8922    0.0000 H   0  0  0  0  0  0  0  0  0  0  0  0
    1.2638   -1.5036    0.0000 H   0  0  0  0  0  0  0  0  0  0  0  0
    2.0607   -0.8922    0.0000 H   0  0  0  0  0  0  0  0  0  0  0  0
   -0.3862    0.7503    0.0000 H   0  0  0  0  0  0  0  0  0  0  0  0
  1  2  1  0  0  0  0
  2  3  1  0  0  0  0
  3  4  1  0  0  0  0
  3  5  1  0  0  0  0
  1  6  1  0  0  0  0
  1  7  1  0  0  0  0
  1  8  1  0  0  0  0
  2  9  1  0  0  0  0
  2 10  1  0  0  0  0
  3 11  1  0  0  0  0
  4 12  1  0  0  0  0
  4 13  1  0  0  0  0
  4 14  1  0  0  0  0
  5 15  1  0  0  0  0
M  END
>  <InChIKey>
InChI=1S/C4H10O/c1-3-4(2)5/h4-5H,3H2,1-2H3

>  <CASRN>
78-92-2

> <Outcome>
1

>  <Index>
1228

>  <StandardizerResult>
Clear Stereo (ID: ClearStereo)
Wedge Clean (ID: WedgeClean)
Mesomerize (ID: Mesomerize)
Tautomerize (ID: Tautomerize)
Add Explicit Hydrogens (ID: AddExplicitH)
Neutralize (ID: Neutralize)
Clean 2D (ID: Clean2D)

> <knn Distance>


> <CpId>
1228

$$$$
1230
  Mrv1532301301811342D          

 16 15  0  0  0  0            999 V2000
    1.0461   -2.2539    0.0000 N   0  0  0  0  0  0  0  0  0  0  0  0
    1.7605   -1.8414    0.0000 C   0  0  0  0  0  0  0  0  0  0  0  0
    2.4750   -1.4289    0.0000 C   0  0  0  0  0  0  0  0  0  0  0  0
    3.1895   -1.8414    0.0000 C   0  0  0  0  0  0  0  0  0  0  0  0
    3.9039   -1.4289    0.0000 C   0  0  0  0  0  0  0  0  0  0  0  0
    4.6184   -1.8414    0.0000 C   0  0  0  0  0  0  0  0  0  0  0  0
    5.3329   -1.4289    0.0000 C   0  0  0  0  0  0  0  0  0  0  0  0
    6.0474   -1.0164    0.0000 N   0  0  0  0  0  0  0  0  0  0  0  0
    2.8453   -0.6917    0.0000 H   0  0  0  0  0  0  0  0  0  0  0  0
    2.1047   -0.6917    0.0000 H   0  0  0  0  0  0  0  0  0  0  0  0
    2.8192   -2.5786    0.0000 H   0  0  0  0  0  0  0  0  0  0  0  0
    3.5597   -2.5786    0.0000 H   0  0  0  0  0  0  0  0  0  0  0  0
    4.2742   -0.6917    0.0000 H   0  0  0  0  0  0  0  0  0  0  0  0
    3.5337   -0.6917    0.0000 H   0  0  0  0  0  0  0  0  0  0  0  0
    4.2482   -2.5786    0.0000 H   0  0  0  0  0  0  0  0  0  0  0  0
    4.9887   -2.5786    0.0000 H   0  0  0  0  0  0  0  0  0  0  0  0
  1  2  3  0  0  0  0
  2  3  1  0  0  0  0
  3  4  1  0  0  0  0
  4  5  1  0  0  0  0
  5  6  1  0  0  0  0
  6  7  1  0  0  0  0
  7  8  3  0  0  0  0
  3  9  1  0  0  0  0
  3 10  1  0  0  0  0
  4 11  1  0  0  0  0
  4 12  1  0  0  0  0
  5 13  1  0  0  0  0
  5 14  1  0  0  0  0
  6 15  1  0  0  0  0
  6 16  1  0  0  0  0
M  END
>  <InChIKey>
InChI=1S/C6H8N2/c7-5-3-1-2-4-6-8/h1-4H2

>  <CASRN>
111-69-3

> <Outcome>
1

>  <Index>
1230

>  <StandardizerResult>
Clear Stereo (ID: ClearStereo)
Wedge Clean (ID: WedgeClean)
Mesomerize (ID: Mesomerize)
Tautomerize (ID: Tautomerize)
Add Explicit Hydrogens (ID: AddExplicitH)
Neutralize (ID: Neutralize)
Clean 2D (ID: Clean2D)

> <knn Distance>


> <CpId>
1230

$$$$
1235
  Mrv1532301301811342D          

 10  9  0  0  0  0            999 V2000
    2.0616   -0.7160    0.0000 C   0  0  0  0  0  0  0  0  0  0  0  0
    1.2366   -0.7160    0.0000 C   0  0  0  0  0  0  0  0  0  0  0  0
    0.8241   -1.4305    0.0000 O   0  0  0  0  0  0  0  0  0  0  0  0
    0.8241   -0.0015    0.0000 C   0  0  0  0  0  0  0  0  0  0  0  0
   -0.0009   -0.0015    0.0000 Cl  0  0  0  0  0  0  0  0  0  0  0  0
    2.0616   -1.5410    0.0000 H   0  0  0  0  0  0  0  0  0  0  0  0
    2.8866   -0.7160    0.0000 H   0  0  0  0  0  0  0  0  0  0  0  0
    2.0616    0.1090    0.0000 H   0  0  0  0  0  0  0  0  0  0  0  0
    1.5134    0.4518    0.0000 H   0  0  0  0  0  0  0  0  0  0  0  0
    0.8721    0.8221    0.0000 H   0  0  0  0  0  0  0  0  0  0  0  0
  1  2  1  0  0  0  0
  2  3  2  0  0  0  0
  2  4  1  0  0  0  0
  4  5  1  0  0  0  0
  1  6  1  0  0  0  0
  1  7  1  0  0  0  0
  1  8  1  0  0  0  0
  4  9  1  0  0  0  0
  4 10  1  0  0  0  0
M  END
>  <InChIKey>
InChI=1S/C3H5ClO/c1-3(5)2-4/h2H2,1H3

>  <CASRN>
78-95-5

> <Outcome>
1

>  <Index>
1235

>  <StandardizerResult>
Clear Stereo (ID: ClearStereo)
Wedge Clean (ID: WedgeClean)
Mesomerize (ID: Mesomerize)
Tautomerize (ID: Tautomerize)
Add Explicit Hydrogens (ID: AddExplicitH)
Neutralize (ID: Neutralize)
Clean 2D (ID: Clean2D)

> <knn Distance>


> <CpId>
1235

$$$$
1236
  Mrv1532301301811342D          

 30 29  0  0  0  0            999 V2000
    5.3542   -2.1402    0.0000 C   0  0  0  0  0  0  0  0  0  0  0  0
    4.5292   -2.1402    0.0000 C   0  0  0  0  0  0  0  0  0  0  0  0
    4.1167   -1.4258    0.0000 O   0  0  0  0  0  0  0  0  0  0  0  0
    3.2917   -1.4258    0.0000 P   0  0  0  0  0  0  0  0  0  0  0  0
    3.2917   -0.6008    0.0000 S   0  0  0  0  0  0  0  0  0  0  0  0
    3.2917   -2.2508    0.0000 O   0  0  0  0  0  0  0  0  0  0  0  0
    2.5772   -2.6633    0.0000 C   0  0  0  0  0  0  0  0  0  0  0  0
    1.8627   -2.2508    0.0000 C   0  0  0  0  0  0  0  0  0  0  0  0
    2.4667   -1.4258    0.0000 S   0  0  0  0  0  0  0  0  0  0  0  0
    2.0542   -0.7113    0.0000 C   0  0  0  0  0  0  0  0  0  0  0  0
    1.2292   -0.7113    0.0000 S   0  0  0  0  0  0  0  0  0  0  0  0
    0.8167    0.0032    0.0000 C   0  0  0  0  0  0  0  0  0  0  0  0
   -0.0083    0.0032    0.0000 C   0  0  0  0  0  0  0  0  0  0  0  0
    5.3542   -2.9652    0.0000 H   0  0  0  0  0  0  0  0  0  0  0  0
    6.1792   -2.1402    0.0000 H   0  0  0  0  0  0  0  0  0  0  0  0
    5.3542   -1.3152    0.0000 H   0  0  0  0  0  0  0  0  0  0  0  0
    3.8399   -2.5936    0.0000 H   0  0  0  0  0  0  0  0  0  0  0  0
    4.4812   -2.9638    0.0000 H   0  0  0  0  0  0  0  0  0  0  0  0
    2.2069   -3.4005    0.0000 H   0  0  0  0  0  0  0  0  0  0  0  0
    2.9475   -3.4005    0.0000 H   0  0  0  0  0  0  0  0  0  0  0  0
    2.2752   -1.5363    0.0000 H   0  0  0  0  0  0  0  0  0  0  0  0
    1.1483   -1.8383    0.0000 H   0  0  0  0  0  0  0  0  0  0  0  0
    1.4502   -2.9652    0.0000 H   0  0  0  0  0  0  0  0  0  0  0  0
    2.7435   -0.2579    0.0000 H   0  0  0  0  0  0  0  0  0  0  0  0
    2.1021    0.1123    0.0000 H   0  0  0  0  0  0  0  0  0  0  0  0
    1.5060    0.4565    0.0000 H   0  0  0  0  0  0  0  0  0  0  0  0
    0.8646    0.8268    0.0000 H   0  0  0  0  0  0  0  0  0  0  0  0
   -0.0083    0.8282    0.0000 H   0  0  0  0  0  0  0  0  0  0  0  0
   -0.8333    0.0032    0.0000 H   0  0  0  0  0  0  0  0  0  0  0  0
   -0.0083   -0.8218    0.0000 H   0  0  0  0  0  0  0  0  0  0  0  0
  1  2  1  0  0  0  0
  2  3  1  0  0  0  0
  3  4  1  0  0  0  0
  4  5  2  0  0  0  0
  4  6  1  0  0  0  0
  6  7  1  0  0  0  0
  7  8  1  0  0  0  0
  4  9  1  0  0  0  0
  9 10  1  0  0  0  0
 10 11  1  0  0  0  0
 11 12  1  0  0  0  0
 12 13  1  0  0  0  0
  1 14  1  0  0  0  0
  1 15  1  0  0  0  0
  1 16  1  0  0  0  0
  2 17  1  0  0  0  0
  2 18  1  0  0  0  0
  7 19  1  0  0  0  0
  7 20  1  0  0  0  0
  8 21  1  0  0  0  0
  8 22  1  0  0  0  0
  8 23  1  0  0  0  0
 10 24  1  0  0  0  0
 10 25  1  0  0  0  0
 12 26  1  0  0  0  0
 12 27  1  0  0  0  0
 13 28  1  0  0  0  0
 13 29  1  0  0  0  0
 13 30  1  0  0  0  0
M  END
>  <InChIKey>
InChI=1S/C7H17O2PS3/c1-4-8-10(11,9-5-2)13-7-12-6-3/h4-7H2,1-3H3

>  <CASRN>
298-02-2

> <Outcome>
1

>  <Index>
1236

>  <StandardizerResult>
Clear Stereo (ID: ClearStereo)
Wedge Clean (ID: WedgeClean)
Mesomerize (ID: Mesomerize)
Tautomerize (ID: Tautomerize)
Add Explicit Hydrogens (ID: AddExplicitH)
Neutralize (ID: Neutralize)
Clean 2D (ID: Clean2D)

> <knn Distance>


> <CpId>
1236

$$$$
1237
  Mrv1532301301811342D          

 20 19  0  0  0  0            999 V2000
   -0.6039   -3.3000    0.0000 C   0  0  0  0  0  0  0  0  0  0  0  0
    0.1105   -2.8875    0.0000 O   0  0  0  0  0  0  0  0  0  0  0  0
    0.1105   -2.0625    0.0000 P   0  0  0  0  0  0  0  0  0  0  0  0
    0.9355   -2.0625    0.0000 O   0  0  0  0  0  0  0  0  0  0  0  0
   -0.7145   -2.0625    0.0000 O   0  0  0  0  0  0  0  0  0  0  0  0
   -1.1270   -1.3480    0.0000 C   0  0  0  0  0  0  0  0  0  0  0  0
    0.1105   -1.2375    0.0000 O   0  0  0  0  0  0  0  0  0  0  0  0
    0.8250   -0.8250    0.0000 C   0  0  0  0  0  0  0  0  0  0  0  0
    1.5395   -1.2375    0.0000 Br  0  0  0  0  0  0  0  0  0  0  0  0
    0.8250    0.0000    0.0000 C   0  0  0  0  0  0  0  0  0  0  0  0
    0.8250    0.8250    0.0000 Cl  0  0  0  0  0  0  0  0  0  0  0  0
    1.6500    0.0000    0.0000 Cl  0  0  0  0  0  0  0  0  0  0  0  0
   -0.0000    0.0000    0.0000 Br  0  0  0  0  0  0  0  0  0  0  0  0
   -1.0164   -2.5855    0.0000 H   0  0  0  0  0  0  0  0  0  0  0  0
   -1.3184   -3.7125    0.0000 H   0  0  0  0  0  0  0  0  0  0  0  0
   -0.1914   -4.0145    0.0000 H   0  0  0  0  0  0  0  0  0  0  0  0
   -0.4125   -0.9355    0.0000 H   0  0  0  0  0  0  0  0  0  0  0  0
   -1.5395   -0.6336    0.0000 H   0  0  0  0  0  0  0  0  0  0  0  0
   -1.8414   -1.7605    0.0000 H   0  0  0  0  0  0  0  0  0  0  0  0
    0.8250   -1.6500    0.0000 H   0  0  0  0  0  0  0  0  0  0  0  0
  1  2  1  0  0  0  0
  2  3  1  0  0  0  0
  3  4  2  0  0  0  0
  3  5  1  0  0  0  0
  5  6  1  0  0  0  0
  3  7  1  0  0  0  0
  7  8  1  0  0  0  0
  8  9  1  0  0  0  0
  8 10  1  0  0  0  0
 10 11  1  0  0  0  0
 10 12  1  0  0  0  0
 10 13  1  0  0  0  0
  1 14  1  0  0  0  0
  1 15  1  0  0  0  0
  1 16  1  0  0  0  0
  6 17  1  0  0  0  0
  6 18  1  0  0  0  0
  6 19  1  0  0  0  0
  8 20  1  0  0  0  0
M  END
>  <InChIKey>
InChI=1S/C4H7Br2Cl2O4P/c1-10-13(9,11-2)12-3(5)4(6,7)8/h3H,1-2H3

>  <CASRN>
300-76-5

> <Outcome>
1

>  <Index>
1237

>  <StandardizerResult>
Clear Stereo (ID: ClearStereo)
Wedge Clean (ID: WedgeClean)
Mesomerize (ID: Mesomerize)
Tautomerize (ID: Tautomerize)
Add Explicit Hydrogens (ID: AddExplicitH)
Neutralize (ID: Neutralize)
Clean 2D (ID: Clean2D)

> <knn Distance>


> <CpId>
1237

$$$$
1238
  Mrv1532301301811342D          

 28 27  0  0  0  0            999 V2000
    2.2420    2.1489    0.0000 C   0  0  0  0  0  0  0  0  0  0  0  0
    2.9565    2.5614    0.0000 C   0  0  0  0  0  0  0  0  0  0  0  0
    2.9565    3.3864    0.0000 C   0  0  0  0  0  0  0  0  0  0  0  0
    3.6709    2.1489    0.0000 O   0  0  0  0  0  0  0  0  0  0  0  0
    4.3854    2.5614    0.0000 C   0  0  0  0  0  0  0  0  0  0  0  0
    4.3854    3.3864    0.0000 O   0  0  0  0  0  0  0  0  0  0  0  0
    5.0999    2.1489    0.0000 O   0  0  0  0  0  0  0  0  0  0  0  0
    5.8144    2.5614    0.0000 O   0  0  0  0  0  0  0  0  0  0  0  0
    6.5288    2.1489    0.0000 C   0  0  0  0  0  0  0  0  0  0  0  0
    6.5288    1.3239    0.0000 O   0  0  0  0  0  0  0  0  0  0  0  0
    7.2433    2.5614    0.0000 O   0  0  0  0  0  0  0  0  0  0  0  0
    7.9578    2.1489    0.0000 C   0  0  0  0  0  0  0  0  0  0  0  0
    8.6722    2.5614    0.0000 C   0  0  0  0  0  0  0  0  0  0  0  0
    7.9578    1.3239    0.0000 C   0  0  0  0  0  0  0  0  0  0  0  0
    1.8295    2.8633    0.0000 H   0  0  0  0  0  0  0  0  0  0  0  0
    1.5275    1.7364    0.0000 H   0  0  0  0  0  0  0  0  0  0  0  0
    2.6545    1.4344    0.0000 H   0  0  0  0  0  0  0  0  0  0  0  0
    2.2420    2.9739    0.0000 H   0  0  0  0  0  0  0  0  0  0  0  0
    3.7534    3.1728    0.0000 H   0  0  0  0  0  0  0  0  0  0  0  0
    3.3690    4.1008    0.0000 H   0  0  0  0  0  0  0  0  0  0  0  0
    2.3731    3.9697    0.0000 H   0  0  0  0  0  0  0  0  0  0  0  0
    7.9578    2.9739    0.0000 H   0  0  0  0  0  0  0  0  0  0  0  0
    8.8858    1.7645    0.0000 H   0  0  0  0  0  0  0  0  0  0  0  0
    9.4972    2.5614    0.0000 H   0  0  0  0  0  0  0  0  0  0  0  0
    8.8858    3.3583    0.0000 H   0  0  0  0  0  0  0  0  0  0  0  0
    7.1328    1.3239    0.0000 H   0  0  0  0  0  0  0  0  0  0  0  0
    7.9578    0.4989    0.0000 H   0  0  0  0  0  0  0  0  0  0  0  0
    8.7828    1.3239    0.0000 H   0  0  0  0  0  0  0  0  0  0  0  0
  1  2  1  0  0  0  0
  2  3  1  0  0  0  0
  2  4  1  0  0  0  0
  4  5  1  0  0  0  0
  5  6  2  0  0  0  0
  5  7  1  0  0  0  0
  7  8  1  0  0  0  0
  8  9  1  0  0  0  0
  9 10  2  0  0  0  0
  9 11  1  0  0  0  0
 11 12  1  0  0  0  0
 12 13  1  0  0  0  0
 12 14  1  0  0  0  0
  1 15  1  0  0  0  0
  1 16  1  0  0  0  0
  1 17  1  0  0  0  0
  2 18  1  0  0  0  0
  3 19  1  0  0  0  0
  3 20  1  0  0  0  0
  3 21  1  0  0  0  0
 12 22  1  0  0  0  0
 13 23  1  0  0  0  0
 13 24  1  0  0  0  0
 13 25  1  0  0  0  0
 14 26  1  0  0  0  0
 14 27  1  0  0  0  0
 14 28  1  0  0  0  0
M  END
>  <InChIKey>
InChI=1S/C8H14O6/c1-5(2)11-7(9)13-14-8(10)12-6(3)4/h5-6H,1-4H3

>  <CASRN>
105-64-6

> <Outcome>
1

>  <Index>
1238

>  <StandardizerResult>
Clear Stereo (ID: ClearStereo)
Wedge Clean (ID: WedgeClean)
Mesomerize (ID: Mesomerize)
Tautomerize (ID: Tautomerize)
Add Explicit Hydrogens (ID: AddExplicitH)
Neutralize (ID: Neutralize)
Clean 2D (ID: Clean2D)

> <knn Distance>


> <CpId>
1238

$$$$
1239
  Mrv1532301301811342D          

 15 14  0  0  0  0            999 V2000
    1.6430    1.4896    0.0000 C   0  0  0  0  0  0  0  0  0  0  0  0
    1.2305    0.7752    0.0000 C   0  0  0  0  0  0  0  0  0  0  0  0
    0.5160    1.1877    0.0000 C   0  0  0  0  0  0  0  0  0  0  0  0
    1.9449    0.3627    0.0000 O   0  0  0  0  0  0  0  0  0  0  0  0
    0.8180    0.0607    0.0000 C   0  0  0  0  0  0  0  0  0  0  0  0
    1.2305   -0.6538    0.0000 O   0  0  0  0  0  0  0  0  0  0  0  0
   -0.0070    0.0607    0.0000 O   0  0  0  0  0  0  0  0  0  0  0  0
    2.3574    1.0771    0.0000 H   0  0  0  0  0  0  0  0  0  0  0  0
    2.0555    2.2041    0.0000 H   0  0  0  0  0  0  0  0  0  0  0  0
    0.9285    1.9021    0.0000 H   0  0  0  0  0  0  0  0  0  0  0  0
    0.0138    1.8422    0.0000 H   0  0  0  0  0  0  0  0  0  0  0  0
   -0.2809    0.9741    0.0000 H   0  0  0  0  0  0  0  0  0  0  0  0
    0.4083    0.3697    0.0000 H   0  0  0  0  0  0  0  0  0  0  0  0
    2.1585   -0.4342    0.0000 H   0  0  0  0  0  0  0  0  0  0  0  0
    0.9035   -1.4112    0.0000 H   0  0  0  0  0  0  0  0  0  0  0  0
  1  2  1  0  0  0  0
  2  3  1  0  0  0  0
  2  4  1  0  0  0  0
  2  5  1  0  0  0  0
  5  6  1  0  0  0  0
  5  7  2  0  0  0  0
  1  8  1  0  0  0  0
  1  9  1  0  0  0  0
  1 10  1  0  0  0  0
  3 11  1  0  0  0  0
  3 12  1  0  0  0  0
  3 13  1  0  0  0  0
  4 14  1  0  0  0  0
  6 15  1  0  0  0  0
M  END
>  <InChIKey>
InChI=1S/C4H8O3/c1-4(2,7)3(5)6/h7H,1-2H3,(H,5,6)

>  <UN GHS>
1

>  <CASRN>
594-61-6

> <Outcome>
1

>  <Index>
1239

>  <StandardizerResult>
Clear Stereo (ID: ClearStereo)
Wedge Clean (ID: WedgeClean)
Mesomerize (ID: Mesomerize)
Tautomerize (ID: Tautomerize)
Add Explicit Hydrogens (ID: AddExplicitH)
Neutralize (ID: Neutralize)
Clean 2D (ID: Clean2D)

> <knn Distance>


> <CpId>
1239

$$$$
1243
  Mrv1532301301811342D          

 16 16  0  0  0  0            999 V2000
    0.7145    2.0625    0.0000 N   0  0  0  0  0  0  0  0  0  0  0  0
    0.7145    1.2375    0.0000 C   0  0  0  0  0  0  0  0  0  0  0  0
    1.4289    0.8250    0.0000 C   0  0  0  0  0  0  0  0  0  0  0  0
    1.4289   -0.0000    0.0000 C   0  0  0  0  0  0  0  0  0  0  0  0
    0.7145   -0.4125    0.0000 C   0  0  0  0  0  0  0  0  0  0  0  0
    0.7145   -1.2375    0.0000 Cl  0  0  0  0  0  0  0  0  0  0  0  0
   -0.0000   -0.0000    0.0000 C   0  0  0  0  0  0  0  0  0  0  0  0
   -0.0000    0.8250    0.0000 C   0  0  0  0  0  0  0  0  0  0  0  0
   -0.7145    1.2375    0.0000 N   0  0  0  0  0  0  0  0  0  0  0  0
    1.4289    2.4750    0.0000 H   0  0  0  0  0  0  0  0  0  0  0  0
   -0.0000    2.4750    0.0000 H   0  0  0  0  0  0  0  0  0  0  0  0
    2.1434    1.2375    0.0000 H   0  0  0  0  0  0  0  0  0  0  0  0
    2.1434   -0.4125    0.0000 H   0  0  0  0  0  0  0  0  0  0  0  0
   -0.7145   -0.4125    0.0000 H   0  0  0  0  0  0  0  0  0  0  0  0
   -0.7145    2.0625    0.0000 H   0  0  0  0  0  0  0  0  0  0  0  0
   -1.4289    0.8250    0.0000 H   0  0  0  0  0  0  0  0  0  0  0  0
  1  2  1  0  0  0  0
  2  3  4  0  0  0  0
  3  4  4  0  0  0  0
  4  5  4  0  0  0  0
  5  6  1  0  0  0  0
  5  7  4  0  0  0  0
  7  8  4  0  0  0  0
  2  8  4  0  0  0  0
  8  9  1  0  0  0  0
  1 10  1  0  0  0  0
  1 11  1  0  0  0  0
  3 12  1  0  0  0  0
  4 13  1  0  0  0  0
  7 14  1  0  0  0  0
  9 15  1  0  0  0  0
  9 16  1  0  0  0  0
M  END
>  <InChIKey>
InChI=1S/C6H7ClN2/c7-4-1-2-5(8)6(9)3-4/h1-3H,8-9H2

>  <CASRN>
95-83-0

> <Outcome>
1

>  <Index>
1243

>  <StandardizerResult>
Dearomatize (ID: Dearomatize)
Clear Stereo (ID: ClearStereo)
Wedge Clean (ID: WedgeClean)
Mesomerize (ID: Mesomerize)
Tautomerize (ID: Tautomerize)
Aromatize (ID: Aromatize)
Add Explicit Hydrogens (ID: AddExplicitH)
Neutralize (ID: Neutralize)
Clean 2D (ID: Clean2D)

> <knn Distance>


> <CpId>
1243

$$$$
1244
  Mrv1532301301811342D          

 38 39  0  0  0  0            999 V2000
   -0.7112   -4.5314    0.0000 C   0  0  0  0  0  0  0  0  0  0  0  0
   -0.7112   -3.7064    0.0000 C   0  0  0  0  0  0  0  0  0  0  0  0
    0.0033   -3.2939    0.0000 O   0  0  0  0  0  0  0  0  0  0  0  0
    0.0033   -2.4689    0.0000 P   0  0  0  0  0  0  0  0  0  0  0  0
    0.8283   -2.4689    0.0000 S   0  0  0  0  0  0  0  0  0  0  0  0
   -0.8217   -2.4689    0.0000 O   0  0  0  0  0  0  0  0  0  0  0  0
   -1.2342   -1.7544    0.0000 C   0  0  0  0  0  0  0  0  0  0  0  0
   -0.8217   -1.0400    0.0000 C   0  0  0  0  0  0  0  0  0  0  0  0
    0.0033   -1.6439    0.0000 O   0  0  0  0  0  0  0  0  0  0  0  0
    0.7178   -1.2314    0.0000 C   0  0  0  0  0  0  0  0  0  0  0  0
    0.7178   -0.4064    0.0000 C   0  0  0  0  0  0  0  0  0  0  0  0
    1.4322    0.0061    0.0000 C   0  0  0  0  0  0  0  0  0  0  0  0
    2.1467   -0.4064    0.0000 C   0  0  0  0  0  0  0  0  0  0  0  0
    2.8612    0.0061    0.0000 C   0  0  0  0  0  0  0  0  0  0  0  0
    2.8612    0.8311    0.0000 C   0  0  0  0  0  0  0  0  0  0  0  0
    3.5757   -0.4064    0.0000 C   0  0  0  0  0  0  0  0  0  0  0  0
    4.2901    0.0061    0.0000 Cl  0  0  0  0  0  0  0  0  0  0  0  0
    3.5757   -1.2314    0.0000 C   0  0  0  0  0  0  0  0  0  0  0  0
    4.2901   -1.6439    0.0000 O   0  0  0  0  0  0  0  0  0  0  0  0
    2.8612   -1.6439    0.0000 O   0  0  0  0  0  0  0  0  0  0  0  0
    2.1467   -1.2314    0.0000 C   0  0  0  0  0  0  0  0  0  0  0  0
    1.4322   -1.6439    0.0000 C   0  0  0  0  0  0  0  0  0  0  0  0
   -1.5362   -4.5314    0.0000 H   0  0  0  0  0  0  0  0  0  0  0  0
   -0.7112   -5.3564    0.0000 H   0  0  0  0  0  0  0  0  0  0  0  0
    0.1138   -4.5314    0.0000 H   0  0  0  0  0  0  0  0  0  0  0  0
   -1.1645   -3.0171    0.0000 H   0  0  0  0  0  0  0  0  0  0  0  0
   -1.5348   -3.6584    0.0000 H   0  0  0  0  0  0  0  0  0  0  0  0
   -1.9715   -1.3842    0.0000 H   0  0  0  0  0  0  0  0  0  0  0  0
   -1.9715   -2.1247    0.0000 H   0  0  0  0  0  0  0  0  0  0  0  0
   -0.1072   -1.4525    0.0000 H   0  0  0  0  0  0  0  0  0  0  0  0
   -0.4092   -0.3255    0.0000 H   0  0  0  0  0  0  0  0  0  0  0  0
   -1.5362   -0.6275    0.0000 H   0  0  0  0  0  0  0  0  0  0  0  0
    0.0033    0.0061    0.0000 H   0  0  0  0  0  0  0  0  0  0  0  0
    1.4322    0.8311    0.0000 H   0  0  0  0  0  0  0  0  0  0  0  0
    3.6862    0.8311    0.0000 H   0  0  0  0  0  0  0  0  0  0  0  0
    2.8612    1.6561    0.0000 H   0  0  0  0  0  0  0  0  0  0  0  0
    2.0362    0.8311    0.0000 H   0  0  0  0  0  0  0  0  0  0  0  0
    1.4322   -2.4689    0.0000 H   0  0  0  0  0  0  0  0  0  0  0  0
  1  2  1  0  0  0  0
  2  3  1  0  0  0  0
  3  4  1  0  0  0  0
  4  5  2  0  0  0  0
  4  6  1  0  0  0  0
  6  7  1  0  0  0  0
  7  8  1  0  0  0  0
  4  9  1  0  0  0  0
  9 10  1  0  0  0  0
 10 11  4  0  0  0  0
 11 12  4  0  0  0  0
 12 13  4  0  0  0  0
 13 14  1  0  0  0  0
 14 15  1  0  0  0  0
 14 16  2  0  0  0  0
 16 17  1  0  0  0  0
 16 18  1  0  0  0  0
 18 19  2  0  0  0  0
 18 20  1  0  0  0  0
 20 21  1  0  0  0  0
 13 21  4  0  0  0  0
 21 22  4  0  0  0  0
 10 22  4  0  0  0  0
  1 23  1  0  0  0  0
  1 24  1  0  0  0  0
  1 25  1  0  0  0  0
  2 26  1  0  0  0  0
  2 27  1  0  0  0  0
  7 28  1  0  0  0  0
  7 29  1  0  0  0  0
  8 30  1  0  0  0  0
  8 31  1  0  0  0  0
  8 32  1  0  0  0  0
 11 33  1  0  0  0  0
 12 34  1  0  0  0  0
 15 35  1  0  0  0  0
 15 36  1  0  0  0  0
 15 37  1  0  0  0  0
 22 38  1  0  0  0  0
M  END
>  <InChIKey>
InChI=1S/C14H16ClO5PS/c1-4-17-21(22,18-5-2)20-10-6-7-11-9(3)13(15)14(16)19-12(11)8-10/h6-8H,4-5H2,1-3H3

>  <CASRN>
56-72-4

> <Outcome>
1

>  <Index>
1244

>  <StandardizerResult>
Dearomatize (ID: Dearomatize)
Clear Stereo (ID: ClearStereo)
Wedge Clean (ID: WedgeClean)
Mesomerize (ID: Mesomerize)
Tautomerize (ID: Tautomerize)
Aromatize (ID: Aromatize)
Add Explicit Hydrogens (ID: AddExplicitH)
Neutralize (ID: Neutralize)
Clean 2D (ID: Clean2D)

> <knn Distance>


> <CpId>
1244

$$$$
1248
  Mrv1532301301811342D          

 24 25  0  0  0  0            999 V2000
    2.1776   -0.3745    0.0000 O   0  0  0  0  0  0  0  0  0  0  0  0
    2.1776   -1.1995    0.0000 C   0  0  0  0  0  0  0  0  0  0  0  0
    2.8921   -1.6120    0.0000 C   0  0  0  0  0  0  0  0  0  0  0  0
    2.8921   -2.4370    0.0000 C   0  0  0  0  0  0  0  0  0  0  0  0
    3.6065   -2.8495    0.0000 Cl  0  0  0  0  0  0  0  0  0  0  0  0
    2.1776   -2.8495    0.0000 C   0  0  0  0  0  0  0  0  0  0  0  0
    1.4631   -2.4370    0.0000 C   0  0  0  0  0  0  0  0  0  0  0  0
    1.4631   -1.6120    0.0000 C   0  0  0  0  0  0  0  0  0  0  0  0
    0.7487   -1.1995    0.0000 O   0  0  0  0  0  0  0  0  0  0  0  0
    0.7487   -0.3745    0.0000 C   0  0  0  0  0  0  0  0  0  0  0  0
    0.0342    0.0380    0.0000 C   0  0  0  0  0  0  0  0  0  0  0  0
    0.0342    0.8630    0.0000 C   0  0  0  0  0  0  0  0  0  0  0  0
    0.7487    1.2755    0.0000 C   0  0  0  0  0  0  0  0  0  0  0  0
    0.7487    2.1005    0.0000 Cl  0  0  0  0  0  0  0  0  0  0  0  0
    1.4631    0.8630    0.0000 C   0  0  0  0  0  0  0  0  0  0  0  0
    1.4631    0.0380    0.0000 C   0  0  0  0  0  0  0  0  0  0  0  0
    2.8921    0.0380    0.0000 H   0  0  0  0  0  0  0  0  0  0  0  0
    3.6065   -1.1995    0.0000 H   0  0  0  0  0  0  0  0  0  0  0  0
    2.1776   -3.6745    0.0000 H   0  0  0  0  0  0  0  0  0  0  0  0
    0.7487   -2.8495    0.0000 H   0  0  0  0  0  0  0  0  0  0  0  0
   -0.6803   -0.3745    0.0000 H   0  0  0  0  0  0  0  0  0  0  0  0
   -0.6803    1.2755    0.0000 H   0  0  0  0  0  0  0  0  0  0  0  0
    2.1776    1.2755    0.0000 H   0  0  0  0  0  0  0  0  0  0  0  0
    1.4631   -0.7870    0.0000 H   0  0  0  0  0  0  0  0  0  0  0  0
  1  2  1  0  0  0  0
  2  3  4  0  0  0  0
  3  4  4  0  0  0  0
  4  5  1  0  0  0  0
  4  6  4  0  0  0  0
  6  7  4  0  0  0  0
  7  8  4  0  0  0  0
  2  8  4  0  0  0  0
  8  9  1  0  0  0  0
  9 10  1  0  0  0  0
 10 11  4  0  0  0  0
 11 12  4  0  0  0  0
 12 13  4  0  0  0  0
 13 14  1  0  0  0  0
 13 15  4  0  0  0  0
 15 16  4  0  0  0  0
 10 16  4  0  0  0  0
  1 17  1  0  0  0  0
  3 18  1  0  0  0  0
  6 19  1  0  0  0  0
  7 20  1  0  0  0  0
 11 21  1  0  0  0  0
 12 22  1  0  0  0  0
 15 23  1  0  0  0  0
 16 24  1  0  0  0  0
M  END
>  <InChIKey>
InChI=1S/C12H8Cl2O2/c13-8-1-4-10(5-2-8)16-12-6-3-9(14)7-11(12)15/h1-7,15H

>  <UN GHS>
1

>  <CASRN>
3380-30-1

> <Outcome>
1

>  <Index>
1248

>  <StandardizerResult>
Dearomatize (ID: Dearomatize)
Clear Stereo (ID: ClearStereo)
Wedge Clean (ID: WedgeClean)
Mesomerize (ID: Mesomerize)
Tautomerize (ID: Tautomerize)
Aromatize (ID: Aromatize)
Add Explicit Hydrogens (ID: AddExplicitH)
Neutralize (ID: Neutralize)
Clean 2D (ID: Clean2D)

> <knn Distance>


> <CpId>
1248

$$$$
1251
  Mrv1532301301811342D          

 19 19  0  0  0  0            999 V2000
    1.2822    3.1768    0.0000 C   0  0  0  0  0  0  0  0  0  0  0  0
    1.2822    2.3518    0.0000 C   0  0  0  0  0  0  0  0  0  0  0  0
    1.9967    1.9393    0.0000 O   0  0  0  0  0  0  0  0  0  0  0  0
    0.5678    1.9393    0.0000 N   0  0  0  0  0  0  0  0  0  0  0  0
    0.5678    1.1143    0.0000 C   0  0  0  0  0  0  0  0  0  0  0  0
    1.2352    0.6294    0.0000 N   0  0  0  0  0  0  0  0  0  0  0  0
    0.9803   -0.1552    0.0000 N   0  0  0  0  0  0  0  0  0  0  0  0
    0.1553   -0.1552    0.0000 C   0  0  0  0  0  0  0  0  0  0  0  0
   -0.0997    0.6294    0.0000 S   0  0  0  0  0  0  0  0  0  0  0  0
   -0.3297   -0.8227    0.0000 S   0  0  0  0  0  0  0  0  0  0  0  0
   -0.8146   -1.4901    0.0000 N   0  0  0  0  0  0  0  0  0  0  0  0
   -0.9971   -0.3378    0.0000 O   0  0  0  0  0  0  0  0  0  0  0  0
    0.3378   -1.3076    0.0000 O   0  0  0  0  0  0  0  0  0  0  0  0
    2.1072    3.1768    0.0000 H   0  0  0  0  0  0  0  0  0  0  0  0
    1.2822    4.0018    0.0000 H   0  0  0  0  0  0  0  0  0  0  0  0
    0.4572    3.1768    0.0000 H   0  0  0  0  0  0  0  0  0  0  0  0
   -0.1467    2.3518    0.0000 H   0  0  0  0  0  0  0  0  0  0  0  0
   -1.6351   -1.4039    0.0000 H   0  0  0  0  0  0  0  0  0  0  0  0
   -0.4790   -2.2438    0.0000 H   0  0  0  0  0  0  0  0  0  0  0  0
  1  2  1  0  0  0  0
  2  3  2  0  0  0  0
  2  4  1  0  0  0  0
  4  5  1  0  0  0  0
  5  6  4  0  0  0  0
  6  7  4  0  0  0  0
  7  8  4  0  0  0  0
  8  9  4  0  0  0  0
  5  9  4  0  0  0  0
  8 10  1  0  0  0  0
 10 11  1  0  0  0  0
 10 12  2  0  0  0  0
 10 13  2  0  0  0  0
  1 14  1  0  0  0  0
  1 15  1  0  0  0  0
  1 16  1  0  0  0  0
  4 17  1  0  0  0  0
 11 18  1  0  0  0  0
 11 19  1  0  0  0  0
M  END
>  <InChIKey>
InChI=1S/C4H6N4O3S2/c1-2(9)6-3-7-8-4(12-3)13(5,10)11/h1H3,(H2,5,10,11)(H,6,7,9)

>  <CASRN>
59-66-5

> <Outcome>
1

>  <Index>
1251

>  <StandardizerResult>
Dearomatize (ID: Dearomatize)
Clear Stereo (ID: ClearStereo)
Wedge Clean (ID: WedgeClean)
Mesomerize (ID: Mesomerize)
Tautomerize (ID: Tautomerize)
Aromatize (ID: Aromatize)
Add Explicit Hydrogens (ID: AddExplicitH)
Neutralize (ID: Neutralize)
Clean 2D (ID: Clean2D)

> <knn Distance>


> <CpId>
1251

$$$$
1254
  Mrv1532301301811342D          

 12 11  0  0  0  0            999 V2000
   -0.1914    0.7130    0.0000 Cl  0  0  0  0  0  0  0  0  0  0  0  0
    0.5230    1.1255    0.0000 C   0  0  0  0  0  0  0  0  0  0  0  0
    0.5230    1.9505    0.0000 O   0  0  0  0  0  0  0  0  0  0  0  0
    1.2375    0.7130    0.0000 O   0  0  0  0  0  0  0  0  0  0  0  0
    1.9520    1.1255    0.0000 C   0  0  0  0  0  0  0  0  0  0  0  0
    2.6664    0.7130    0.0000 C   0  0  0  0  0  0  0  0  0  0  0  0
    3.3809    1.1255    0.0000 C   0  0  0  0  0  0  0  0  0  0  0  0
    2.3222    1.8628    0.0000 H   0  0  0  0  0  0  0  0  0  0  0  0
    1.5817    1.8628    0.0000 H   0  0  0  0  0  0  0  0  0  0  0  0
    2.6664   -0.1120    0.0000 H   0  0  0  0  0  0  0  0  0  0  0  0
    4.0954    0.7130    0.0000 H   0  0  0  0  0  0  0  0  0  0  0  0
    3.3809    1.9505    0.0000 H   0  0  0  0  0  0  0  0  0  0  0  0
  1  2  1  0  0  0  0
  2  3  2  0  0  0  0
  2  4  1  0  0  0  0
  4  5  1  0  0  0  0
  5  6  1  0  0  0  0
  6  7  2  0  0  0  0
  5  8  1  0  0  0  0
  5  9  1  0  0  0  0
  6 10  1  0  0  0  0
  7 11  1  0  0  0  0
  7 12  1  0  0  0  0
M  END
>  <InChIKey>
InChI=1S/C4H5ClO2/c1-2-3-7-4(5)6/h2H,1,3H2

>  <CASRN>
2937-50-0

> <Outcome>
1

>  <Index>
1254

>  <StandardizerResult>
Clear Stereo (ID: ClearStereo)
Wedge Clean (ID: WedgeClean)
Mesomerize (ID: Mesomerize)
Tautomerize (ID: Tautomerize)
Add Explicit Hydrogens (ID: AddExplicitH)
Neutralize (ID: Neutralize)
Clean 2D (ID: Clean2D)

> <knn Distance>


> <CpId>
1254

$$$$
1256
  Mrv1532301301811342D          

 17 16  0  0  0  0            999 V2000
    1.7605    1.8424    0.0000 C   0  0  0  0  0  0  0  0  0  0  0  0
    2.4750    1.4299    0.0000 C   0  0  0  0  0  0  0  0  0  0  0  0
    3.1895    1.8424    0.0000 O   0  0  0  0  0  0  0  0  0  0  0  0
    3.9039    1.4299    0.0000 C   0  0  0  0  0  0  0  0  0  0  0  0
    3.9039    0.6049    0.0000 O   0  0  0  0  0  0  0  0  0  0  0  0
    4.6184    1.8424    0.0000 N   0  0  0  0  0  0  0  0  0  0  0  0
    4.6184    2.6674    0.0000 C   0  0  0  0  0  0  0  0  0  0  0  0
    5.3329    1.4299    0.0000 N   0  0  0  0  0  0  0  0  0  0  0  0
    6.0473    1.8424    0.0000 O   0  0  0  0  0  0  0  0  0  0  0  0
    2.1730    2.5569    0.0000 H   0  0  0  0  0  0  0  0  0  0  0  0
    1.0460    2.2549    0.0000 H   0  0  0  0  0  0  0  0  0  0  0  0
    1.3480    1.1280    0.0000 H   0  0  0  0  0  0  0  0  0  0  0  0
    2.1047    0.6927    0.0000 H   0  0  0  0  0  0  0  0  0  0  0  0
    2.8452    0.6927    0.0000 H   0  0  0  0  0  0  0  0  0  0  0  0
    5.4434    2.6674    0.0000 H   0  0  0  0  0  0  0  0  0  0  0  0
    4.6184    3.4924    0.0000 H   0  0  0  0  0  0  0  0  0  0  0  0
    3.7934    2.6674    0.0000 H   0  0  0  0  0  0  0  0  0  0  0  0
  1  2  1  0  0  0  0
  2  3  1  0  0  0  0
  3  4  1  0  0  0  0
  4  5  2  0  0  0  0
  4  6  1  0  0  0  0
  6  7  1  0  0  0  0
  6  8  1  0  0  0  0
  8  9  2  0  0  0  0
  1 10  1  0  0  0  0
  1 11  1  0  0  0  0
  1 12  1  0  0  0  0
  2 13  1  0  0  0  0
  2 14  1  0  0  0  0
  7 15  1  0  0  0  0
  7 16  1  0  0  0  0
  7 17  1  0  0  0  0
M  END
>  <InChIKey>
InChI=1S/C4H8N2O3/c1-3-9-4(7)6(2)5-8/h3H2,1-2H3

>  <CASRN>
615-53-2

> <Outcome>
1

>  <Index>
1256

>  <StandardizerResult>
Clear Stereo (ID: ClearStereo)
Wedge Clean (ID: WedgeClean)
Mesomerize (ID: Mesomerize)
Tautomerize (ID: Tautomerize)
Add Explicit Hydrogens (ID: AddExplicitH)
Neutralize (ID: Neutralize)
Clean 2D (ID: Clean2D)

> <knn Distance>


> <CpId>
1256

$$$$
1257
  Mrv1532301301811342D          

 16 16  0  0  0  0            999 V2000
    0.7145    2.0625    0.0000 N   0  0  0  0  0  0  0  0  0  0  0  0
    0.7145    1.2375    0.0000 C   0  0  0  0  0  0  0  0  0  0  0  0
    1.4289    0.8250    0.0000 C   0  0  0  0  0  0  0  0  0  0  0  0
    1.4289   -0.0000    0.0000 C   0  0  0  0  0  0  0  0  0  0  0  0
    0.7145   -0.4125    0.0000 C   0  0  0  0  0  0  0  0  0  0  0  0
    0.7145   -1.2375    0.0000 N   0  0  0  0  0  0  0  0  0  0  0  0
    0.0000    0.0000    0.0000 C   0  0  0  0  0  0  0  0  0  0  0  0
    0.0000    0.8250    0.0000 C   0  0  0  0  0  0  0  0  0  0  0  0
    1.4289    2.4750    0.0000 H   0  0  0  0  0  0  0  0  0  0  0  0
    0.0000    2.4750    0.0000 H   0  0  0  0  0  0  0  0  0  0  0  0
    2.1434    1.2375    0.0000 H   0  0  0  0  0  0  0  0  0  0  0  0
    2.1434   -0.4125    0.0000 H   0  0  0  0  0  0  0  0  0  0  0  0
    0.0000   -1.6500    0.0000 H   0  0  0  0  0  0  0  0  0  0  0  0
    1.4289   -1.6500    0.0000 H   0  0  0  0  0  0  0  0  0  0  0  0
   -0.7145   -0.4125    0.0000 H   0  0  0  0  0  0  0  0  0  0  0  0
   -0.7145    1.2375    0.0000 H   0  0  0  0  0  0  0  0  0  0  0  0
  1  2  1  0  0  0  0
  2  3  4  0  0  0  0
  3  4  4  0  0  0  0
  4  5  4  0  0  0  0
  5  6  1  0  0  0  0
  5  7  4  0  0  0  0
  7  8  4  0  0  0  0
  2  8  4  0  0  0  0
  1  9  1  0  0  0  0
  1 10  1  0  0  0  0
  3 11  1  0  0  0  0
  4 12  1  0  0  0  0
  6 13  1  0  0  0  0
  6 14  1  0  0  0  0
  7 15  1  0  0  0  0
  8 16  1  0  0  0  0
M  END
>  <InChIKey>
InChI=1S/C6H8N2/c7-5-1-2-6(8)4-3-5/h1-4H,7-8H2

>  <CASRN>
106-50-3

> <Outcome>
1

>  <Index>
1257

>  <StandardizerResult>
Dearomatize (ID: Dearomatize)
Clear Stereo (ID: ClearStereo)
Wedge Clean (ID: WedgeClean)
Mesomerize (ID: Mesomerize)
Tautomerize (ID: Tautomerize)
Aromatize (ID: Aromatize)
Add Explicit Hydrogens (ID: AddExplicitH)
Neutralize (ID: Neutralize)
Clean 2D (ID: Clean2D)

> <knn Distance>


> <CpId>
1257

$$$$
1261
  Mrv1532301301811342D          

 20 19  0  0  0  0            999 V2000
   -0.2207    0.7138    0.0000 C   0  0  0  0  0  0  0  0  0  0  0  0
    0.4937    1.1263    0.0000 C   0  0  0  0  0  0  0  0  0  0  0  0
    1.2082    0.7138    0.0000 C   0  0  0  0  0  0  0  0  0  0  0  0
    1.2082   -0.1112    0.0000 C   0  0  0  0  0  0  0  0  0  0  0  0
    1.9227    1.1263    0.0000 N   0  0  0  0  0  0  0  0  0  0  0  0
    2.6372    0.7138    0.0000 C   0  0  0  0  0  0  0  0  0  0  0  0
    3.3516    1.1263    0.0000 N   0  0  0  0  0  0  0  0  0  0  0  0
    2.6372   -0.1112    0.0000 O   0  0  0  0  0  0  0  0  0  0  0  0
   -0.6332    1.4283    0.0000 H   0  0  0  0  0  0  0  0  0  0  0  0
   -0.9352    0.3013    0.0000 H   0  0  0  0  0  0  0  0  0  0  0  0
    0.1918   -0.0006    0.0000 H   0  0  0  0  0  0  0  0  0  0  0  0
    0.8640    1.8636    0.0000 H   0  0  0  0  0  0  0  0  0  0  0  0
    0.1235    1.8636    0.0000 H   0  0  0  0  0  0  0  0  0  0  0  0
    0.4937    0.3013    0.0000 H   0  0  0  0  0  0  0  0  0  0  0  0
    0.6249   -0.6945    0.0000 H   0  0  0  0  0  0  0  0  0  0  0  0
    1.6207   -0.8256    0.0000 H   0  0  0  0  0  0  0  0  0  0  0  0
    2.0051    0.1024    0.0000 H   0  0  0  0  0  0  0  0  0  0  0  0
    1.9227    1.9513    0.0000 H   0  0  0  0  0  0  0  0  0  0  0  0
    4.0661    0.7138    0.0000 H   0  0  0  0  0  0  0  0  0  0  0  0
    3.3516    1.9513    0.0000 H   0  0  0  0  0  0  0  0  0  0  0  0
  1  2  1  0  0  0  0
  2  3  1  0  0  0  0
  3  4  1  0  0  0  0
  3  5  1  0  0  0  0
  5  6  1  0  0  0  0
  6  7  1  0  0  0  0
  6  8  2  0  0  0  0
  1  9  1  0  0  0  0
  1 10  1  0  0  0  0
  1 11  1  0  0  0  0
  2 12  1  0  0  0  0
  2 13  1  0  0  0  0
  3 14  1  0  0  0  0
  4 15  1  0  0  0  0
  4 16  1  0  0  0  0
  4 17  1  0  0  0  0
  5 18  1  0  0  0  0
  7 19  1  0  0  0  0
  7 20  1  0  0  0  0
M  END
>  <InChIKey>
InChI=1S/C5H12N2O/c1-3-4(2)7-5(6)8/h4H,3H2,1-2H3,(H3,6,7,8)

>  <CASRN>
689-11-2

> <Outcome>
1

>  <Index>
1261

>  <StandardizerResult>
Clear Stereo (ID: ClearStereo)
Wedge Clean (ID: WedgeClean)
Mesomerize (ID: Mesomerize)
Tautomerize (ID: Tautomerize)
Add Explicit Hydrogens (ID: AddExplicitH)
Neutralize (ID: Neutralize)
Clean 2D (ID: Clean2D)

> <knn Distance>


> <CpId>
1261

$$$$
1265
  Mrv1532301301811342D          

  5  4  0  0  0  0            999 V2000
    2.3100    0.0000    0.0000 C   0  0  0  0  0  0  0  0  0  0  0  0
    1.4850    0.0000    0.0000 C   0  0  0  0  0  0  0  0  0  0  0  0
    0.6600    0.0000    0.0000 O   0  0  0  0  0  0  0  0  0  0  0  0
    2.7225   -0.7145    0.0000 H   0  0  0  0  0  0  0  0  0  0  0  0
    2.7225    0.7145    0.0000 H   0  0  0  0  0  0  0  0  0  0  0  0
  1  2  2  0  0  0  0
  2  3  2  0  0  0  0
  1  4  1  0  0  0  0
  1  5  1  0  0  0  0
M  END
>  <InChIKey>
InChI=1S/C2H2O/c1-2-3/h1H2

>  <CASRN>
463-51-4

> <Outcome>
1

>  <Index>
1265

>  <StandardizerResult>
Mesomerize (ID: Mesomerize)
Tautomerize (ID: Tautomerize)
Add Explicit Hydrogens (ID: AddExplicitH)
Neutralize (ID: Neutralize)
Clean 2D (ID: Clean2D)

> <knn Distance>


> <CpId>
1265

$$$$
1266
  Mrv1532301301811342D          

 12 11  0  0  0  0            999 V2000
    0.1092   -1.2368    0.0000 C   0  0  0  0  0  0  0  0  0  0  0  0
    0.8237   -0.8243    0.0000 C   0  0  0  0  0  0  0  0  0  0  0  0
    0.8237    0.0007    0.0000 S   0  0  0  0  0  0  0  0  0  0  0  0
    0.8237    0.8257    0.0000 O   0  0  0  0  0  0  0  0  0  0  0  0
    1.6487    0.0007    0.0000 O   0  0  0  0  0  0  0  0  0  0  0  0
   -0.0013    0.0007    0.0000 O   0  0  0  0  0  0  0  0  0  0  0  0
   -0.3033   -0.5223    0.0000 H   0  0  0  0  0  0  0  0  0  0  0  0
   -0.6052   -1.6493    0.0000 H   0  0  0  0  0  0  0  0  0  0  0  0
    0.5217   -1.9512    0.0000 H   0  0  0  0  0  0  0  0  0  0  0  0
    1.2771   -1.5135    0.0000 H   0  0  0  0  0  0  0  0  0  0  0  0
    1.6473   -0.8722    0.0000 H   0  0  0  0  0  0  0  0  0  0  0  0
    1.5382    1.2382    0.0000 H   0  0  0  0  0  0  0  0  0  0  0  0
  1  2  1  0  0  0  0
  2  3  1  0  0  0  0
  3  4  1  0  0  0  0
  3  5  2  0  0  0  0
  3  6  2  0  0  0  0
  1  7  1  0  0  0  0
  1  8  1  0  0  0  0
  1  9  1  0  0  0  0
  2 10  1  0  0  0  0
  2 11  1  0  0  0  0
  4 12  1  0  0  0  0
M  END
>  <InChIKey>
InChI=1S/C2H6O3S/c1-2-6(3,4)5/h2H2,1H3,(H,3,4,5)

>  <CASRN>
594-45-6

> <Outcome>
1

>  <Index>
1266

>  <StandardizerResult>
Clear Stereo (ID: ClearStereo)
Wedge Clean (ID: WedgeClean)
Mesomerize (ID: Mesomerize)
Tautomerize (ID: Tautomerize)
Add Explicit Hydrogens (ID: AddExplicitH)
Neutralize (ID: Neutralize)
Clean 2D (ID: Clean2D)

> <knn Distance>


> <CpId>
1266

$$$$
1272
  Mrv1532301301811342D          

 76 78  0  0  0  0            999 V2000
   -2.7532    0.8424    0.0000 C   0  0  0  0  0  0  0  0  0  0  0  0
   -2.7532    0.0174    0.0000 N   0  0  0  0  0  0  0  0  0  0  0  0
   -3.4677   -0.3951    0.0000 C   0  0  0  0  0  0  0  0  0  0  0  0
   -4.1821    0.0174    0.0000 C   0  0  0  0  0  0  0  0  0  0  0  0
   -3.4677   -1.2201    0.0000 C   0  0  0  0  0  0  0  0  0  0  0  0
   -2.7532   -1.6326    0.0000 C   0  0  0  0  0  0  0  0  0  0  0  0
   -2.7532   -2.4576    0.0000 C   0  0  0  0  0  0  0  0  0  0  0  0
   -3.4677   -2.8701    0.0000 C   0  0  0  0  0  0  0  0  0  0  0  0
   -3.4677   -3.6951    0.0000 N   0  0  0  0  0  0  0  0  0  0  0  0
   -4.1821   -2.4576    0.0000 C   0  0  0  0  0  0  0  0  0  0  0  0
   -4.8966   -2.8701    0.0000 O   0  0  0  0  0  0  0  0  0  0  0  0
   -5.6111   -2.4576    0.0000 C   0  0  0  0  0  0  0  0  0  0  0  0
   -5.6111   -1.6326    0.0000 C   0  0  0  0  0  0  0  0  0  0  0  0
   -4.8966   -1.2201    0.0000 N   0  0  0  0  0  0  0  0  0  0  0  0
   -6.3256   -1.2201    0.0000 C   0  0  0  0  0  0  0  0  0  0  0  0
   -7.0400   -1.6326    0.0000 C   0  0  0  0  0  0  0  0  0  0  0  0
   -7.7545   -1.2201    0.0000 N   0  0  0  0  0  0  0  0  0  0  0  0
   -7.0400   -2.4576    0.0000 C   0  0  0  0  0  0  0  0  0  0  0  0
   -7.7545   -2.8701    0.0000 O   0  0  0  0  0  0  0  0  0  0  0  0
   -7.7545   -3.6951    0.0000 C   0  0  0  0  0  0  0  0  0  0  0  0
   -7.0400   -4.1076    0.0000 O   0  0  0  0  0  0  0  0  0  0  0  0
   -7.0400   -4.9326    0.0000 C   0  0  0  0  0  0  0  0  0  0  0  0
   -7.7545   -5.3451    0.0000 C   0  0  0  0  0  0  0  0  0  0  0  0
   -7.2242   -5.9770    0.0000 C   0  0  0  0  0  0  0  0  0  0  0  0
   -8.2848   -5.9770    0.0000 O   0  0  0  0  0  0  0  0  0  0  0  0
   -8.4690   -4.9326    0.0000 C   0  0  0  0  0  0  0  0  0  0  0  0
   -9.1834   -5.3451    0.0000 N   0  0  0  0  0  0  0  0  0  0  0  0
   -9.8979   -4.9326    0.0000 C   0  0  0  0  0  0  0  0  0  0  0  0
   -8.4690   -4.1076    0.0000 C   0  0  0  0  0  0  0  0  0  0  0  0
   -9.1834   -3.6951    0.0000 O   0  0  0  0  0  0  0  0  0  0  0  0
   -6.3256   -2.8701    0.0000 C   0  0  0  0  0  0  0  0  0  0  0  0
   -6.3256   -3.6951    0.0000 O   0  0  0  0  0  0  0  0  0  0  0  0
   -4.1821   -1.6326    0.0000 O   0  0  0  0  0  0  0  0  0  0  0  0
   -1.9282    0.8424    0.0000 H   0  0  0  0  0  0  0  0  0  0  0  0
   -2.7532    1.6674    0.0000 H   0  0  0  0  0  0  0  0  0  0  0  0
   -3.5782    0.8424    0.0000 H   0  0  0  0  0  0  0  0  0  0  0  0
   -2.0387   -0.3951    0.0000 H   0  0  0  0  0  0  0  0  0  0  0  0
   -3.4677    0.4299    0.0000 H   0  0  0  0  0  0  0  0  0  0  0  0
   -4.3957    0.8143    0.0000 H   0  0  0  0  0  0  0  0  0  0  0  0
   -5.0071    0.0174    0.0000 H   0  0  0  0  0  0  0  0  0  0  0  0
   -4.3957   -0.7794    0.0000 H   0  0  0  0  0  0  0  0  0  0  0  0
   -4.1821   -0.8076    0.0000 H   0  0  0  0  0  0  0  0  0  0  0  0
   -1.9296   -1.5846    0.0000 H   0  0  0  0  0  0  0  0  0  0  0  0
   -2.2999   -0.9433    0.0000 H   0  0  0  0  0  0  0  0  0  0  0  0
   -2.2999   -3.1468    0.0000 H   0  0  0  0  0  0  0  0  0  0  0  0
   -1.9296   -2.5055    0.0000 H   0  0  0  0  0  0  0  0  0  0  0  0
   -4.1821   -3.2826    0.0000 H   0  0  0  0  0  0  0  0  0  0  0  0
   -3.5156   -4.5187    0.0000 H   0  0  0  0  0  0  0  0  0  0  0  0
   -2.7304   -4.0653    0.0000 H   0  0  0  0  0  0  0  0  0  0  0  0
   -4.8966   -2.0451    0.0000 H   0  0  0  0  0  0  0  0  0  0  0  0
   -5.6111   -3.2826    0.0000 H   0  0  0  0  0  0  0  0  0  0  0  0
   -5.6111   -0.8076    0.0000 H   0  0  0  0  0  0  0  0  0  0  0  0
   -4.7188   -0.4144    0.0000 H   0  0  0  0  0  0  0  0  0  0  0  0
   -5.2292   -0.4651    0.0000 H   0  0  0  0  0  0  0  0  0  0  0  0
   -6.4688   -0.4076    0.0000 H   0  0  0  0  0  0  0  0  0  0  0  0
   -6.9575   -0.6898    0.0000 H   0  0  0  0  0  0  0  0  0  0  0  0
   -7.7545   -2.0451    0.0000 H   0  0  0  0  0  0  0  0  0  0  0  0
   -8.2343   -0.5489    0.0000 H   0  0  0  0  0  0  0  0  0  0  0  0
   -8.5790   -1.1924    0.0000 H   0  0  0  0  0  0  0  0  0  0  0  0
   -7.0400   -3.2826    0.0000 H   0  0  0  0  0  0  0  0  0  0  0  0
   -8.4690   -3.2826    0.0000 H   0  0  0  0  0  0  0  0  0  0  0  0
   -6.5867   -5.6218    0.0000 H   0  0  0  0  0  0  0  0  0  0  0  0
   -6.2164   -4.9805    0.0000 H   0  0  0  0  0  0  0  0  0  0  0  0
   -8.0219   -6.1875    0.0000 H   0  0  0  0  0  0  0  0  0  0  0  0
   -7.3737   -6.7884    0.0000 H   0  0  0  0  0  0  0  0  0  0  0  0
   -6.5539   -6.4579    0.0000 H   0  0  0  0  0  0  0  0  0  0  0  0
   -9.1058   -6.0584    0.0000 H   0  0  0  0  0  0  0  0  0  0  0  0
   -9.1834   -4.5201    0.0000 H   0  0  0  0  0  0  0  0  0  0  0  0
   -8.4477   -5.7182    0.0000 H   0  0  0  0  0  0  0  0  0  0  0  0
  -10.1114   -4.1357    0.0000 H   0  0  0  0  0  0  0  0  0  0  0  0
  -10.7229   -4.9326    0.0000 H   0  0  0  0  0  0  0  0  0  0  0  0
  -10.1114   -5.7294    0.0000 H   0  0  0  0  0  0  0  0  0  0  0  0
   -7.7545   -4.5201    0.0000 H   0  0  0  0  0  0  0  0  0  0  0  0
   -9.8979   -3.2826    0.0000 H   0  0  0  0  0  0  0  0  0  0  0  0
   -6.3256   -2.0451    0.0000 H   0  0  0  0  0  0  0  0  0  0  0  0
   -5.9131   -4.4095    0.0000 H   0  0  0  0  0  0  0  0  0  0  0  0
  1  2  1  0  0  0  0
  2  3  1  0  0  0  0
  3  4  1  0  0  0  0
  3  5  1  0  0  0  0
  5  6  1  0  0  0  0
  6  7  1  0  0  0  0
  7  8  1  0  0  0  0
  8  9  1  0  0  0  0
  8 10  1  0  0  0  0
 10 11  1  0  0  0  0
 11 12  1  0  0  0  0
 12 13  1  0  0  0  0
 13 14  1  0  0  0  0
 13 15  1  0  0  0  0
 15 16  1  0  0  0  0
 16 17  1  0  0  0  0
 16 18  1  0  0  0  0
 18 19  1  0  0  0  0
 19 20  1  0  0  0  0
 20 21  1  0  0  0  0
 21 22  1  0  0  0  0
 22 23  1  0  0  0  0
 23 24  1  0  0  0  0
 23 25  1  0  0  0  0
 23 26  1  0  0  0  0
 26 27  1  0  0  0  0
 27 28  1  0  0  0  0
 26 29  1  0  0  0  0
 20 29  1  0  0  0  0
 29 30  1  0  0  0  0
 18 31  1  0  0  0  0
 12 31  1  0  0  0  0
 31 32  1  0  0  0  0
 10 33  1  0  0  0  0
  5 33  1  0  0  0  0
  1 34  1  0  0  0  0
  1 35  1  0  0  0  0
  1 36  1  0  0  0  0
  2 37  1  0  0  0  0
  3 38  1  0  0  0  0
  4 39  1  0  0  0  0
  4 40  1  0  0  0  0
  4 41  1  0  0  0  0
  5 42  1  0  0  0  0
  6 43  1  0  0  0  0
  6 44  1  0  0  0  0
  7 45  1  0  0  0  0
  7 46  1  0  0  0  0
  8 47  1  0  0  0  0
  9 48  1  0  0  0  0
  9 49  1  0  0  0  0
 10 50  1  0  0  0  0
 12 51  1  0  0  0  0
 13 52  1  0  0  0  0
 14 53  1  0  0  0  0
 14 54  1  0  0  0  0
 15 55  1  0  0  0  0
 15 56  1  0  0  0  0
 16 57  1  0  0  0  0
 17 58  1  0  0  0  0
 17 59  1  0  0  0  0
 18 60  1  0  0  0  0
 20 61  1  0  0  0  0
 22 62  1  0  0  0  0
 22 63  1  0  0  0  0
 24 64  1  0  0  0  0
 24 65  1  0  0  0  0
 24 66  1  0  0  0  0
 25 67  1  0  0  0  0
 26 68  1  0  0  0  0
 27 69  1  0  0  0  0
 28 70  1  0  0  0  0
 28 71  1  0  0  0  0
 28 72  1  0  0  0  0
 29 73  1  0  0  0  0
 30 74  1  0  0  0  0
 31 75  1  0  0  0  0
 32 76  1  0  0  0  0
M  END
>  <InChIKey>
InChI=1S/C21H43N5O7/c1-9(25-3)13-6-5-10(22)19(31-13)32-16-11(23)7-12(24)17(14(16)27)33-20-15(28)18(26-4)21(2,29)8-30-20/h9-20,25-29H,5-8,22-24H2,1-4H3

>  <CASRN>
1403-66-3

> <Outcome>
1

>  <Index>
1272

>  <StandardizerResult>
Clear Stereo (ID: ClearStereo)
Wedge Clean (ID: WedgeClean)
Mesomerize (ID: Mesomerize)
Tautomerize (ID: Tautomerize)
Add Explicit Hydrogens (ID: AddExplicitH)
Neutralize (ID: Neutralize)
Clean 2D (ID: Clean2D)

> <knn Distance>


> <CpId>
1272

$$$$
1275
  Mrv1532301301811342D          

 24 23  0  0  0  0            999 V2000
    1.7381    1.8586    0.0000 C   0  0  0  0  0  0  0  0  0  0  0  0
    2.4526    1.4461    0.0000 C   0  0  0  0  0  0  0  0  0  0  0  0
    3.1671    1.8586    0.0000 C   0  0  0  0  0  0  0  0  0  0  0  0
    3.8815    1.4461    0.0000 C   0  0  0  0  0  0  0  0  0  0  0  0
    4.5960    1.8586    0.0000 C   0  0  0  0  0  0  0  0  0  0  0  0
    5.3105    1.4461    0.0000 C   0  0  0  0  0  0  0  0  0  0  0  0
    6.0250    1.8586    0.0000 C   0  0  0  0  0  0  0  0  0  0  0  0
    5.3105    0.6211    0.0000 O   0  0  0  0  0  0  0  0  0  0  0  0
    2.1506    2.5731    0.0000 H   0  0  0  0  0  0  0  0  0  0  0  0
    1.0237    2.2711    0.0000 H   0  0  0  0  0  0  0  0  0  0  0  0
    1.3256    1.1441    0.0000 H   0  0  0  0  0  0  0  0  0  0  0  0
    2.0823    0.7088    0.0000 H   0  0  0  0  0  0  0  0  0  0  0  0
    2.8229    0.7088    0.0000 H   0  0  0  0  0  0  0  0  0  0  0  0
    3.5373    2.5958    0.0000 H   0  0  0  0  0  0  0  0  0  0  0  0
    2.7968    2.5958    0.0000 H   0  0  0  0  0  0  0  0  0  0  0  0
    3.5113    0.7088    0.0000 H   0  0  0  0  0  0  0  0  0  0  0  0
    4.2518    0.7088    0.0000 H   0  0  0  0  0  0  0  0  0  0  0  0
    4.9663    2.5958    0.0000 H   0  0  0  0  0  0  0  0  0  0  0  0
    4.2258    2.5958    0.0000 H   0  0  0  0  0  0  0  0  0  0  0  0
    5.3105    2.2711    0.0000 H   0  0  0  0  0  0  0  0  0  0  0  0
    6.2385    1.0617    0.0000 H   0  0  0  0  0  0  0  0  0  0  0  0
    6.8500    1.8586    0.0000 H   0  0  0  0  0  0  0  0  0  0  0  0
    6.2385    2.6555    0.0000 H   0  0  0  0  0  0  0  0  0  0  0  0
    4.5960    0.2086    0.0000 H   0  0  0  0  0  0  0  0  0  0  0  0
  1  2  1  0  0  0  0
  2  3  1  0  0  0  0
  3  4  1  0  0  0  0
  4  5  1  0  0  0  0
  5  6  1  0  0  0  0
  6  7  1  0  0  0  0
  6  8  1  0  0  0  0
  1  9  1  0  0  0  0
  1 10  1  0  0  0  0
  1 11  1  0  0  0  0
  2 12  1  0  0  0  0
  2 13  1  0  0  0  0
  3 14  1  0  0  0  0
  3 15  1  0  0  0  0
  4 16  1  0  0  0  0
  4 17  1  0  0  0  0
  5 18  1  0  0  0  0
  5 19  1  0  0  0  0
  6 20  1  0  0  0  0
  7 21  1  0  0  0  0
  7 22  1  0  0  0  0
  7 23  1  0  0  0  0
  8 24  1  0  0  0  0
M  END
>  <InChIKey>
InChI=1S/C7H16O/c1-3-4-5-6-7(2)8/h7-8H,3-6H2,1-2H3

>  <CASRN>
543-49-7

> <Outcome>
1

>  <Index>
1275

>  <StandardizerResult>
Clear Stereo (ID: ClearStereo)
Wedge Clean (ID: WedgeClean)
Mesomerize (ID: Mesomerize)
Tautomerize (ID: Tautomerize)
Add Explicit Hydrogens (ID: AddExplicitH)
Neutralize (ID: Neutralize)
Clean 2D (ID: Clean2D)

> <knn Distance>


> <CpId>
1275

$$$$
1278
  Mrv1532301301811342D          

 16 16  0  0  0  0            999 V2000
    0.7145    2.0625    0.0000 C   0  0  0  0  0  0  0  0  0  0  0  0
    0.7145    1.2375    0.0000 C   0  0  0  0  0  0  0  0  0  0  0  0
    1.4289    0.8250    0.0000 C   0  0  0  0  0  0  0  0  0  0  0  0
    1.4289   -0.0000    0.0000 C   0  0  0  0  0  0  0  0  0  0  0  0
    2.1434   -0.4125    0.0000 O   0  0  0  0  0  0  0  0  0  0  0  0
    0.7145   -0.4125    0.0000 C   0  0  0  0  0  0  0  0  0  0  0  0
    0.0000   -0.0000    0.0000 C   0  0  0  0  0  0  0  0  0  0  0  0
    0.0000    0.8250    0.0000 C   0  0  0  0  0  0  0  0  0  0  0  0
   -0.7145    1.2375    0.0000 Cl  0  0  0  0  0  0  0  0  0  0  0  0
    1.5395    2.0625    0.0000 H   0  0  0  0  0  0  0  0  0  0  0  0
    0.7145    2.8875    0.0000 H   0  0  0  0  0  0  0  0  0  0  0  0
   -0.1105    2.0625    0.0000 H   0  0  0  0  0  0  0  0  0  0  0  0
    2.1434    1.2375    0.0000 H   0  0  0  0  0  0  0  0  0  0  0  0
    2.1434   -1.2375    0.0000 H   0  0  0  0  0  0  0  0  0  0  0  0
    0.7145   -1.2375    0.0000 H   0  0  0  0  0  0  0  0  0  0  0  0
   -0.7145   -0.4125    0.0000 H   0  0  0  0  0  0  0  0  0  0  0  0
  1  2  1  0  0  0  0
  2  3  4  0  0  0  0
  3  4  4  0  0  0  0
  4  5  1  0  0  0  0
  4  6  4  0  0  0  0
  6  7  4  0  0  0  0
  7  8  4  0  0  0  0
  2  8  4  0  0  0  0
  8  9  1  0  0  0  0
  1 10  1  0  0  0  0
  1 11  1  0  0  0  0
  1 12  1  0  0  0  0
  3 13  1  0  0  0  0
  5 14  1  0  0  0  0
  6 15  1  0  0  0  0
  7 16  1  0  0  0  0
M  END
>  <InChIKey>
InChI=1S/C7H7ClO/c1-5-4-6(9)2-3-7(5)8/h2-4,9H,1H3

>  <CASRN>
59-50-7

> <Outcome>
1

>  <Index>
1278

>  <StandardizerResult>
Dearomatize (ID: Dearomatize)
Clear Stereo (ID: ClearStereo)
Wedge Clean (ID: WedgeClean)
Mesomerize (ID: Mesomerize)
Tautomerize (ID: Tautomerize)
Aromatize (ID: Aromatize)
Add Explicit Hydrogens (ID: AddExplicitH)
Neutralize (ID: Neutralize)
Clean 2D (ID: Clean2D)

> <knn Distance>


> <CpId>
1278

$$$$
1281
  Mrv1532301301811342D          

 21 20  0  0  0  0            999 V2000
    1.7307    1.8529    0.0000 C   0  0  0  0  0  0  0  0  0  0  0  0
    2.4452    1.4404    0.0000 C   0  0  0  0  0  0  0  0  0  0  0  0
    2.4452    0.6154    0.0000 C   0  0  0  0  0  0  0  0  0  0  0  0
    3.1597    1.8529    0.0000 C   0  0  0  0  0  0  0  0  0  0  0  0
    3.8741    1.4404    0.0000 O   0  0  0  0  0  0  0  0  0  0  0  0
    4.5886    1.8529    0.0000 C   0  0  0  0  0  0  0  0  0  0  0  0
    4.5886    2.6779    0.0000 O   0  0  0  0  0  0  0  0  0  0  0  0
    5.3031    1.4404    0.0000 C   0  0  0  0  0  0  0  0  0  0  0  0
    6.0175    1.8529    0.0000 C   0  0  0  0  0  0  0  0  0  0  0  0
    2.1432    2.5674    0.0000 H   0  0  0  0  0  0  0  0  0  0  0  0
    1.0163    2.2654    0.0000 H   0  0  0  0  0  0  0  0  0  0  0  0
    1.3182    1.1384    0.0000 H   0  0  0  0  0  0  0  0  0  0  0  0
    1.7307    1.0279    0.0000 H   0  0  0  0  0  0  0  0  0  0  0  0
    1.8618    0.0320    0.0000 H   0  0  0  0  0  0  0  0  0  0  0  0
    2.8577   -0.0991    0.0000 H   0  0  0  0  0  0  0  0  0  0  0  0
    3.2421    0.8289    0.0000 H   0  0  0  0  0  0  0  0  0  0  0  0
    3.5299    2.5902    0.0000 H   0  0  0  0  0  0  0  0  0  0  0  0
    2.7894    2.5902    0.0000 H   0  0  0  0  0  0  0  0  0  0  0  0
    5.3031    0.6154    0.0000 H   0  0  0  0  0  0  0  0  0  0  0  0
    6.7320    1.4404    0.0000 H   0  0  0  0  0  0  0  0  0  0  0  0
    6.0175    2.6779    0.0000 H   0  0  0  0  0  0  0  0  0  0  0  0
  1  2  1  0  0  0  0
  2  3  1  0  0  0  0
  2  4  1  0  0  0  0
  4  5  1  0  0  0  0
  5  6  1  0  0  0  0
  6  7  2  0  0  0  0
  6  8  1  0  0  0  0
  8  9  2  0  0  0  0
  1 10  1  0  0  0  0
  1 11  1  0  0  0  0
  1 12  1  0  0  0  0
  2 13  1  0  0  0  0
  3 14  1  0  0  0  0
  3 15  1  0  0  0  0
  3 16  1  0  0  0  0
  4 17  1  0  0  0  0
  4 18  1  0  0  0  0
  8 19  1  0  0  0  0
  9 20  1  0  0  0  0
  9 21  1  0  0  0  0
M  END
>  <InChIKey>
InChI=1S/C7H12O2/c1-4-7(8)9-5-6(2)3/h4,6H,1,5H2,2-3H3

>  <CASRN>
106-63-8

> <Outcome>
1

>  <Index>
1281

>  <StandardizerResult>
Clear Stereo (ID: ClearStereo)
Wedge Clean (ID: WedgeClean)
Mesomerize (ID: Mesomerize)
Tautomerize (ID: Tautomerize)
Add Explicit Hydrogens (ID: AddExplicitH)
Neutralize (ID: Neutralize)
Clean 2D (ID: Clean2D)

> <knn Distance>


> <CpId>
1281

$$$$
1283
  Mrv1532301301811342D          

 39 39  0  0  0  0            999 V2000
    3.0243    2.4127    0.0000 C   0  0  0  0  0  0  0  0  0  0  0  0
    2.3099    2.0002    0.0000 C   0  0  0  0  0  0  0  0  0  0  0  0
    1.5954    2.4127    0.0000 C   0  0  0  0  0  0  0  0  0  0  0  0
    1.5954    3.2377    0.0000 C   0  0  0  0  0  0  0  0  0  0  0  0
    0.8809    3.6502    0.0000 C   0  0  0  0  0  0  0  0  0  0  0  0
    0.8809    2.0002    0.0000 N   0  0  0  0  0  0  0  0  0  0  0  0
    0.8809    1.1752    0.0000 C   0  0  0  0  0  0  0  0  0  0  0  0
    1.5954    0.7627    0.0000 C   0  0  0  0  0  0  0  0  0  0  0  0
    1.5954   -0.0623    0.0000 C   0  0  0  0  0  0  0  0  0  0  0  0
    0.8809   -0.4748    0.0000 C   0  0  0  0  0  0  0  0  0  0  0  0
    0.8809   -1.2998    0.0000 C   0  0  0  0  0  0  0  0  0  0  0  0
    0.1664   -0.0623    0.0000 C   0  0  0  0  0  0  0  0  0  0  0  0
   -0.5480   -0.4748    0.0000 C   0  0  0  0  0  0  0  0  0  0  0  0
    0.1664    0.7627    0.0000 C   0  0  0  0  0  0  0  0  0  0  0  0
   -0.5480    1.1752    0.0000 N   0  0  0  0  0  0  0  0  0  0  0  0
   -0.5480    2.0002    0.0000 O   0  0  0  0  0  0  0  0  0  0  0  0
   -1.2625    0.7627    0.0000 O   0  0  0  0  0  0  0  0  0  0  0  0
    2.3099    1.1752    0.0000 N   0  0  0  0  0  0  0  0  0  0  0  0
    3.0243    0.7627    0.0000 O   0  0  0  0  0  0  0  0  0  0  0  0
    2.7948    1.8427    0.0000 O   0  0  0  0  0  0  0  0  0  0  0  0
    3.7281    1.9823    0.0000 H   0  0  0  0  0  0  0  0  0  0  0  0
    3.5652    3.0357    0.0000 H   0  0  0  0  0  0  0  0  0  0  0  0
    2.4994    3.0492    0.0000 H   0  0  0  0  0  0  0  0  0  0  0  0
    1.5954    1.5877    0.0000 H   0  0  0  0  0  0  0  0  0  0  0  0
    2.3099    2.8252    0.0000 H   0  0  0  0  0  0  0  0  0  0  0  0
    0.8809    2.8252    0.0000 H   0  0  0  0  0  0  0  0  0  0  0  0
    2.2071    3.7913    0.0000 H   0  0  0  0  0  0  0  0  0  0  0  0
    1.5081    4.0581    0.0000 H   0  0  0  0  0  0  0  0  0  0  0  0
    0.8481    4.4746    0.0000 H   0  0  0  0  0  0  0  0  0  0  0  0
    0.1558    4.0436    0.0000 H   0  0  0  0  0  0  0  0  0  0  0  0
    0.1720    3.2283    0.0000 H   0  0  0  0  0  0  0  0  0  0  0  0
    0.0559    2.0002    0.0000 H   0  0  0  0  0  0  0  0  0  0  0  0
    2.3099   -0.4748    0.0000 H   0  0  0  0  0  0  0  0  0  0  0  0
    0.0559   -1.2998    0.0000 H   0  0  0  0  0  0  0  0  0  0  0  0
    0.8809   -2.1248    0.0000 H   0  0  0  0  0  0  0  0  0  0  0  0
    1.7059   -1.2998    0.0000 H   0  0  0  0  0  0  0  0  0  0  0  0
   -0.9605    0.2397    0.0000 H   0  0  0  0  0  0  0  0  0  0  0  0
   -1.2625   -0.8873    0.0000 H   0  0  0  0  0  0  0  0  0  0  0  0
   -0.1355   -1.1893    0.0000 H   0  0  0  0  0  0  0  0  0  0  0  0
  1  2  1  0  0  0  0
  2  3  1  0  0  0  0
  3  4  1  0  0  0  0
  4  5  1  0  0  0  0
  3  6  1  0  0  0  0
  6  7  1  0  0  0  0
  7  8  4  0  0  0  0
  8  9  4  0  0  0  0
  9 10  4  0  0  0  0
 10 11  1  0  0  0  0
 10 12  4  0  0  0  0
 12 13  1  0  0  0  0
 12 14  4  0  0  0  0
  7 14  4  0  0  0  0
 14 15  1  0  0  0  0
 15 16  2  0  0  0  0
 15 17  2  0  0  0  0
  8 18  1  0  0  0  0
 18 19  2  0  0  0  0
 18 20  2  0  0  0  0
  1 21  1  0  0  0  0
  1 22  1  0  0  0  0
  1 23  1  0  0  0  0
  2 24  1  0  0  0  0
  2 25  1  0  0  0  0
  3 26  1  0  0  0  0
  4 27  1  0  0  0  0
  4 28  1  0  0  0  0
  5 29  1  0  0  0  0
  5 30  1  0  0  0  0
  5 31  1  0  0  0  0
  6 32  1  0  0  0  0
  9 33  1  0  0  0  0
 11 34  1  0  0  0  0
 11 35  1  0  0  0  0
 11 36  1  0  0  0  0
 13 37  1  0  0  0  0
 13 38  1  0  0  0  0
 13 39  1  0  0  0  0
M  END
>  <InChIKey>
InChI=1S/C13H19N3O4/c1-5-10(6-2)14-12-11(15(17)18)7-8(3)9(4)13(12)16(19)20/h7,10,14H,5-6H2,1-4H3

>  <CASRN>
40487-42-1

> <Outcome>
1

>  <Index>
1283

>  <StandardizerResult>
Dearomatize (ID: Dearomatize)
Clear Stereo (ID: ClearStereo)
Wedge Clean (ID: WedgeClean)
Mesomerize (ID: Mesomerize)
Tautomerize (ID: Tautomerize)
Aromatize (ID: Aromatize)
Add Explicit Hydrogens (ID: AddExplicitH)
Neutralize (ID: Neutralize)
Clean 2D (ID: Clean2D)

> <knn Distance>


> <CpId>
1283

$$$$
1287
  Mrv1532301301811342D          

101100  0  0  0  0            999 V2000
    2.4456   -8.8290    0.0000 C   0  0  0  0  0  0  0  0  0  0  0  0
    2.0331   -8.1146    0.0000 C   0  0  0  0  0  0  0  0  0  0  0  0
    2.4456   -7.4001    0.0000 C   0  0  0  0  0  0  0  0  0  0  0  0
    2.0331   -6.6856    0.0000 C   0  0  0  0  0  0  0  0  0  0  0  0
    2.4456   -5.9712    0.0000 C   0  0  0  0  0  0  0  0  0  0  0  0
    2.0331   -5.2567    0.0000 C   0  0  0  0  0  0  0  0  0  0  0  0
    2.4456   -4.5422    0.0000 C   0  0  0  0  0  0  0  0  0  0  0  0
    2.0331   -3.8277    0.0000 C   0  0  0  0  0  0  0  0  0  0  0  0
    2.4456   -3.1133    0.0000 N   0  3  0  0  0  0  0  0  0  0  0  0
    2.8581   -2.3988    0.0000 C   0  0  0  0  0  0  0  0  0  0  0  0
    3.6831   -2.3988    0.0000 C   0  0  0  0  0  0  0  0  0  0  0  0
    4.0956   -3.1133    0.0000 C   0  0  0  0  0  0  0  0  0  0  0  0
    4.9206   -3.1133    0.0000 C   0  0  0  0  0  0  0  0  0  0  0  0
    5.3331   -3.8277    0.0000 C   0  0  0  0  0  0  0  0  0  0  0  0
    6.1581   -3.8277    0.0000 C   0  0  0  0  0  0  0  0  0  0  0  0
    6.5706   -4.5422    0.0000 C   0  0  0  0  0  0  0  0  0  0  0  0
    7.3956   -4.5422    0.0000 C   0  0  0  0  0  0  0  0  0  0  0  0
    3.1601   -3.5258    0.0000 C   0  0  0  0  0  0  0  0  0  0  0  0
    3.1601   -4.3508    0.0000 C   0  0  0  0  0  0  0  0  0  0  0  0
    3.8745   -4.7633    0.0000 C   0  0  0  0  0  0  0  0  0  0  0  0
    3.8745   -5.5883    0.0000 C   0  0  0  0  0  0  0  0  0  0  0  0
    4.5890   -6.0008    0.0000 C   0  0  0  0  0  0  0  0  0  0  0  0
    4.5890   -6.8258    0.0000 C   0  0  0  0  0  0  0  0  0  0  0  0
    5.3035   -7.2383    0.0000 C   0  0  0  0  0  0  0  0  0  0  0  0
    5.3035   -8.0633    0.0000 C   0  0  0  0  0  0  0  0  0  0  0  0
    1.7311   -2.7008    0.0000 C   0  0  0  0  0  0  0  0  0  0  0  0
    1.7311   -1.8758    0.0000 C   0  0  0  0  0  0  0  0  0  0  0  0
    2.4456   -1.4633    0.0000 C   0  0  0  0  0  0  0  0  0  0  0  0
    3.1601   -1.8758    0.0000 C   0  0  0  0  0  0  0  0  0  0  0  0
    3.8745   -1.4633    0.0000 C   0  0  0  0  0  0  0  0  0  0  0  0
    4.5890   -1.8758    0.0000 C   0  0  0  0  0  0  0  0  0  0  0  0
    5.3035   -1.4633    0.0000 C   0  0  0  0  0  0  0  0  0  0  0  0
    6.0180   -1.8758    0.0000 C   0  0  0  0  0  0  0  0  0  0  0  0
    1.7311   -9.2415    0.0000 H   0  0  0  0  0  0  0  0  0  0  0  0
    2.8581   -9.5435    0.0000 H   0  0  0  0  0  0  0  0  0  0  0  0
    3.1601   -8.4165    0.0000 H   0  0  0  0  0  0  0  0  0  0  0  0
    1.2959   -7.7443    0.0000 H   0  0  0  0  0  0  0  0  0  0  0  0
    1.2959   -8.4848    0.0000 H   0  0  0  0  0  0  0  0  0  0  0  0
    3.1829   -7.7704    0.0000 H   0  0  0  0  0  0  0  0  0  0  0  0
    3.1829   -7.0298    0.0000 H   0  0  0  0  0  0  0  0  0  0  0  0
    1.2959   -6.3154    0.0000 H   0  0  0  0  0  0  0  0  0  0  0  0
    1.2959   -7.0559    0.0000 H   0  0  0  0  0  0  0  0  0  0  0  0
    3.1829   -6.3414    0.0000 H   0  0  0  0  0  0  0  0  0  0  0  0
    3.1829   -5.6009    0.0000 H   0  0  0  0  0  0  0  0  0  0  0  0
    1.2959   -4.8864    0.0000 H   0  0  0  0  0  0  0  0  0  0  0  0
    1.2959   -5.6269    0.0000 H   0  0  0  0  0  0  0  0  0  0  0  0
    2.9478   -5.1967    0.0000 H   0  0  0  0  0  0  0  0  0  0  0  0
    1.6206   -4.5422    0.0000 H   0  0  0  0  0  0  0  0  0  0  0  0
    1.5028   -3.1958    0.0000 H   0  0  0  0  0  0  0  0  0  0  0  0
    1.2206   -3.6845    0.0000 H   0  0  0  0  0  0  0  0  0  0  0  0
    2.3278   -1.7668    0.0000 H   0  0  0  0  0  0  0  0  0  0  0  0
    2.0456   -2.2555    0.0000 H   0  0  0  0  0  0  0  0  0  0  0  0
    4.4975   -2.2666    0.0000 H   0  0  0  0  0  0  0  0  0  0  0  0
    3.2706   -3.1133    0.0000 H   0  0  0  0  0  0  0  0  0  0  0  0
    3.8134   -3.8885    0.0000 H   0  0  0  0  0  0  0  0  0  0  0  0
    4.3778   -3.8885    0.0000 H   0  0  0  0  0  0  0  0  0  0  0  0
    5.7454   -3.1298    0.0000 H   0  0  0  0  0  0  0  0  0  0  0  0
    5.3614   -2.4159    0.0000 H   0  0  0  0  0  0  0  0  0  0  0  0
    4.9512   -4.5590    0.0000 H   0  0  0  0  0  0  0  0  0  0  0  0
    5.7606   -4.5333    0.0000 H   0  0  0  0  0  0  0  0  0  0  0  0
    6.9700   -3.6812    0.0000 H   0  0  0  0  0  0  0  0  0  0  0  0
    6.6844   -3.1924    0.0000 H   0  0  0  0  0  0  0  0  0  0  0  0
    6.2832   -5.3155    0.0000 H   0  0  0  0  0  0  0  0  0  0  0  0
    6.8495   -5.3187    0.0000 H   0  0  0  0  0  0  0  0  0  0  0  0
    7.7473   -5.2885    0.0000 H   0  0  0  0  0  0  0  0  0  0  0  0
    8.2182   -4.6056    0.0000 H   0  0  0  0  0  0  0  0  0  0  0  0
    7.8576   -3.8587    0.0000 H   0  0  0  0  0  0  0  0  0  0  0  0
    2.4456   -3.9383    0.0000 H   0  0  0  0  0  0  0  0  0  0  0  0
    3.9196   -3.2037    0.0000 H   0  0  0  0  0  0  0  0  0  0  0  0
    3.4819   -5.1104    0.0000 H   0  0  0  0  0  0  0  0  0  0  0  0
    3.9842   -4.3128    0.0000 H   0  0  0  0  0  0  0  0  0  0  0  0
    4.5540   -5.2313    0.0000 H   0  0  0  0  0  0  0  0  0  0  0  0
    4.6454   -4.4692    0.0000 H   0  0  0  0  0  0  0  0  0  0  0  0
    3.3520   -6.2267    0.0000 H   0  0  0  0  0  0  0  0  0  0  0  0
    4.0227   -6.3999    0.0000 H   0  0  0  0  0  0  0  0  0  0  0  0
    5.3691   -6.2692    0.0000 H   0  0  0  0  0  0  0  0  0  0  0  0
    5.3561   -5.6971    0.0000 H   0  0  0  0  0  0  0  0  0  0  0  0
    3.9195   -7.3078    0.0000 H   0  0  0  0  0  0  0  0  0  0  0  0
    4.4076   -7.6306    0.0000 H   0  0  0  0  0  0  0  0  0  0  0  0
    6.1271   -7.1903    0.0000 H   0  0  0  0  0  0  0  0  0  0  0  0
    5.7568   -6.5490    0.0000 H   0  0  0  0  0  0  0  0  0  0  0  0
    4.4785   -8.0633    0.0000 H   0  0  0  0  0  0  0  0  0  0  0  0
    5.3035   -8.8883    0.0000 H   0  0  0  0  0  0  0  0  0  0  0  0
    6.1285   -8.0633    0.0000 H   0  0  0  0  0  0  0  0  0  0  0  0
    1.0833   -2.1900    0.0000 H   0  0  0  0  0  0  0  0  0  0  0  0
    0.9289   -2.8932    0.0000 H   0  0  0  0  0  0  0  0  0  0  0  0
    1.7509   -1.0510    0.0000 H   0  0  0  0  0  0  0  0  0  0  0  0
    1.0373   -1.4294    0.0000 H   0  0  0  0  0  0  0  0  0  0  0  0
    3.1617   -1.0536    0.0000 H   0  0  0  0  0  0  0  0  0  0  0  0
    2.4522   -0.6383    0.0000 H   0  0  0  0  0  0  0  0  0  0  0  0
    3.9780   -1.9835    0.0000 H   0  0  0  0  0  0  0  0  0  0  0  0
    3.5733   -1.1617    0.0000 H   0  0  0  0  0  0  0  0  0  0  0  0
    4.6223   -1.1147    0.0000 H   0  0  0  0  0  0  0  0  0  0  0  0
    4.0181   -0.6509    0.0000 H   0  0  0  0  0  0  0  0  0  0  0  0
    3.9896   -2.4427    0.0000 H   0  0  0  0  0  0  0  0  0  0  0  0
    4.8837   -2.6464    0.0000 H   0  0  0  0  0  0  0  0  0  0  0  0
    5.9249   -0.9206    0.0000 H   0  0  0  0  0  0  0  0  0  0  0  0
    5.4215   -0.6468    0.0000 H   0  0  0  0  0  0  0  0  0  0  0  0
    6.1395   -2.6918    0.0000 H   0  0  0  0  0  0  0  0  0  0  0  0
    6.7802   -2.1914    0.0000 H   0  0  0  0  0  0  0  0  0  0  0  0
    6.6809   -1.3846    0.0000 H   0  0  0  0  0  0  0  0  0  0  0  0
  1  2  1  0  0  0  0
  2  3  1  0  0  0  0
  3  4  1  0  0  0  0
  4  5  1  0  0  0  0
  5  6  1  0  0  0  0
  6  7  1  0  0  0  0
  7  8  1  0  0  0  0
  8  9  1  0  0  0  0
  9 10  1  0  0  0  0
 10 11  1  0  0  0  0
 11 12  1  0  0  0  0
 12 13  1  0  0  0  0
 13 14  1  0  0  0  0
 14 15  1  0  0  0  0
 15 16  1  0  0  0  0
 16 17  1  0  0  0  0
  9 18  1  0  0  0  0
 18 19  1  0  0  0  0
 19 20  1  0  0  0  0
 20 21  1  0  0  0  0
 21 22  1  0  0  0  0
 22 23  1  0  0  0  0
 23 24  1  0  0  0  0
 24 25  1  0  0  0  0
  9 26  1  0  0  0  0
 26 27  1  0  0  0  0
 27 28  1  0  0  0  0
 28 29  1  0  0  0  0
 29 30  1  0  0  0  0
 30 31  1  0  0  0  0
 31 32  1  0  0  0  0
 32 33  1  0  0  0  0
  1 34  1  0  0  0  0
  1 35  1  0  0  0  0
  1 36  1  0  0  0  0
  2 37  1  0  0  0  0
  2 38  1  0  0  0  0
  3 39  1  0  0  0  0
  3 40  1  0  0  0  0
  4 41  1  0  0  0  0
  4 42  1  0  0  0  0
  5 43  1  0  0  0  0
  5 44  1  0  0  0  0
  6 45  1  0  0  0  0
  6 46  1  0  0  0  0
  7 47  1  0  0  0  0
  7 48  1  0  0  0  0
  8 49  1  0  0  0  0
  8 50  1  0  0  0  0
 10 51  1  0  0  0  0
 10 52  1  0  0  0  0
 11 53  1  0  0  0  0
 11 54  1  0  0  0  0
 12 55  1  0  0  0  0
 12 56  1  0  0  0  0
 13 57  1  0  0  0  0
 13 58  1  0  0  0  0
 14 59  1  0  0  0  0
 14 60  1  0  0  0  0
 15 61  1  0  0  0  0
 15 62  1  0  0  0  0
 16 63  1  0  0  0  0
 16 64  1  0  0  0  0
 17 65  1  0  0  0  0
 17 66  1  0  0  0  0
 17 67  1  0  0  0  0
 18 68  1  0  0  0  0
 18 69  1  0  0  0  0
 19 70  1  0  0  0  0
 19 71  1  0  0  0  0
 20 72  1  0  0  0  0
 20 73  1  0  0  0  0
 21 74  1  0  0  0  0
 21 75  1  0  0  0  0
 22 76  1  0  0  0  0
 22 77  1  0  0  0  0
 23 78  1  0  0  0  0
 23 79  1  0  0  0  0
 24 80  1  0  0  0  0
 24 81  1  0  0  0  0
 25 82  1  0  0  0  0
 25 83  1  0  0  0  0
 25 84  1  0  0  0  0
 26 85  1  0  0  0  0
 26 86  1  0  0  0  0
 27 87  1  0  0  0  0
 27 88  1  0  0  0  0
 28 89  1  0  0  0  0
 28 90  1  0  0  0  0
 29 91  1  0  0  0  0
 29 92  1  0  0  0  0
 30 93  1  0  0  0  0
 30 94  1  0  0  0  0
 31 95  1  0  0  0  0
 31 96  1  0  0  0  0
 32 97  1  0  0  0  0
 32 98  1  0  0  0  0
 33 99  1  0  0  0  0
 33100  1  0  0  0  0
 33101  1  0  0  0  0
M  CHG  1   9   1
M  END
>  <InChIKey>
InChI=1S/C32H68N/c1-5-9-13-17-21-25-29-33(30-26-22-18-14-10-6-2,31-27-23-19-15-11-7-3)32-28-24-20-16-12-8-4/h5-32H2,1-4H3/q+1

>  <UN GHS>
1

>  <CASRN>
14866-33-2

> <Outcome>
1

>  <Index>
1287

>  <StandardizerResult>
Clear Stereo (ID: ClearStereo)
Wedge Clean (ID: WedgeClean)
Mesomerize (ID: Mesomerize)
Tautomerize (ID: Tautomerize)
Add Explicit Hydrogens (ID: AddExplicitH)
Clean 2D (ID: Clean2D)

> <knn Distance>


> <CpId>
1287

$$$$
1289
  Mrv1532301301811342D          

 30 31  0  0  0  0            999 V2000
    2.1434    1.2375    0.0000 C   0  0  0  0  0  0  0  0  0  0  0  0
    2.1434    0.4125    0.0000 C   0  0  0  0  0  0  0  0  0  0  0  0
    2.1434   -0.4125    0.0000 C   0  0  0  0  0  0  0  0  0  0  0  0
    2.1434   -1.2375    0.0000 C   0  0  0  0  0  0  0  0  0  0  0  0
    2.8579   -1.6500    0.0000 C   0  0  0  0  0  0  0  0  0  0  0  0
    2.8579   -2.4750    0.0000 C   0  0  0  0  0  0  0  0  0  0  0  0
    3.5724   -2.8875    0.0000 C   0  0  0  0  0  0  0  0  0  0  0  0
    2.1434   -2.8875    0.0000 N   0  0  0  0  0  0  0  0  0  0  0  0
    1.4289   -2.4750    0.0000 C   0  0  0  0  0  0  0  0  0  0  0  0
    0.7145   -2.8875    0.0000 N   0  0  0  0  0  0  0  0  0  0  0  0
    0.0000   -2.4750    0.0000 C   0  0  0  0  0  0  0  0  0  0  0  0
   -0.7145   -2.8875    0.0000 C   0  0  0  0  0  0  0  0  0  0  0  0
   -1.4289   -2.4750    0.0000 C   0  0  0  0  0  0  0  0  0  0  0  0
   -1.4289   -1.6500    0.0000 C   0  0  0  0  0  0  0  0  0  0  0  0
   -0.7145   -1.2375    0.0000 C   0  0  0  0  0  0  0  0  0  0  0  0
    0.0000   -1.6500    0.0000 C   0  0  0  0  0  0  0  0  0  0  0  0
    1.4289   -1.6500    0.0000 N   0  0  0  0  0  0  0  0  0  0  0  0
    2.9684    1.2375    0.0000 H   0  0  0  0  0  0  0  0  0  0  0  0
    2.1434    2.0625    0.0000 H   0  0  0  0  0  0  0  0  0  0  0  0
    1.3184    1.2375    0.0000 H   0  0  0  0  0  0  0  0  0  0  0  0
    3.5724   -1.2375    0.0000 H   0  0  0  0  0  0  0  0  0  0  0  0
    3.1599   -3.6020    0.0000 H   0  0  0  0  0  0  0  0  0  0  0  0
    4.2868   -3.3000    0.0000 H   0  0  0  0  0  0  0  0  0  0  0  0
    3.9849   -2.1730    0.0000 H   0  0  0  0  0  0  0  0  0  0  0  0
    0.7145   -3.7125    0.0000 H   0  0  0  0  0  0  0  0  0  0  0  0
   -0.7145   -3.7125    0.0000 H   0  0  0  0  0  0  0  0  0  0  0  0
   -2.1434   -2.8875    0.0000 H   0  0  0  0  0  0  0  0  0  0  0  0
   -2.1434   -1.2375    0.0000 H   0  0  0  0  0  0  0  0  0  0  0  0
   -0.7145   -0.4125    0.0000 H   0  0  0  0  0  0  0  0  0  0  0  0
    0.7145   -1.2375    0.0000 H   0  0  0  0  0  0  0  0  0  0  0  0
  1  2  1  0  0  0  0
  2  3  3  0  0  0  0
  3  4  1  0  0  0  0
  4  5  4  0  0  0  0
  5  6  4  0  0  0  0
  6  7  1  0  0  0  0
  6  8  4  0  0  0  0
  8  9  4  0  0  0  0
  9 10  1  0  0  0  0
 10 11  1  0  0  0  0
 11 12  4  0  0  0  0
 12 13  4  0  0  0  0
 13 14  4  0  0  0  0
 14 15  4  0  0  0  0
 15 16  4  0  0  0  0
 11 16  4  0  0  0  0
  9 17  4  0  0  0  0
  4 17  4  0  0  0  0
  1 18  1  0  0  0  0
  1 19  1  0  0  0  0
  1 20  1  0  0  0  0
  5 21  1  0  0  0  0
  7 22  1  0  0  0  0
  7 23  1  0  0  0  0
  7 24  1  0  0  0  0
 10 25  1  0  0  0  0
 12 26  1  0  0  0  0
 13 27  1  0  0  0  0
 14 28  1  0  0  0  0
 15 29  1  0  0  0  0
 16 30  1  0  0  0  0
M  END
>  <InChIKey>
InChI=1S/C14H13N3/c1-3-7-13-10-11(2)15-14(17-13)16-12-8-5-4-6-9-12/h4-6,8-10H,1-2H3,(H,15,16,17)

>  <CASRN>
110235-47-7

> <Outcome>
1

>  <Index>
1289

>  <StandardizerResult>
Dearomatize (ID: Dearomatize)
Clear Stereo (ID: ClearStereo)
Wedge Clean (ID: WedgeClean)
Mesomerize (ID: Mesomerize)
Tautomerize (ID: Tautomerize)
Aromatize (ID: Aromatize)
Add Explicit Hydrogens (ID: AddExplicitH)
Neutralize (ID: Neutralize)
Clean 2D (ID: Clean2D)

> <knn Distance>


> <CpId>
1289

$$$$
1290
  Mrv1532301301811342D          

 16 15  0  0  0  0            999 V2000
    1.7095   -1.5201    0.0000 C   0  0  0  0  0  0  0  0  0  0  0  0
    1.2970   -0.8056    0.0000 C   0  0  0  0  0  0  0  0  0  0  0  0
    2.0115   -0.3931    0.0000 C   0  0  0  0  0  0  0  0  0  0  0  0
    0.5826   -1.2181    0.0000 C   0  0  0  0  0  0  0  0  0  0  0  0
    0.8845   -0.0911    0.0000 O   0  0  0  0  0  0  0  0  0  0  0  0
    0.0595   -0.0911    0.0000 O   0  0  0  0  0  0  0  0  0  0  0  0
    0.9951   -1.9326    0.0000 H   0  0  0  0  0  0  0  0  0  0  0  0
    2.1220   -2.2346    0.0000 H   0  0  0  0  0  0  0  0  0  0  0  0
    2.4240   -1.1076    0.0000 H   0  0  0  0  0  0  0  0  0  0  0  0
    2.8294   -0.2854    0.0000 H   0  0  0  0  0  0  0  0  0  0  0  0
    2.2250    0.4038    0.0000 H   0  0  0  0  0  0  0  0  0  0  0  0
    1.3570    0.1091    0.0000 H   0  0  0  0  0  0  0  0  0  0  0  0
    0.4749   -0.4002    0.0000 H   0  0  0  0  0  0  0  0  0  0  0  0
   -0.2143   -1.0046    0.0000 H   0  0  0  0  0  0  0  0  0  0  0  0
    0.0803   -1.8726    0.0000 H   0  0  0  0  0  0  0  0  0  0  0  0
   -0.4330    0.5707    0.0000 H   0  0  0  0  0  0  0  0  0  0  0  0
  1  2  1  0  0  0  0
  2  3  1  0  0  0  0
  2  4  1  0  0  0  0
  2  5  1  0  0  0  0
  5  6  1  0  0  0  0
  1  7  1  0  0  0  0
  1  8  1  0  0  0  0
  1  9  1  0  0  0  0
  3 10  1  0  0  0  0
  3 11  1  0  0  0  0
  3 12  1  0  0  0  0
  4 13  1  0  0  0  0
  4 14  1  0  0  0  0
  4 15  1  0  0  0  0
  6 16  1  0  0  0  0
M  END
>  <InChIKey>
InChI=1S/C4H10O2/c1-4(2,3)6-5/h5H,1-3H3

>  <UN GHS>
1

>  <CASRN>
75-91-2

> <Outcome>
1

>  <Index>
1290

>  <StandardizerResult>
Clear Stereo (ID: ClearStereo)
Wedge Clean (ID: WedgeClean)
Mesomerize (ID: Mesomerize)
Tautomerize (ID: Tautomerize)
Add Explicit Hydrogens (ID: AddExplicitH)
Neutralize (ID: Neutralize)
Clean 2D (ID: Clean2D)

> <knn Distance>


> <CpId>
1290

$$$$
1294
  Mrv1532301301811342D          

 31 32  0  0  0  0            999 V2000
   -1.4556   -4.1040    0.0000 C   0  0  0  0  0  0  0  0  0  0  0  0
   -1.4556   -3.2790    0.0000 O   0  0  0  0  0  0  0  0  0  0  0  0
   -0.7411   -2.8665    0.0000 P   0  0  0  0  0  0  0  0  0  0  0  0
   -0.3286   -3.5810    0.0000 S   0  0  0  0  0  0  0  0  0  0  0  0
   -1.1536   -2.1521    0.0000 O   0  0  0  0  0  0  0  0  0  0  0  0
   -0.7411   -1.4376    0.0000 C   0  0  0  0  0  0  0  0  0  0  0  0
   -0.0267   -2.4540    0.0000 S   0  0  0  0  0  0  0  0  0  0  0  0
   -0.0267   -1.6290    0.0000 C   0  0  0  0  0  0  0  0  0  0  0  0
    0.6878   -1.2165    0.0000 N   0  0  0  0  0  0  0  0  0  0  0  0
    0.6878   -0.3915    0.0000 N   0  0  0  0  0  0  0  0  0  0  0  0
    1.4023    0.0210    0.0000 N   0  0  0  0  0  0  0  0  0  0  0  0
    2.1167   -0.3915    0.0000 C   0  0  0  0  0  0  0  0  0  0  0  0
    2.8312    0.0210    0.0000 C   0  0  0  0  0  0  0  0  0  0  0  0
    3.5457   -0.3915    0.0000 C   0  0  0  0  0  0  0  0  0  0  0  0
    3.5457   -1.2165    0.0000 C   0  0  0  0  0  0  0  0  0  0  0  0
    2.8312   -1.6290    0.0000 C   0  0  0  0  0  0  0  0  0  0  0  0
    2.1167   -1.2165    0.0000 C   0  0  0  0  0  0  0  0  0  0  0  0
    1.4023   -1.6290    0.0000 C   0  0  0  0  0  0  0  0  0  0  0  0
    1.4023   -2.4540    0.0000 O   0  0  0  0  0  0  0  0  0  0  0  0
   -2.2806   -4.1040    0.0000 H   0  0  0  0  0  0  0  0  0  0  0  0
   -1.4556   -4.9290    0.0000 H   0  0  0  0  0  0  0  0  0  0  0  0
   -0.6306   -4.1040    0.0000 H   0  0  0  0  0  0  0  0  0  0  0  0
   -0.1972   -0.8173    0.0000 H   0  0  0  0  0  0  0  0  0  0  0  0
   -1.0568   -0.6754    0.0000 H   0  0  0  0  0  0  0  0  0  0  0  0
   -1.5644   -1.3836    0.0000 H   0  0  0  0  0  0  0  0  0  0  0  0
    0.6878   -2.0415    0.0000 H   0  0  0  0  0  0  0  0  0  0  0  0
   -0.6812   -2.1313    0.0000 H   0  0  0  0  0  0  0  0  0  0  0  0
    2.8312    0.8460    0.0000 H   0  0  0  0  0  0  0  0  0  0  0  0
    4.2602    0.0210    0.0000 H   0  0  0  0  0  0  0  0  0  0  0  0
    4.2602   -1.6290    0.0000 H   0  0  0  0  0  0  0  0  0  0  0  0
    2.8312   -2.4540    0.0000 H   0  0  0  0  0  0  0  0  0  0  0  0
  1  2  1  0  0  0  0
  2  3  1  0  0  0  0
  3  4  2  0  0  0  0
  3  5  1  0  0  0  0
  5  6  1  0  0  0  0
  3  7  1  0  0  0  0
  7  8  1  0  0  0  0
  8  9  1  0  0  0  0
  9 10  1  0  0  0  0
 10 11  2  0  0  0  0
 11 12  1  0  0  0  0
 12 13  4  0  0  0  0
 13 14  4  0  0  0  0
 14 15  4  0  0  0  0
 15 16  4  0  0  0  0
 16 17  4  0  0  0  0
 12 17  4  0  0  0  0
 17 18  1  0  0  0  0
  9 18  1  0  0  0  0
 18 19  2  0  0  0  0
  1 20  1  0  0  0  0
  1 21  1  0  0  0  0
  1 22  1  0  0  0  0
  6 23  1  0  0  0  0
  6 24  1  0  0  0  0
  6 25  1  0  0  0  0
  8 26  1  0  0  0  0
  8 27  1  0  0  0  0
 13 28  1  0  0  0  0
 14 29  1  0  0  0  0
 15 30  1  0  0  0  0
 16 31  1  0  0  0  0
M  END
>  <InChIKey>
InChI=1S/C10H12N3O3PS2/c1-15-17(18,16-2)19-7-13-10(14)8-5-3-4-6-9(8)11-12-13/h3-6H,7H2,1-2H3

>  <CASRN>
86-50-0

> <Outcome>
1

>  <Index>
1294

>  <StandardizerResult>
Dearomatize (ID: Dearomatize)
Clear Stereo (ID: ClearStereo)
Wedge Clean (ID: WedgeClean)
Mesomerize (ID: Mesomerize)
Tautomerize (ID: Tautomerize)
Aromatize (ID: Aromatize)
Add Explicit Hydrogens (ID: AddExplicitH)
Neutralize (ID: Neutralize)
Clean 2D (ID: Clean2D)

> <knn Distance>


> <CpId>
1294

$$$$
1296
  Mrv1532301301811342D          

 49 52  0  0  0  0            999 V2000
   -1.4457   -6.5814    0.0000 C   0  0  0  0  0  0  0  0  0  0  0  0
   -0.7312   -6.1689    0.0000 C   0  0  0  0  0  0  0  0  0  0  0  0
   -0.0167   -6.5814    0.0000 O   0  0  0  0  0  0  0  0  0  0  0  0
   -0.7312   -5.3439    0.0000 N   0  0  0  0  0  0  0  0  0  0  0  0
   -0.0167   -4.9314    0.0000 C   0  0  0  0  0  0  0  0  0  0  0  0
   -0.0167   -4.1064    0.0000 C   0  0  0  0  0  0  0  0  0  0  0  0
    0.6977   -3.6939    0.0000 C   0  0  0  0  0  0  0  0  0  0  0  0
    1.4122   -4.1064    0.0000 C   0  0  0  0  0  0  0  0  0  0  0  0
    2.1267   -3.6939    0.0000 N   0  0  0  0  0  0  0  0  0  0  0  0
    2.1267   -2.8689    0.0000 C   0  0  0  0  0  0  0  0  0  0  0  0
    1.4122   -2.4564    0.0000 C   0  0  0  0  0  0  0  0  0  0  0  0
    1.4122   -1.6314    0.0000 C   0  0  0  0  0  0  0  0  0  0  0  0
    2.1267   -1.2189    0.0000 C   0  0  0  0  0  0  0  0  0  0  0  0
    2.1267   -0.3939    0.0000 N   0  0  0  0  0  0  0  0  0  0  0  0
    2.8411   -1.6314    0.0000 C   0  0  0  0  0  0  0  0  0  0  0  0
    3.5556   -1.2189    0.0000 C   0  0  0  0  0  0  0  0  0  0  0  0
    3.5556   -0.3939    0.0000 O   0  0  0  0  0  0  0  0  0  0  0  0
    4.2701   -1.6314    0.0000 C   0  0  0  0  0  0  0  0  0  0  0  0
    4.9846   -1.2189    0.0000 C   0  0  0  0  0  0  0  0  0  0  0  0
    5.6990   -1.6314    0.0000 C   0  0  0  0  0  0  0  0  0  0  0  0
    5.6990   -2.4564    0.0000 C   0  0  0  0  0  0  0  0  0  0  0  0
    4.9846   -2.8689    0.0000 C   0  0  0  0  0  0  0  0  0  0  0  0
    4.2701   -2.4564    0.0000 C   0  0  0  0  0  0  0  0  0  0  0  0
    3.5556   -2.8689    0.0000 C   0  0  0  0  0  0  0  0  0  0  0  0
    3.5556   -3.6939    0.0000 O   0  0  0  0  0  0  0  0  0  0  0  0
    2.8411   -2.4564    0.0000 C   0  0  0  0  0  0  0  0  0  0  0  0
    0.6977   -1.2189    0.0000 S   0  0  0  0  0  0  0  0  0  0  0  0
   -0.0167   -0.8064    0.0000 O   0  0  0  0  0  0  0  0  0  0  0  0
    1.1102   -0.5044    0.0000 O   0  0  0  0  0  0  0  0  0  0  0  0
    0.2852   -1.9334    0.0000 O   0  0  0  0  0  0  0  0  0  0  0  0
    1.4122   -4.9314    0.0000 C   0  0  0  0  0  0  0  0  0  0  0  0
    0.6977   -5.3439    0.0000 C   0  0  0  0  0  0  0  0  0  0  0  0
   -1.8582   -5.8669    0.0000 H   0  0  0  0  0  0  0  0  0  0  0  0
   -2.1602   -6.9939    0.0000 H   0  0  0  0  0  0  0  0  0  0  0  0
   -1.0332   -7.2959    0.0000 H   0  0  0  0  0  0  0  0  0  0  0  0
   -1.4457   -4.9314    0.0000 H   0  0  0  0  0  0  0  0  0  0  0  0
   -0.7312   -3.6939    0.0000 H   0  0  0  0  0  0  0  0  0  0  0  0
    0.6977   -2.8689    0.0000 H   0  0  0  0  0  0  0  0  0  0  0  0
    2.8411   -4.1064    0.0000 H   0  0  0  0  0  0  0  0  0  0  0  0
    1.4122   -3.2814    0.0000 H   0  0  0  0  0  0  0  0  0  0  0  0
    2.8411    0.0186    0.0000 H   0  0  0  0  0  0  0  0  0  0  0  0
    1.4122    0.0186    0.0000 H   0  0  0  0  0  0  0  0  0  0  0  0
    4.9846   -0.3939    0.0000 H   0  0  0  0  0  0  0  0  0  0  0  0
    6.4135   -1.2189    0.0000 H   0  0  0  0  0  0  0  0  0  0  0  0
    6.4135   -2.8689    0.0000 H   0  0  0  0  0  0  0  0  0  0  0  0
    4.9846   -3.6939    0.0000 H   0  0  0  0  0  0  0  0  0  0  0  0
   -0.0167    0.0186    0.0000 H   0  0  0  0  0  0  0  0  0  0  0  0
    2.1267   -5.3439    0.0000 H   0  0  0  0  0  0  0  0  0  0  0  0
    0.6977   -6.1689    0.0000 H   0  0  0  0  0  0  0  0  0  0  0  0
  1  2  1  0  0  0  0
  2  3  2  0  0  0  0
  2  4  1  0  0  0  0
  4  5  1  0  0  0  0
  5  6  4  0  0  0  0
  6  7  4  0  0  0  0
  7  8  4  0  0  0  0
  8  9  1  0  0  0  0
  9 10  1  0  0  0  0
 10 11  4  0  0  0  0
 11 12  4  0  0  0  0
 12 13  4  0  0  0  0
 13 14  1  0  0  0  0
 13 15  4  0  0  0  0
 15 16  1  0  0  0  0
 16 17  2  0  0  0  0
 16 18  1  0  0  0  0
 18 19  4  0  0  0  0
 19 20  4  0  0  0  0
 20 21  4  0  0  0  0
 21 22  4  0  0  0  0
 22 23  4  0  0  0  0
 18 23  4  0  0  0  0
 23 24  1  0  0  0  0
 24 25  2  0  0  0  0
 24 26  1  0  0  0  0
 10 26  4  0  0  0  0
 15 26  4  0  0  0  0
 12 27  1  0  0  0  0
 27 28  1  0  0  0  0
 27 29  2  0  0  0  0
 27 30  2  0  0  0  0
  8 31  4  0  0  0  0
 31 32  4  0  0  0  0
  5 32  4  0  0  0  0
  1 33  1  0  0  0  0
  1 34  1  0  0  0  0
  1 35  1  0  0  0  0
  4 36  1  0  0  0  0
  6 37  1  0  0  0  0
  7 38  1  0  0  0  0
  9 39  1  0  0  0  0
 11 40  1  0  0  0  0
 14 41  1  0  0  0  0
 14 42  1  0  0  0  0
 19 43  1  0  0  0  0
 20 44  1  0  0  0  0
 21 45  1  0  0  0  0
 22 46  1  0  0  0  0
 28 47  1  0  0  0  0
 31 48  1  0  0  0  0
 32 49  1  0  0  0  0
M  END
>  <InChIKey>
InChI=1S/C22H17N3O6S/c1-11(26)24-12-6-8-13(9-7-12)25-16-10-17(32(29,30)31)20(23)19-18(16)21(27)14-4-2-3-5-15(14)22(19)28/h2-10,25H,23H2,1H3,(H,24,26)(H,29,30,31)

>  <UN GHS>
1

>  <CASRN>
6424-85-7

> <Outcome>
1

>  <Index>
1296

>  <StandardizerResult>
Dearomatize (ID: Dearomatize)
Clear Stereo (ID: ClearStereo)
Wedge Clean (ID: WedgeClean)
Mesomerize (ID: Mesomerize)
Tautomerize (ID: Tautomerize)
Aromatize (ID: Aromatize)
Add Explicit Hydrogens (ID: AddExplicitH)
Neutralize (ID: Neutralize)
Clean 2D (ID: Clean2D)

> <knn Distance>


> <CpId>
1296

$$$$
1297
  Mrv1532301301811342D          

 67 66  0  0  0  0            999 V2000
    5.7420    8.3785    0.0000 C   0  0  0  0  0  0  0  0  0  0  0  0
    5.8979    7.5683    0.0000 C   0  0  0  0  0  0  0  0  0  0  0  0
    5.2742    7.0283    0.0000 C   0  0  0  0  0  0  0  0  0  0  0  0
    5.4301    6.2181    0.0000 C   0  0  0  0  0  0  0  0  0  0  0  0
    4.8065    5.6780    0.0000 C   0  0  0  0  0  0  0  0  0  0  0  0
    4.9624    4.8679    0.0000 C   0  0  0  0  0  0  0  0  0  0  0  0
    4.3388    4.3278    0.0000 C   0  0  0  0  0  0  0  0  0  0  0  0
    4.4947    3.5177    0.0000 C   0  0  0  0  0  0  0  0  0  0  0  0
    5.2742    3.2476    0.0000 C   0  0  0  0  0  0  0  0  0  0  0  0
    5.4301    2.4375    0.0000 C   0  0  0  0  0  0  0  0  0  0  0  0
    6.2097    2.1674    0.0000 C   0  0  0  0  0  0  0  0  0  0  0  0
    6.8333    2.7075    0.0000 C   0  0  0  0  0  0  0  0  0  0  0  0
    7.6129    2.4375    0.0000 C   0  0  0  0  0  0  0  0  0  0  0  0
    8.2365    2.9776    0.0000 C   0  0  0  0  0  0  0  0  0  0  0  0
    9.0161    2.7075    0.0000 C   0  0  0  0  0  0  0  0  0  0  0  0
    9.6397    3.2476    0.0000 C   0  0  0  0  0  0  0  0  0  0  0  0
   10.4193    2.9776    0.0000 C   0  0  0  0  0  0  0  0  0  0  0  0
   11.0429    3.5177    0.0000 C   0  0  0  0  0  0  0  0  0  0  0  0
   10.8870    4.3278    0.0000 O   0  0  0  0  0  0  0  0  0  0  0  0
   11.8225    3.2476    0.0000 N   0  0  0  0  0  0  0  0  0  0  0  0
   12.4461    3.7877    0.0000 C   0  0  0  0  0  0  0  0  0  0  0  0
   13.2257    3.5177    0.0000 C   0  0  0  0  0  0  0  0  0  0  0  0
   13.8493    4.0578    0.0000 O   0  0  0  0  0  0  0  0  0  0  0  0
   11.9784    2.4375    0.0000 C   0  0  0  0  0  0  0  0  0  0  0  0
   12.7579    2.1674    0.0000 C   0  0  0  0  0  0  0  0  0  0  0  0
   12.9138    1.3573    0.0000 O   0  0  0  0  0  0  0  0  0  0  0  0
    6.5521    8.5344    0.0000 H   0  0  0  0  0  0  0  0  0  0  0  0
    5.5861    9.1886    0.0000 H   0  0  0  0  0  0  0  0  0  0  0  0
    4.9318    8.2226    0.0000 H   0  0  0  0  0  0  0  0  0  0  0  0
    6.4733    6.9772    0.0000 H   0  0  0  0  0  0  0  0  0  0  0  0
    6.7157    7.6769    0.0000 H   0  0  0  0  0  0  0  0  0  0  0  0
    4.6988    7.6194    0.0000 H   0  0  0  0  0  0  0  0  0  0  0  0
    4.4564    6.9197    0.0000 H   0  0  0  0  0  0  0  0  0  0  0  0
    6.0056    5.6269    0.0000 H   0  0  0  0  0  0  0  0  0  0  0  0
    6.2480    6.3267    0.0000 H   0  0  0  0  0  0  0  0  0  0  0  0
    4.2311    6.2692    0.0000 H   0  0  0  0  0  0  0  0  0  0  0  0
    3.9887    5.5695    0.0000 H   0  0  0  0  0  0  0  0  0  0  0  0
    5.7420    4.5978    0.0000 H   0  0  0  0  0  0  0  0  0  0  0  0
    3.5592    4.5978    0.0000 H   0  0  0  0  0  0  0  0  0  0  0  0
    3.6950    3.3149    0.0000 H   0  0  0  0  0  0  0  0  0  0  0  0
    4.1798    2.7551    0.0000 H   0  0  0  0  0  0  0  0  0  0  0  0
    5.8979    3.7877    0.0000 H   0  0  0  0  0  0  0  0  0  0  0  0
    4.8065    1.8974    0.0000 H   0  0  0  0  0  0  0  0  0  0  0  0
    5.9854    1.3735    0.0000 H   0  0  0  0  0  0  0  0  0  0  0  0
    6.7126    1.5135    0.0000 H   0  0  0  0  0  0  0  0  0  0  0  0
    7.0576    3.5015    0.0000 H   0  0  0  0  0  0  0  0  0  0  0  0
    6.3304    3.3615    0.0000 H   0  0  0  0  0  0  0  0  0  0  0  0
    7.3886    1.6436    0.0000 H   0  0  0  0  0  0  0  0  0  0  0  0
    8.1158    1.7835    0.0000 H   0  0  0  0  0  0  0  0  0  0  0  0
    8.4608    3.7715    0.0000 H   0  0  0  0  0  0  0  0  0  0  0  0
    7.7336    3.6316    0.0000 H   0  0  0  0  0  0  0  0  0  0  0  0
    8.7918    1.9136    0.0000 H   0  0  0  0  0  0  0  0  0  0  0  0
    9.5190    2.0535    0.0000 H   0  0  0  0  0  0  0  0  0  0  0  0
    9.8640    4.0416    0.0000 H   0  0  0  0  0  0  0  0  0  0  0  0
    9.1368    3.9016    0.0000 H   0  0  0  0  0  0  0  0  0  0  0  0
   10.1950    2.1836    0.0000 H   0  0  0  0  0  0  0  0  0  0  0  0
   10.9222    2.3236    0.0000 H   0  0  0  0  0  0  0  0  0  0  0  0
   12.6704    4.5816    0.0000 H   0  0  0  0  0  0  0  0  0  0  0  0
   11.9432    4.4417    0.0000 H   0  0  0  0  0  0  0  0  0  0  0  0
   13.0014    2.7237    0.0000 H   0  0  0  0  0  0  0  0  0  0  0  0
   13.7286    2.8637    0.0000 H   0  0  0  0  0  0  0  0  0  0  0  0
   14.6289    3.7877    0.0000 H   0  0  0  0  0  0  0  0  0  0  0  0
   11.1787    2.2347    0.0000 H   0  0  0  0  0  0  0  0  0  0  0  0
   11.6635    1.6750    0.0000 H   0  0  0  0  0  0  0  0  0  0  0  0
   13.5778    2.0759    0.0000 H   0  0  0  0  0  0  0  0  0  0  0  0
   12.1343    1.6274    0.0000 H   0  0  0  0  0  0  0  0  0  0  0  0
   13.4539    0.7337    0.0000 H   0  0  0  0  0  0  0  0  0  0  0  0
  1  2  1  0  0  0  0
  2  3  1  0  0  0  0
  3  4  1  0  0  0  0
  4  5  1  0  0  0  0
  6  5  1  4  0  0  0
  6  7  2  0  0  0  0
  7  8  1  0  0  0  0
  9  8  1  4  0  0  0
  9 10  2  0  0  0  0
 10 11  1  0  0  0  0
 11 12  1  0  0  0  0
 12 13  1  0  0  0  0
 13 14  1  0  0  0  0
 14 15  1  0  0  0  0
 15 16  1  0  0  0  0
 16 17  1  0  0  0  0
 17 18  1  0  0  0  0
 18 19  2  0  0  0  0
 18 20  1  0  0  0  0
 20 21  1  0  0  0  0
 21 22  1  0  0  0  0
 22 23  1  0  0  0  0
 20 24  1  0  0  0  0
 24 25  1  0  0  0  0
 25 26  1  0  0  0  0
  1 27  1  0  0  0  0
  1 28  1  0  0  0  0
  1 29  1  0  0  0  0
  2 30  1  0  0  0  0
  2 31  1  0  0  0  0
  3 32  1  0  0  0  0
  3 33  1  0  0  0  0
  4 34  1  0  0  0  0
  4 35  1  0  0  0  0
  5 36  1  0  0  0  0
  5 37  1  0  0  0  0
  6 38  1  0  0  0  0
  7 39  1  0  0  0  0
  8 40  1  0  0  0  0
  8 41  1  0  0  0  0
  9 42  1  0  0  0  0
 10 43  1  0  0  0  0
 11 44  1  0  0  0  0
 11 45  1  0  0  0  0
 12 46  1  0  0  0  0
 12 47  1  0  0  0  0
 13 48  1  0  0  0  0
 13 49  1  0  0  0  0
 14 50  1  0  0  0  0
 14 51  1  0  0  0  0
 15 52  1  0  0  0  0
 15 53  1  0  0  0  0
 16 54  1  0  0  0  0
 16 55  1  0  0  0  0
 17 56  1  0  0  0  0
 17 57  1  0  0  0  0
 21 58  1  0  0  0  0
 21 59  1  0  0  0  0
 22 60  1  0  0  0  0
 22 61  1  0  0  0  0
 23 62  1  0  0  0  0
 24 63  1  0  0  0  0
 24 64  1  0  0  0  0
 25 65  1  0  0  0  0
 25 66  1  0  0  0  0
 26 67  1  0  0  0  0
M  END
>  <InChIKey>
InChI=1S/C22H41NO3/c1-2-3-4-5-6-7-8-9-10-11-12-13-14-15-16-17-22(26)23(18-20-24)19-21-25/h6-7,9-10,24-25H,2-5,8,11-21H2,1H3

>  <CASRN>
56863-02-6

> <Outcome>
1

>  <Index>
1297

>  <StandardizerResult>
Clear Stereo (ID: ClearStereo)
Wedge Clean (ID: WedgeClean)
Mesomerize (ID: Mesomerize)
Tautomerize (ID: Tautomerize)
Add Explicit Hydrogens (ID: AddExplicitH)
Neutralize (ID: Neutralize)
Clean 2D (ID: Clean2D)

> <knn Distance>


> <CpId>
1297

$$$$
1299
  Mrv1532301301811342D          

 21 21  0  0  0  0            999 V2000
   -0.0000    2.4750    0.0000 C   0  0  0  0  0  0  0  0  0  0  0  0
    0.7145    2.0625    0.0000 N   0  0  0  0  0  0  0  0  0  0  0  0
    1.4289    2.4750    0.0000 C   0  0  0  0  0  0  0  0  0  0  0  0
    0.7145    1.2375    0.0000 C   0  0  0  0  0  0  0  0  0  0  0  0
    1.4289    0.8250    0.0000 C   0  0  0  0  0  0  0  0  0  0  0  0
    1.4289    0.0000    0.0000 C   0  0  0  0  0  0  0  0  0  0  0  0
    0.7145   -0.4125    0.0000 C   0  0  0  0  0  0  0  0  0  0  0  0
   -0.0000    0.0000    0.0000 C   0  0  0  0  0  0  0  0  0  0  0  0
   -0.0000    0.8250    0.0000 C   0  0  0  0  0  0  0  0  0  0  0  0
    0.7145   -1.2375    0.0000 N   0  0  0  0  0  0  0  0  0  0  0  0
    1.4289   -1.6500    0.0000 O   0  0  0  0  0  0  0  0  0  0  0  0
    0.4125    3.1895    0.0000 H   0  0  0  0  0  0  0  0  0  0  0  0
   -0.7145    2.8875    0.0000 H   0  0  0  0  0  0  0  0  0  0  0  0
   -0.4125    1.7605    0.0000 H   0  0  0  0  0  0  0  0  0  0  0  0
    1.8414    1.7605    0.0000 H   0  0  0  0  0  0  0  0  0  0  0  0
    2.1434    2.8875    0.0000 H   0  0  0  0  0  0  0  0  0  0  0  0
    1.0164    3.1895    0.0000 H   0  0  0  0  0  0  0  0  0  0  0  0
    2.1434    1.2375    0.0000 H   0  0  0  0  0  0  0  0  0  0  0  0
    2.1434   -0.4125    0.0000 H   0  0  0  0  0  0  0  0  0  0  0  0
   -0.7145   -0.4125    0.0000 H   0  0  0  0  0  0  0  0  0  0  0  0
   -0.7145    1.2375    0.0000 H   0  0  0  0  0  0  0  0  0  0  0  0
  1  2  1  0  0  0  0
  2  3  1  0  0  0  0
  2  4  1  0  0  0  0
  4  5  4  0  0  0  0
  5  6  4  0  0  0  0
  6  7  4  0  0  0  0
  7  8  4  0  0  0  0
  8  9  4  0  0  0  0
  4  9  4  0  0  0  0
  7 10  1  0  0  0  0
 10 11  2  0  0  0  0
  1 12  1  0  0  0  0
  1 13  1  0  0  0  0
  1 14  1  0  0  0  0
  3 15  1  0  0  0  0
  3 16  1  0  0  0  0
  3 17  1  0  0  0  0
  5 18  1  0  0  0  0
  6 19  1  0  0  0  0
  8 20  1  0  0  0  0
  9 21  1  0  0  0  0
M  END
>  <InChIKey>
InChI=1S/C8H10N2O/c1-10(2)8-5-3-7(9-11)4-6-8/h3-6H,1-2H3

>  <CASRN>
138-89-6

> <Outcome>
1

>  <Index>
1299

>  <StandardizerResult>
Dearomatize (ID: Dearomatize)
Clear Stereo (ID: ClearStereo)
Wedge Clean (ID: WedgeClean)
Mesomerize (ID: Mesomerize)
Tautomerize (ID: Tautomerize)
Aromatize (ID: Aromatize)
Add Explicit Hydrogens (ID: AddExplicitH)
Neutralize (ID: Neutralize)
Clean 2D (ID: Clean2D)

> <knn Distance>


> <CpId>
1299

$$$$
1302
  Mrv1532301301811342D          

 19 19  0  0  0  0            999 V2000
    0.7192    2.1138    0.0000 S   0  0  0  0  0  0  0  0  0  0  0  0
    0.7192    1.2888    0.0000 C   0  0  0  0  0  0  0  0  0  0  0  0
    1.4336    0.8763    0.0000 C   0  0  0  0  0  0  0  0  0  0  0  0
    1.4336    0.0513    0.0000 C   0  0  0  0  0  0  0  0  0  0  0  0
    0.7192   -0.3612    0.0000 C   0  0  0  0  0  0  0  0  0  0  0  0
    0.0047    0.0513    0.0000 C   0  0  0  0  0  0  0  0  0  0  0  0
    0.0047    0.8763    0.0000 C   0  0  0  0  0  0  0  0  0  0  0  0
    1.4336    2.5263    0.0000 H   0  0  0  0  0  0  0  0  0  0  0  0
    0.0047    1.7013    0.0000 H   0  0  0  0  0  0  0  0  0  0  0  0
    2.2573    0.9243    0.0000 H   0  0  0  0  0  0  0  0  0  0  0  0
    1.8870    1.5656    0.0000 H   0  0  0  0  0  0  0  0  0  0  0  0
    1.8870   -0.6380    0.0000 H   0  0  0  0  0  0  0  0  0  0  0  0
    2.2573    0.0033    0.0000 H   0  0  0  0  0  0  0  0  0  0  0  0
    0.3489   -1.0985    0.0000 H   0  0  0  0  0  0  0  0  0  0  0  0
    1.0894   -1.0985    0.0000 H   0  0  0  0  0  0  0  0  0  0  0  0
   -0.8189    0.0033    0.0000 H   0  0  0  0  0  0  0  0  0  0  0  0
   -0.4486   -0.6380    0.0000 H   0  0  0  0  0  0  0  0  0  0  0  0
   -0.7705    1.1584    0.0000 H   0  0  0  0  0  0  0  0  0  0  0  0
   -0.7705    0.5941    0.0000 H   0  0  0  0  0  0  0  0  0  0  0  0
  1  2  1  0  0  0  0
  2  3  1  0  0  0  0
  3  4  1  0  0  0  0
  4  5  1  0  0  0  0
  5  6  1  0  0  0  0
  6  7  1  0  0  0  0
  2  7  1  0  0  0  0
  1  8  1  0  0  0  0
  2  9  1  0  0  0  0
  3 10  1  0  0  0  0
  3 11  1  0  0  0  0
  4 12  1  0  0  0  0
  4 13  1  0  0  0  0
  5 14  1  0  0  0  0
  5 15  1  0  0  0  0
  6 16  1  0  0  0  0
  6 17  1  0  0  0  0
  7 18  1  0  0  0  0
  7 19  1  0  0  0  0
M  END
>  <InChIKey>
InChI=1S/C6H12S/c7-6-4-2-1-3-5-6/h6-7H,1-5H2

>  <CASRN>
1569-69-3

> <Outcome>
1

>  <Index>
1302

>  <StandardizerResult>
Clear Stereo (ID: ClearStereo)
Wedge Clean (ID: WedgeClean)
Mesomerize (ID: Mesomerize)
Tautomerize (ID: Tautomerize)
Add Explicit Hydrogens (ID: AddExplicitH)
Neutralize (ID: Neutralize)
Clean 2D (ID: Clean2D)

> <knn Distance>


> <CpId>
1302

$$$$
1303
  Mrv1532301301811342D          

 31 32  0  0  0  0            999 V2000
   -0.0236   -2.4934    0.0000 C   0  0  0  0  0  0  0  0  0  0  0  0
   -0.0236   -1.6684    0.0000 O   0  0  0  0  0  0  0  0  0  0  0  0
    0.6909   -1.2559    0.0000 C   0  0  0  0  0  0  0  0  0  0  0  0
    0.6909   -0.4309    0.0000 C   0  0  0  0  0  0  0  0  0  0  0  0
    1.4054   -0.0184    0.0000 C   0  0  0  0  0  0  0  0  0  0  0  0
    2.1199   -0.4309    0.0000 C   0  0  0  0  0  0  0  0  0  0  0  0
    2.8343   -0.0184    0.0000 C   0  0  0  0  0  0  0  0  0  0  0  0
    3.5488   -0.4309    0.0000 C   0  0  0  0  0  0  0  0  0  0  0  0
    3.5488   -1.2559    0.0000 C   0  0  0  0  0  0  0  0  0  0  0  0
    2.8343   -1.6684    0.0000 C   0  0  0  0  0  0  0  0  0  0  0  0
    2.1199   -1.2559    0.0000 C   0  0  0  0  0  0  0  0  0  0  0  0
    1.4054   -1.6684    0.0000 C   0  0  0  0  0  0  0  0  0  0  0  0
    4.2633   -0.0184    0.0000 C   0  0  0  0  0  0  0  0  0  0  0  0
    4.2633    0.8066    0.0000 C   0  0  0  0  0  0  0  0  0  0  0  0
    4.9777   -0.4309    0.0000 C   0  0  0  0  0  0  0  0  0  0  0  0
    5.6922   -0.0184    0.0000 O   0  0  0  0  0  0  0  0  0  0  0  0
    4.9777   -1.2559    0.0000 O   0  0  0  0  0  0  0  0  0  0  0  0
   -0.8486   -2.4934    0.0000 H   0  0  0  0  0  0  0  0  0  0  0  0
   -0.0236   -3.3184    0.0000 H   0  0  0  0  0  0  0  0  0  0  0  0
    0.8014   -2.4934    0.0000 H   0  0  0  0  0  0  0  0  0  0  0  0
   -0.0236   -0.0184    0.0000 H   0  0  0  0  0  0  0  0  0  0  0  0
    1.4054    0.8066    0.0000 H   0  0  0  0  0  0  0  0  0  0  0  0
    2.8343    0.8066    0.0000 H   0  0  0  0  0  0  0  0  0  0  0  0
    4.2633   -1.6684    0.0000 H   0  0  0  0  0  0  0  0  0  0  0  0
    2.8343   -2.4934    0.0000 H   0  0  0  0  0  0  0  0  0  0  0  0
    1.4054   -2.4934    0.0000 H   0  0  0  0  0  0  0  0  0  0  0  0
    3.5488    0.3941    0.0000 H   0  0  0  0  0  0  0  0  0  0  0  0
    5.0602    0.5931    0.0000 H   0  0  0  0  0  0  0  0  0  0  0  0
    4.6758    1.5211    0.0000 H   0  0  0  0  0  0  0  0  0  0  0  0
    3.6799    1.3899    0.0000 H   0  0  0  0  0  0  0  0  0  0  0  0
    6.5110   -0.1193    0.0000 H   0  0  0  0  0  0  0  0  0  0  0  0
  1  2  1  0  0  0  0
  2  3  1  0  0  0  0
  3  4  4  0  0  0  0
  4  5  4  0  0  0  0
  5  6  4  0  0  0  0
  6  7  4  0  0  0  0
  7  8  4  0  0  0  0
  8  9  4  0  0  0  0
  9 10  4  0  0  0  0
 10 11  4  0  0  0  0
  6 11  4  0  0  0  0
 11 12  4  0  0  0  0
  3 12  4  0  0  0  0
  8 13  1  0  0  0  0
 13 14  1  0  0  0  0
 13 15  1  0  0  0  0
 15 16  1  0  0  0  0
 15 17  2  0  0  0  0
  1 18  1  0  0  0  0
  1 19  1  0  0  0  0
  1 20  1  0  0  0  0
  4 21  1  0  0  0  0
  5 22  1  0  0  0  0
  7 23  1  0  0  0  0
  9 24  1  0  0  0  0
 10 25  1  0  0  0  0
 12 26  1  0  0  0  0
 13 27  1  0  0  0  0
 14 28  1  0  0  0  0
 14 29  1  0  0  0  0
 14 30  1  0  0  0  0
 16 31  1  0  0  0  0
M  END
>  <InChIKey>
InChI=1S/C14H14O3/c1-9(14(15)16)10-3-4-12-8-13(17-2)6-5-11(12)7-10/h3-9H,1-2H3,(H,15,16)

>  <CASRN>
22204-53-1

> <Outcome>
1

>  <Index>
1303

>  <StandardizerResult>
Dearomatize (ID: Dearomatize)
Clear Stereo (ID: ClearStereo)
Wedge Clean (ID: WedgeClean)
Mesomerize (ID: Mesomerize)
Tautomerize (ID: Tautomerize)
Aromatize (ID: Aromatize)
Add Explicit Hydrogens (ID: AddExplicitH)
Neutralize (ID: Neutralize)
Clean 2D (ID: Clean2D)

> <knn Distance>


> <CpId>
1303

$$$$
1306
  Mrv1532301301811342D          

 30 33  0  0  0  0            999 V2000
   -0.4012    0.7541    0.0000 O   0  0  0  0  0  0  0  0  0  0  0  0
   -0.6561   -0.0305    0.0000 C   0  0  0  0  0  0  0  0  0  0  0  0
   -0.1712   -0.6979    0.0000 C   0  0  0  0  0  0  0  0  0  0  0  0
   -0.6561   -1.3654    0.0000 N   0  0  0  0  0  0  0  0  0  0  0  0
   -1.4407   -1.1104    0.0000 C   0  0  0  0  0  0  0  0  0  0  0  0
   -2.1552   -1.5229    0.0000 C   0  0  0  0  0  0  0  0  0  0  0  0
   -2.8697   -1.1104    0.0000 C   0  0  0  0  0  0  0  0  0  0  0  0
   -2.8697   -0.2854    0.0000 C   0  0  0  0  0  0  0  0  0  0  0  0
   -2.1552    0.1271    0.0000 C   0  0  0  0  0  0  0  0  0  0  0  0
   -1.4407   -0.2854    0.0000 C   0  0  0  0  0  0  0  0  0  0  0  0
    0.6538   -0.6979    0.0000 C   0  0  0  0  0  0  0  0  0  0  0  0
    1.1387   -0.0305    0.0000 N   0  0  0  0  0  0  0  0  0  0  0  0
    1.9233   -0.2854    0.0000 C   0  0  0  0  0  0  0  0  0  0  0  0
    2.6378    0.1271    0.0000 C   0  0  0  0  0  0  0  0  0  0  0  0
    3.3523   -0.2854    0.0000 C   0  0  0  0  0  0  0  0  0  0  0  0
    3.3523   -1.1104    0.0000 C   0  0  0  0  0  0  0  0  0  0  0  0
    2.6378   -1.5229    0.0000 C   0  0  0  0  0  0  0  0  0  0  0  0
    1.9233   -1.1104    0.0000 C   0  0  0  0  0  0  0  0  0  0  0  0
    1.1387   -1.3654    0.0000 C   0  0  0  0  0  0  0  0  0  0  0  0
    0.8838   -2.1500    0.0000 O   0  0  0  0  0  0  0  0  0  0  0  0
   -0.4012   -2.1500    0.0000 H   0  0  0  0  0  0  0  0  0  0  0  0
   -2.1552   -2.3479    0.0000 H   0  0  0  0  0  0  0  0  0  0  0  0
   -3.5842   -1.5229    0.0000 H   0  0  0  0  0  0  0  0  0  0  0  0
   -3.5842    0.1271    0.0000 H   0  0  0  0  0  0  0  0  0  0  0  0
   -2.1552    0.9521    0.0000 H   0  0  0  0  0  0  0  0  0  0  0  0
    0.8838    0.7541    0.0000 H   0  0  0  0  0  0  0  0  0  0  0  0
    2.6378    0.9521    0.0000 H   0  0  0  0  0  0  0  0  0  0  0  0
    4.0668    0.1271    0.0000 H   0  0  0  0  0  0  0  0  0  0  0  0
    4.0668   -1.5229    0.0000 H   0  0  0  0  0  0  0  0  0  0  0  0
    2.6378   -2.3479    0.0000 H   0  0  0  0  0  0  0  0  0  0  0  0
  1  2  2  0  0  0  0
  3  2  1  4  0  0  0
  3  4  1  0  0  0  0
  4  5  1  0  0  0  0
  5  6  4  0  0  0  0
  6  7  4  0  0  0  0
  7  8  4  0  0  0  0
  8  9  4  0  0  0  0
  9 10  4  0  0  0  0
  2 10  1  0  0  0  0
  5 10  4  0  0  0  0
  3 11  2  0  0  0  0
 11 12  1  0  0  0  0
 12 13  1  0  0  0  0
 13 14  4  0  0  0  0
 14 15  4  0  0  0  0
 15 16  4  0  0  0  0
 16 17  4  0  0  0  0
 17 18  4  0  0  0  0
 13 18  4  0  0  0  0
 18 19  1  0  0  0  0
 11 19  1  0  0  0  0
 19 20  2  0  0  0  0
  4 21  1  0  0  0  0
  6 22  1  0  0  0  0
  7 23  1  0  0  0  0
  8 24  1  0  0  0  0
  9 25  1  0  0  0  0
 12 26  1  0  0  0  0
 14 27  1  0  0  0  0
 15 28  1  0  0  0  0
 16 29  1  0  0  0  0
 17 30  1  0  0  0  0
M  END
>  <InChIKey>
InChI=1S/C16H10N2O2/c19-15-9-5-1-3-7-11(9)17-13(15)14-16(20)10-6-2-4-8-12(10)18-14/h1-8,17-18H

>  <CASRN>
482-89-3

> <Outcome>
1

>  <Index>
1306

>  <StandardizerResult>
Dearomatize (ID: Dearomatize)
Clear Stereo (ID: ClearStereo)
Wedge Clean (ID: WedgeClean)
Mesomerize (ID: Mesomerize)
Tautomerize (ID: Tautomerize)
Aromatize (ID: Aromatize)
Add Explicit Hydrogens (ID: AddExplicitH)
Neutralize (ID: Neutralize)
Clean 2D (ID: Clean2D)

> <knn Distance>


> <CpId>
1306

$$$$
1309
  Mrv1532301301811342D          

 26 25  0  0  0  0            999 V2000
    1.6765    1.8750    0.0000 C   0  0  0  0  0  0  0  0  0  0  0  0
    2.3910    1.4625    0.0000 C   0  0  0  0  0  0  0  0  0  0  0  0
    2.3910    0.6375    0.0000 C   0  0  0  0  0  0  0  0  0  0  0  0
    3.1055    1.8750    0.0000 C   0  0  0  0  0  0  0  0  0  0  0  0
    3.8199    1.4625    0.0000 C   0  0  0  0  0  0  0  0  0  0  0  0
    3.8199    0.6375    0.0000 C   0  0  0  0  0  0  0  0  0  0  0  0
    4.5344    1.8750    0.0000 O   0  0  0  0  0  0  0  0  0  0  0  0
    5.2489    1.4625    0.0000 C   0  0  0  0  0  0  0  0  0  0  0  0
    5.9633    1.8750    0.0000 C   0  0  0  0  0  0  0  0  0  0  0  0
    5.2489    0.6375    0.0000 O   0  0  0  0  0  0  0  0  0  0  0  0
    2.0890    2.5894    0.0000 H   0  0  0  0  0  0  0  0  0  0  0  0
    0.9620    2.2875    0.0000 H   0  0  0  0  0  0  0  0  0  0  0  0
    1.2640    1.1605    0.0000 H   0  0  0  0  0  0  0  0  0  0  0  0
    1.6765    1.0500    0.0000 H   0  0  0  0  0  0  0  0  0  0  0  0
    1.8076    0.0541    0.0000 H   0  0  0  0  0  0  0  0  0  0  0  0
    2.8035   -0.0770    0.0000 H   0  0  0  0  0  0  0  0  0  0  0  0
    3.1879    0.8510    0.0000 H   0  0  0  0  0  0  0  0  0  0  0  0
    3.4757    2.6122    0.0000 H   0  0  0  0  0  0  0  0  0  0  0  0
    2.7352    2.6122    0.0000 H   0  0  0  0  0  0  0  0  0  0  0  0
    4.5344    1.0500    0.0000 H   0  0  0  0  0  0  0  0  0  0  0  0
    3.1743    0.1239    0.0000 H   0  0  0  0  0  0  0  0  0  0  0  0
    3.9014   -0.1835    0.0000 H   0  0  0  0  0  0  0  0  0  0  0  0
    4.5539    0.2608    0.0000 H   0  0  0  0  0  0  0  0  0  0  0  0
    6.3758    1.1605    0.0000 H   0  0  0  0  0  0  0  0  0  0  0  0
    6.6778    2.2875    0.0000 H   0  0  0  0  0  0  0  0  0  0  0  0
    5.5508    2.5894    0.0000 H   0  0  0  0  0  0  0  0  0  0  0  0
  1  2  1  0  0  0  0
  2  3  1  0  0  0  0
  2  4  1  0  0  0  0
  4  5  1  0  0  0  0
  5  6  1  0  0  0  0
  5  7  1  0  0  0  0
  7  8  1  0  0  0  0
  8  9  1  0  0  0  0
  8 10  2  0  0  0  0
  1 11  1  0  0  0  0
  1 12  1  0  0  0  0
  1 13  1  0  0  0  0
  2 14  1  0  0  0  0
  3 15  1  0  0  0  0
  3 16  1  0  0  0  0
  3 17  1  0  0  0  0
  4 18  1  0  0  0  0
  4 19  1  0  0  0  0
  5 20  1  0  0  0  0
  6 21  1  0  0  0  0
  6 22  1  0  0  0  0
  6 23  1  0  0  0  0
  9 24  1  0  0  0  0
  9 25  1  0  0  0  0
  9 26  1  0  0  0  0
M  END
>  <InChIKey>
InChI=1S/C8H16O2/c1-6(2)5-7(3)10-8(4)9/h6-7H,5H2,1-4H3

>  <CASRN>
108-84-9

> <Outcome>
1

>  <Index>
1309

>  <StandardizerResult>
Clear Stereo (ID: ClearStereo)
Wedge Clean (ID: WedgeClean)
Mesomerize (ID: Mesomerize)
Tautomerize (ID: Tautomerize)
Add Explicit Hydrogens (ID: AddExplicitH)
Neutralize (ID: Neutralize)
Clean 2D (ID: Clean2D)

> <knn Distance>


> <CpId>
1309

$$$$
1312
  Mrv1532301301811342D          

 21 20  0  0  0  0            999 V2000
    1.0461    1.4281    0.0000 C   0  0  0  0  0  0  0  0  0  0  0  0
    1.7605    1.8406    0.0000 C   0  0  0  0  0  0  0  0  0  0  0  0
    2.4750    1.4281    0.0000 C   0  0  0  0  0  0  0  0  0  0  0  0
    3.1895    1.8406    0.0000 C   0  0  0  0  0  0  0  0  0  0  0  0
    3.9040    1.4281    0.0000 O   0  0  0  0  0  0  0  0  0  0  0  0
    4.6184    1.8406    0.0000 C   0  0  0  0  0  0  0  0  0  0  0  0
    4.6184    2.6656    0.0000 O   0  0  0  0  0  0  0  0  0  0  0  0
    5.3329    1.4281    0.0000 C   0  0  0  0  0  0  0  0  0  0  0  0
    6.0474    1.8406    0.0000 C   0  0  0  0  0  0  0  0  0  0  0  0
    0.6336    2.1425    0.0000 H   0  0  0  0  0  0  0  0  0  0  0  0
    0.3316    1.0156    0.0000 H   0  0  0  0  0  0  0  0  0  0  0  0
    1.4586    0.7136    0.0000 H   0  0  0  0  0  0  0  0  0  0  0  0
    2.1308    2.5778    0.0000 H   0  0  0  0  0  0  0  0  0  0  0  0
    1.3903    2.5778    0.0000 H   0  0  0  0  0  0  0  0  0  0  0  0
    2.1048    0.6908    0.0000 H   0  0  0  0  0  0  0  0  0  0  0  0
    2.8453    0.6908    0.0000 H   0  0  0  0  0  0  0  0  0  0  0  0
    3.5597    2.5778    0.0000 H   0  0  0  0  0  0  0  0  0  0  0  0
    2.8192    2.5778    0.0000 H   0  0  0  0  0  0  0  0  0  0  0  0
    5.3329    0.6031    0.0000 H   0  0  0  0  0  0  0  0  0  0  0  0
    6.7618    1.4281    0.0000 H   0  0  0  0  0  0  0  0  0  0  0  0
    6.0474    2.6656    0.0000 H   0  0  0  0  0  0  0  0  0  0  0  0
  1  2  1  0  0  0  0
  2  3  1  0  0  0  0
  3  4  1  0  0  0  0
  4  5  1  0  0  0  0
  5  6  1  0  0  0  0
  6  7  2  0  0  0  0
  6  8  1  0  0  0  0
  8  9  2  0  0  0  0
  1 10  1  0  0  0  0
  1 11  1  0  0  0  0
  1 12  1  0  0  0  0
  2 13  1  0  0  0  0
  2 14  1  0  0  0  0
  3 15  1  0  0  0  0
  3 16  1  0  0  0  0
  4 17  1  0  0  0  0
  4 18  1  0  0  0  0
  8 19  1  0  0  0  0
  9 20  1  0  0  0  0
  9 21  1  0  0  0  0
M  END
>  <InChIKey>
InChI=1S/C7H12O2/c1-3-5-6-9-7(8)4-2/h4H,2-3,5-6H2,1H3

>  <CASRN>
141-32-2

> <Outcome>
1

>  <Index>
1312

>  <StandardizerResult>
Clear Stereo (ID: ClearStereo)
Wedge Clean (ID: WedgeClean)
Mesomerize (ID: Mesomerize)
Tautomerize (ID: Tautomerize)
Add Explicit Hydrogens (ID: AddExplicitH)
Neutralize (ID: Neutralize)
Clean 2D (ID: Clean2D)

> <knn Distance>


> <CpId>
1312

$$$$
1316
  Mrv1532301301811342D          

 26 27  0  0  0  0            999 V2000
   -0.4367   -0.9268    0.0000 C   0  0  0  0  0  0  0  0  0  0  0  0
   -0.1545   -0.1515    0.0000 C   0  0  0  0  0  0  0  0  0  0  0  0
   -0.9670   -0.0083    0.0000 C   0  0  0  0  0  0  0  0  0  0  0  0
    0.5599   -0.5640    0.0000 C   0  0  0  0  0  0  0  0  0  0  0  0
    1.2744   -0.1515    0.0000 C   0  0  0  0  0  0  0  0  0  0  0  0
    1.2744    0.6735    0.0000 C   0  0  0  0  0  0  0  0  0  0  0  0
    0.5599    1.0860    0.0000 C   0  0  0  0  0  0  0  0  0  0  0  0
    0.3537    0.2610    0.0000 C   0  0  0  0  0  0  0  0  0  0  0  0
   -0.1545    0.6735    0.0000 C   0  0  0  0  0  0  0  0  0  0  0  0
   -0.8690    1.0860    0.0000 C   0  0  0  0  0  0  0  0  0  0  0  0
   -1.2120   -0.6446    0.0000 H   0  0  0  0  0  0  0  0  0  0  0  0
   -0.7189   -1.7020    0.0000 H   0  0  0  0  0  0  0  0  0  0  0  0
    0.3385   -1.2089    0.0000 H   0  0  0  0  0  0  0  0  0  0  0  0
   -0.4907    0.6653    0.0000 H   0  0  0  0  0  0  0  0  0  0  0  0
   -1.3729    0.7100    0.0000 H   0  0  0  0  0  0  0  0  0  0  0  0
   -1.7898   -0.0688    0.0000 H   0  0  0  0  0  0  0  0  0  0  0  0
    1.1968   -1.0885    0.0000 H   0  0  0  0  0  0  0  0  0  0  0  0
    2.0344   -0.4725    0.0000 H   0  0  0  0  0  0  0  0  0  0  0  0
    2.0583    0.1056    0.0000 H   0  0  0  0  0  0  0  0  0  0  0  0
    1.9386    1.1628    0.0000 H   0  0  0  0  0  0  0  0  0  0  0  0
    1.4502    1.4795    0.0000 H   0  0  0  0  0  0  0  0  0  0  0  0
    0.5599    1.9110    0.0000 H   0  0  0  0  0  0  0  0  0  0  0  0
    1.0994   -0.0919    0.0000 H   0  0  0  0  0  0  0  0  0  0  0  0
    1.0994    0.6138    0.0000 H   0  0  0  0  0  0  0  0  0  0  0  0
   -0.5328    1.8393    0.0000 H   0  0  0  0  0  0  0  0  0  0  0  0
   -1.2912    1.7948    0.0000 H   0  0  0  0  0  0  0  0  0  0  0  0
  1  2  1  0  0  0  0
  2  3  1  0  0  0  0
  2  4  1  0  0  0  0
  4  5  1  0  0  0  0
  5  6  1  0  0  0  0
  6  7  1  0  0  0  0
  7  8  1  0  0  0  0
  4  8  1  0  0  0  0
  7  9  1  0  0  0  0
  2  9  1  0  0  0  0
  9 10  2  0  0  0  0
  1 11  1  0  0  0  0
  1 12  1  0  0  0  0
  1 13  1  0  0  0  0
  3 14  1  0  0  0  0
  3 15  1  0  0  0  0
  3 16  1  0  0  0  0
  4 17  1  0  0  0  0
  5 18  1  0  0  0  0
  5 19  1  0  0  0  0
  6 20  1  0  0  0  0
  6 21  1  0  0  0  0
  7 22  1  0  0  0  0
  8 23  1  0  0  0  0
  8 24  1  0  0  0  0
 10 25  1  4  0  0  0
 10 26  1  0  0  0  0
M  END
>  <InChIKey>
InChI=1S/C10H16/c1-7-8-4-5-9(6-8)10(7,2)3/h8-9H,1,4-6H2,2-3H3

>  <UN GHS>
2B

>  <CASRN>
79-92-5

> <Outcome>
1

>  <Index>
1316

>  <StandardizerResult>
Clear Stereo (ID: ClearStereo)
Wedge Clean (ID: WedgeClean)
Mesomerize (ID: Mesomerize)
Tautomerize (ID: Tautomerize)
Add Explicit Hydrogens (ID: AddExplicitH)
Neutralize (ID: Neutralize)
Clean 2D (ID: Clean2D)

> <knn Distance>


> <CpId>
1316

$$$$
1317
  Mrv1532301301811342D          

 14 14  0  0  0  0            999 V2000
    0.7145    2.0625    0.0000 Cl  0  0  0  0  0  0  0  0  0  0  0  0
    0.7145    1.2375    0.0000 C   0  0  0  0  0  0  0  0  0  0  0  0
    1.4289    0.8250    0.0000 C   0  0  0  0  0  0  0  0  0  0  0  0
    2.1434    1.2375    0.0000 Cl  0  0  0  0  0  0  0  0  0  0  0  0
    1.4289   -0.0000    0.0000 C   0  0  0  0  0  0  0  0  0  0  0  0
    2.1434   -0.4125    0.0000 C   0  0  0  0  0  0  0  0  0  0  0  0
    2.8579   -0.8250    0.0000 N   0  0  0  0  0  0  0  0  0  0  0  0
    0.7145   -0.4125    0.0000 C   0  0  0  0  0  0  0  0  0  0  0  0
    0.7145   -1.2375    0.0000 Cl  0  0  0  0  0  0  0  0  0  0  0  0
    0.0000    0.0000    0.0000 C   0  0  0  0  0  0  0  0  0  0  0  0
   -0.7145   -0.4125    0.0000 C   0  0  0  0  0  0  0  0  0  0  0  0
   -1.4289   -0.8250    0.0000 N   0  0  0  0  0  0  0  0  0  0  0  0
    0.0000    0.8250    0.0000 C   0  0  0  0  0  0  0  0  0  0  0  0
   -0.7145    1.2375    0.0000 Cl  0  0  0  0  0  0  0  0  0  0  0  0
  1  2  1  0  0  0  0
  2  3  4  0  0  0  0
  3  4  1  0  0  0  0
  3  5  4  0  0  0  0
  5  6  1  0  0  0  0
  6  7  3  0  0  0  0
  5  8  4  0  0  0  0
  8  9  1  0  0  0  0
  8 10  4  0  0  0  0
 10 11  1  0  0  0  0
 11 12  3  0  0  0  0
 10 13  4  0  0  0  0
  2 13  4  0  0  0  0
 13 14  1  0  0  0  0
M  END
>  <InChIKey>
InChI=1S/C8Cl4N2/c9-5-3(1-13)6(10)8(12)7(11)4(5)2-14

>  <CASRN>
1897-45-6

> <Outcome>
1

>  <Index>
1317

>  <StandardizerResult>
Dearomatize (ID: Dearomatize)
Clear Stereo (ID: ClearStereo)
Wedge Clean (ID: WedgeClean)
Mesomerize (ID: Mesomerize)
Tautomerize (ID: Tautomerize)
Aromatize (ID: Aromatize)
Clean 2D (ID: Clean2D)

> <knn Distance>


> <CpId>
1317

$$$$
1318
  Mrv1532301301811342D          

 17 16  0  0  0  0            999 V2000
    0.8250   -0.8250    0.0000 C   0  0  0  0  0  0  0  0  0  0  0  0
    0.8250    0.0000    0.0000 C   0  0  0  0  0  0  0  0  0  0  0  0
    0.8250    0.8250    0.0000 C   0  0  0  0  0  0  0  0  0  0  0  0
    1.6500   -0.0000    0.0000 C   0  0  0  0  0  0  0  0  0  0  0  0
    0.0000    0.0000    0.0000 C   0  0  0  0  0  0  0  0  0  0  0  0
    0.0000   -0.8250    0.0000 H   0  0  0  0  0  0  0  0  0  0  0  0
    0.8250   -1.6500    0.0000 H   0  0  0  0  0  0  0  0  0  0  0  0
    1.6500   -0.8250    0.0000 H   0  0  0  0  0  0  0  0  0  0  0  0
    1.6500    0.8250    0.0000 H   0  0  0  0  0  0  0  0  0  0  0  0
    0.8250    1.6500    0.0000 H   0  0  0  0  0  0  0  0  0  0  0  0
    0.0000    0.8250    0.0000 H   0  0  0  0  0  0  0  0  0  0  0  0
    2.2334   -0.5834    0.0000 H   0  0  0  0  0  0  0  0  0  0  0  0
    2.4750   -0.0000    0.0000 H   0  0  0  0  0  0  0  0  0  0  0  0
    2.2334    0.5834    0.0000 H   0  0  0  0  0  0  0  0  0  0  0  0
   -0.5834    0.5834    0.0000 H   0  0  0  0  0  0  0  0  0  0  0  0
   -0.8250    0.0000    0.0000 H   0  0  0  0  0  0  0  0  0  0  0  0
   -0.5834   -0.5834    0.0000 H   0  0  0  0  0  0  0  0  0  0  0  0
  1  2  1  0  0  0  0
  2  3  1  0  0  0  0
  2  4  1  0  0  0  0
  2  5  1  0  0  0  0
  1  6  1  0  0  0  0
  1  7  1  0  0  0  0
  1  8  1  0  0  0  0
  3  9  1  0  0  0  0
  3 10  1  0  0  0  0
  3 11  1  0  0  0  0
  4 12  1  0  0  0  0
  4 13  1  0  0  0  0
  4 14  1  0  0  0  0
  5 15  1  0  0  0  0
  5 16  1  0  0  0  0
  5 17  1  0  0  0  0
M  END
>  <InChIKey>
InChI=1S/C5H12/c1-5(2,3)4/h1-4H3

>  <CASRN>
463-82-1

> <Outcome>
1

>  <Index>
1318

>  <StandardizerResult>
Clear Stereo (ID: ClearStereo)
Wedge Clean (ID: WedgeClean)
Mesomerize (ID: Mesomerize)
Tautomerize (ID: Tautomerize)
Add Explicit Hydrogens (ID: AddExplicitH)
Neutralize (ID: Neutralize)
Clean 2D (ID: Clean2D)

> <knn Distance>


> <CpId>
1318

$$$$
1319
  Mrv1532301301811342D          

 10  9  0  0  0  0            999 V2000
    1.2375    0.7145    0.0000 C   0  0  0  0  0  0  0  0  0  0  0  0
    0.8250   -0.0000    0.0000 C   0  0  0  0  0  0  0  0  0  0  0  0
    1.2375   -0.7145    0.0000 C   0  0  0  0  0  0  0  0  0  0  0  0
   -0.0000   -0.0000    0.0000 O   0  0  0  0  0  0  0  0  0  0  0  0
    1.9520    0.3020    0.0000 H   0  0  0  0  0  0  0  0  0  0  0  0
    1.6500    1.4289    0.0000 H   0  0  0  0  0  0  0  0  0  0  0  0
    0.5230    1.1270    0.0000 H   0  0  0  0  0  0  0  0  0  0  0  0
    0.5230   -1.1270    0.0000 H   0  0  0  0  0  0  0  0  0  0  0  0
    1.6500   -1.4289    0.0000 H   0  0  0  0  0  0  0  0  0  0  0  0
    1.9520   -0.3020    0.0000 H   0  0  0  0  0  0  0  0  0  0  0  0
  1  2  1  0  0  0  0
  2  3  1  0  0  0  0
  2  4  2  0  0  0  0
  1  5  1  0  0  0  0
  1  6  1  0  0  0  0
  1  7  1  0  0  0  0
  3  8  1  0  0  0  0
  3  9  1  0  0  0  0
  3 10  1  0  0  0  0
M  END
>  <InChIKey>
InChI=1S/C3H6O/c1-3(2)4/h1-2H3

>  <UN GHS>
2A

>  <CASRN>
67-64-1  67-64-1

> <Outcome>
1

>  <Index>
1319

>  <StandardizerResult>
Clear Stereo (ID: ClearStereo)
Wedge Clean (ID: WedgeClean)
Mesomerize (ID: Mesomerize)
Tautomerize (ID: Tautomerize)
Add Explicit Hydrogens (ID: AddExplicitH)
Neutralize (ID: Neutralize)
Clean 2D (ID: Clean2D)

> <knn Distance>


> <CpId>
1319

$$$$
1321
  Mrv1532301301811342D          

 19 20  0  0  0  0            999 V2000
    1.4289   -2.4750    0.0000 O   0  0  0  0  0  0  0  0  0  0  0  0
    1.4289   -1.6500    0.0000 C   0  0  0  0  0  0  0  0  0  0  0  0
    0.7145   -1.2375    0.0000 C   0  0  0  0  0  0  0  0  0  0  0  0
    0.7145   -0.4125    0.0000 C   0  0  0  0  0  0  0  0  0  0  0  0
    0.0000    0.0000    0.0000 O   0  0  0  0  0  0  0  0  0  0  0  0
    1.4289    0.0000    0.0000 C   0  0  0  0  0  0  0  0  0  0  0  0
    1.4289    0.8250    0.0000 O   0  0  0  0  0  0  0  0  0  0  0  0
    2.1434   -0.4125    0.0000 C   0  0  0  0  0  0  0  0  0  0  0  0
    2.8579    0.0000    0.0000 C   0  0  0  0  0  0  0  0  0  0  0  0
    3.5724   -0.4125    0.0000 C   0  0  0  0  0  0  0  0  0  0  0  0
    3.5724   -1.2375    0.0000 C   0  0  0  0  0  0  0  0  0  0  0  0
    2.8579   -1.6500    0.0000 C   0  0  0  0  0  0  0  0  0  0  0  0
    2.1434   -1.2375    0.0000 C   0  0  0  0  0  0  0  0  0  0  0  0
    0.7145   -2.8875    0.0000 H   0  0  0  0  0  0  0  0  0  0  0  0
    0.0000   -1.6500    0.0000 H   0  0  0  0  0  0  0  0  0  0  0  0
    2.8579    0.8250    0.0000 H   0  0  0  0  0  0  0  0  0  0  0  0
    4.2868    0.0000    0.0000 H   0  0  0  0  0  0  0  0  0  0  0  0
    4.2868   -1.6500    0.0000 H   0  0  0  0  0  0  0  0  0  0  0  0
    2.8579   -2.4750    0.0000 H   0  0  0  0  0  0  0  0  0  0  0  0
  1  2  1  0  0  0  0
  2  3  2  0  0  0  0
  3  4  1  0  0  0  0
  4  5  2  0  0  0  0
  4  6  1  0  0  0  0
  6  7  2  0  0  0  0
  6  8  1  0  0  0  0
  8  9  4  0  0  0  0
  9 10  4  0  0  0  0
 10 11  4  0  0  0  0
 11 12  4  0  0  0  0
 12 13  4  0  0  0  0
  2 13  1  0  0  0  0
  8 13  4  0  0  0  0
  1 14  1  0  0  0  0
  3 15  1  0  0  0  0
  9 16  1  0  0  0  0
 10 17  1  0  0  0  0
 11 18  1  0  0  0  0
 12 19  1  0  0  0  0
M  END
>  <InChIKey>
InChI=1S/C10H6O3/c11-8-5-9(12)10(13)7-4-2-1-3-6(7)8/h1-5,11H

>  <UN GHS>
2B

>  <CASRN>
83-72-7

> <Outcome>
1

>  <Index>
1321

>  <StandardizerResult>
Dearomatize (ID: Dearomatize)
Clear Stereo (ID: ClearStereo)
Wedge Clean (ID: WedgeClean)
Mesomerize (ID: Mesomerize)
Tautomerize (ID: Tautomerize)
Aromatize (ID: Aromatize)
Add Explicit Hydrogens (ID: AddExplicitH)
Neutralize (ID: Neutralize)
Clean 2D (ID: Clean2D)

> <knn Distance>


> <CpId>
1321

$$$$
1322
  Mrv1532301301811342D          

 15 15  0  0  0  0            999 V2000
    0.7145    2.8875    0.0000 Cl  0  0  0  0  0  0  0  0  0  0  0  0
    0.7145    2.0625    0.0000 S   0  0  0  0  0  0  0  0  0  0  0  0
   -0.1105    2.0625    0.0000 O   0  0  0  0  0  0  0  0  0  0  0  0
    1.5395    2.0625    0.0000 O   0  0  0  0  0  0  0  0  0  0  0  0
    0.7145    1.2375    0.0000 C   0  0  0  0  0  0  0  0  0  0  0  0
    1.4289    0.8250    0.0000 C   0  0  0  0  0  0  0  0  0  0  0  0
    1.4289    0.0000    0.0000 C   0  0  0  0  0  0  0  0  0  0  0  0
    0.7145   -0.4125    0.0000 C   0  0  0  0  0  0  0  0  0  0  0  0
    0.0000    0.0000    0.0000 C   0  0  0  0  0  0  0  0  0  0  0  0
    0.0000    0.8250    0.0000 C   0  0  0  0  0  0  0  0  0  0  0  0
    2.1434    1.2375    0.0000 H   0  0  0  0  0  0  0  0  0  0  0  0
    2.1434   -0.4125    0.0000 H   0  0  0  0  0  0  0  0  0  0  0  0
    0.7145   -1.2375    0.0000 H   0  0  0  0  0  0  0  0  0  0  0  0
   -0.7145   -0.4125    0.0000 H   0  0  0  0  0  0  0  0  0  0  0  0
   -0.7145    1.2375    0.0000 H   0  0  0  0  0  0  0  0  0  0  0  0
  1  2  1  0  0  0  0
  2  3  2  0  0  0  0
  2  4  2  0  0  0  0
  2  5  1  0  0  0  0
  5  6  4  0  0  0  0
  6  7  4  0  0  0  0
  7  8  4  0  0  0  0
  8  9  4  0  0  0  0
  9 10  4  0  0  0  0
  5 10  4  0  0  0  0
  6 11  1  0  0  0  0
  7 12  1  0  0  0  0
  8 13  1  0  0  0  0
  9 14  1  0  0  0  0
 10 15  1  0  0  0  0
M  END
>  <InChIKey>
InChI=1S/C6H5ClO2S/c7-10(8,9)6-4-2-1-3-5-6/h1-5H

>  <UN GHS>
1

>  <CASRN>
98-09-9

> <Outcome>
1

>  <Index>
1322

>  <StandardizerResult>
Dearomatize (ID: Dearomatize)
Clear Stereo (ID: ClearStereo)
Wedge Clean (ID: WedgeClean)
Mesomerize (ID: Mesomerize)
Tautomerize (ID: Tautomerize)
Aromatize (ID: Aromatize)
Add Explicit Hydrogens (ID: AddExplicitH)
Neutralize (ID: Neutralize)
Clean 2D (ID: Clean2D)

> <knn Distance>


> <CpId>
1322

$$$$
1324
  Mrv1532301301811342D          

 18 18  0  0  0  0            999 V2000
    0.7011    2.0676    0.0000 C   0  0  0  0  0  0  0  0  0  0  0  0
    0.7011    1.2426    0.0000 C   0  0  0  0  0  0  0  0  0  0  0  0
    1.4156    0.8301    0.0000 C   0  0  0  0  0  0  0  0  0  0  0  0
    1.4156    0.0051    0.0000 C   0  0  0  0  0  0  0  0  0  0  0  0
    0.7011   -0.4074    0.0000 C   0  0  0  0  0  0  0  0  0  0  0  0
   -0.0134    0.0051    0.0000 C   0  0  0  0  0  0  0  0  0  0  0  0
   -0.0134    0.8301    0.0000 C   0  0  0  0  0  0  0  0  0  0  0  0
   -0.7279    1.2426    0.0000 C   0  0  0  0  0  0  0  0  0  0  0  0
    1.5261    2.0676    0.0000 H   0  0  0  0  0  0  0  0  0  0  0  0
    0.7011    2.8926    0.0000 H   0  0  0  0  0  0  0  0  0  0  0  0
   -0.1239    2.0676    0.0000 H   0  0  0  0  0  0  0  0  0  0  0  0
    2.1300    1.2426    0.0000 H   0  0  0  0  0  0  0  0  0  0  0  0
    2.1300   -0.4074    0.0000 H   0  0  0  0  0  0  0  0  0  0  0  0
    0.7011   -1.2324    0.0000 H   0  0  0  0  0  0  0  0  0  0  0  0
   -0.7279   -0.4074    0.0000 H   0  0  0  0  0  0  0  0  0  0  0  0
   -0.3154    1.9571    0.0000 H   0  0  0  0  0  0  0  0  0  0  0  0
   -1.4423    1.6551    0.0000 H   0  0  0  0  0  0  0  0  0  0  0  0
   -1.1404    0.5282    0.0000 H   0  0  0  0  0  0  0  0  0  0  0  0
  1  2  1  0  0  0  0
  2  3  4  0  0  0  0
  3  4  4  0  0  0  0
  4  5  4  0  0  0  0
  5  6  4  0  0  0  0
  6  7  4  0  0  0  0
  2  7  4  0  0  0  0
  7  8  1  0  0  0  0
  1  9  1  0  0  0  0
  1 10  1  0  0  0  0
  1 11  1  0  0  0  0
  3 12  1  0  0  0  0
  4 13  1  0  0  0  0
  5 14  1  0  0  0  0
  6 15  1  0  0  0  0
  8 16  1  0  0  0  0
  8 17  1  0  0  0  0
  8 18  1  0  0  0  0
M  END
>  <InChIKey>
InChI=1S/C8H10/c1-7-5-3-4-6-8(7)2/h3-6H,1-2H3

>  <CASRN>
95-47-6  95-47-6

> <Outcome>
1

>  <Index>
1324

>  <StandardizerResult>
Dearomatize (ID: Dearomatize)
Clear Stereo (ID: ClearStereo)
Wedge Clean (ID: WedgeClean)
Mesomerize (ID: Mesomerize)
Tautomerize (ID: Tautomerize)
Aromatize (ID: Aromatize)
Add Explicit Hydrogens (ID: AddExplicitH)
Neutralize (ID: Neutralize)
Clean 2D (ID: Clean2D)

> <knn Distance>


> <CpId>
1324

$$$$
1330
  Mrv1532301301811342D          

 26 27  0  0  0  0            999 V2000
    0.0000   -4.1250    0.0000 C   0  0  0  0  0  0  0  0  0  0  0  0
    0.7145   -3.7125    0.0000 N   0  0  0  0  0  0  0  0  0  0  0  0
    0.7145   -2.8875    0.0000 C   0  0  0  0  0  0  0  0  0  0  0  0
    0.0000   -2.4750    0.0000 O   0  0  0  0  0  0  0  0  0  0  0  0
    1.4289   -2.4750    0.0000 O   0  0  0  0  0  0  0  0  0  0  0  0
    1.4289   -1.6500    0.0000 C   0  0  0  0  0  0  0  0  0  0  0  0
    0.7145   -1.2375    0.0000 C   0  0  0  0  0  0  0  0  0  0  0  0
    0.7145   -0.4125    0.0000 C   0  0  0  0  0  0  0  0  0  0  0  0
    1.4289    0.0000    0.0000 C   0  0  0  0  0  0  0  0  0  0  0  0
    2.1434   -0.4125    0.0000 C   0  0  0  0  0  0  0  0  0  0  0  0
    2.8579    0.0000    0.0000 C   0  0  0  0  0  0  0  0  0  0  0  0
    3.5724   -0.4125    0.0000 C   0  0  0  0  0  0  0  0  0  0  0  0
    3.5724   -1.2375    0.0000 C   0  0  0  0  0  0  0  0  0  0  0  0
    2.8579   -1.6500    0.0000 C   0  0  0  0  0  0  0  0  0  0  0  0
    2.1434   -1.2375    0.0000 C   0  0  0  0  0  0  0  0  0  0  0  0
   -0.4125   -3.4105    0.0000 H   0  0  0  0  0  0  0  0  0  0  0  0
   -0.7145   -4.5375    0.0000 H   0  0  0  0  0  0  0  0  0  0  0  0
    0.4125   -4.8395    0.0000 H   0  0  0  0  0  0  0  0  0  0  0  0
    1.4289   -4.1250    0.0000 H   0  0  0  0  0  0  0  0  0  0  0  0
    0.0000   -1.6500    0.0000 H   0  0  0  0  0  0  0  0  0  0  0  0
    0.0000    0.0000    0.0000 H   0  0  0  0  0  0  0  0  0  0  0  0
    1.4289    0.8250    0.0000 H   0  0  0  0  0  0  0  0  0  0  0  0
    2.8579    0.8250    0.0000 H   0  0  0  0  0  0  0  0  0  0  0  0
    4.2868    0.0000    0.0000 H   0  0  0  0  0  0  0  0  0  0  0  0
    4.2868   -1.6500    0.0000 H   0  0  0  0  0  0  0  0  0  0  0  0
    2.8579   -2.4750    0.0000 H   0  0  0  0  0  0  0  0  0  0  0  0
  1  2  1  0  0  0  0
  2  3  1  0  0  0  0
  3  4  2  0  0  0  0
  3  5  1  0  0  0  0
  5  6  1  0  0  0  0
  6  7  4  0  0  0  0
  7  8  4  0  0  0  0
  8  9  4  0  0  0  0
  9 10  4  0  0  0  0
 10 11  4  0  0  0  0
 11 12  4  0  0  0  0
 12 13  4  0  0  0  0
 13 14  4  0  0  0  0
 14 15  4  0  0  0  0
  6 15  4  0  0  0  0
 10 15  4  0  0  0  0
  1 16  1  0  0  0  0
  1 17  1  0  0  0  0
  1 18  1  0  0  0  0
  2 19  1  0  0  0  0
  7 20  1  0  0  0  0
  8 21  1  0  0  0  0
  9 22  1  0  0  0  0
 11 23  1  0  0  0  0
 12 24  1  0  0  0  0
 13 25  1  0  0  0  0
 14 26  1  0  0  0  0
M  END
>  <InChIKey>
InChI=1S/C12H11NO2/c1-13-12(14)15-11-8-4-6-9-5-2-3-7-10(9)11/h2-8H,1H3,(H,13,14)

>  <CASRN>
63-25-2

> <Outcome>
1

>  <Index>
1330

>  <StandardizerResult>
Dearomatize (ID: Dearomatize)
Clear Stereo (ID: ClearStereo)
Wedge Clean (ID: WedgeClean)
Mesomerize (ID: Mesomerize)
Tautomerize (ID: Tautomerize)
Aromatize (ID: Aromatize)
Add Explicit Hydrogens (ID: AddExplicitH)
Neutralize (ID: Neutralize)
Clean 2D (ID: Clean2D)

> <knn Distance>


> <CpId>
1330

$$$$
1334
  Mrv1532301301811342D          

 22 24  0  0  0  0            999 V2000
    1.3377    0.0283    0.0000 C   0  0  0  0  0  0  0  0  0  0  0  0
    0.5127    0.0283    0.0000 C   0  0  0  0  0  0  0  0  0  0  0  0
    0.2578    0.8129    0.0000 C   0  0  0  0  0  0  0  0  0  0  0  0
   -0.4959    1.1485    0.0000 C   0  0  0  0  0  0  0  0  0  0  0  0
   -0.5821    1.9690    0.0000 C   0  0  0  0  0  0  0  0  0  0  0  0
    0.0853    2.4539    0.0000 C   0  0  0  0  0  0  0  0  0  0  0  0
    0.8390    2.1183    0.0000 C   0  0  0  0  0  0  0  0  0  0  0  0
    1.7651    2.4539    0.0000 C   0  0  0  0  0  0  0  0  0  0  0  0
    2.4326    1.9690    0.0000 C   0  0  0  0  0  0  0  0  0  0  0  0
    2.3463    1.1485    0.0000 C   0  0  0  0  0  0  0  0  0  0  0  0
    1.5926    0.8129    0.0000 C   0  0  0  0  0  0  0  0  0  0  0  0
    0.9252    1.2978    0.0000 C   0  0  0  0  0  0  0  0  0  0  0  0
    1.4525   -0.7887    0.0000 H   0  0  0  0  0  0  0  0  0  0  0  0
    2.0792   -0.3334    0.0000 H   0  0  0  0  0  0  0  0  0  0  0  0
   -0.2288   -0.3334    0.0000 H   0  0  0  0  0  0  0  0  0  0  0  0
    0.3979   -0.7887    0.0000 H   0  0  0  0  0  0  0  0  0  0  0  0
   -1.1633    0.6635    0.0000 H   0  0  0  0  0  0  0  0  0  0  0  0
   -1.3358    2.3045    0.0000 H   0  0  0  0  0  0  0  0  0  0  0  0
   -0.0009    3.2744    0.0000 H   0  0  0  0  0  0  0  0  0  0  0  0
    1.8805    3.2708    0.0000 H   0  0  0  0  0  0  0  0  0  0  0  0
    3.1862    2.3045    0.0000 H   0  0  0  0  0  0  0  0  0  0  0  0
    3.0138    0.6635    0.0000 H   0  0  0  0  0  0  0  0  0  0  0  0
  1  2  1  0  0  0  0
  2  3  1  0  0  0  0
  3  4  4  0  0  0  0
  4  5  4  0  0  0  0
  5  6  4  0  0  0  0
  6  7  4  0  0  0  0
  7  8  4  0  0  0  0
  8  9  4  0  0  0  0
  9 10  4  0  0  0  0
 10 11  4  0  0  0  0
  1 11  1  0  0  0  0
 11 12  4  0  0  0  0
  3 12  4  0  0  0  0
  7 12  4  0  0  0  0
  1 13  1  0  0  0  0
  1 14  1  0  0  0  0
  2 15  1  0  0  0  0
  2 16  1  0  0  0  0
  4 17  1  0  0  0  0
  5 18  1  0  0  0  0
  6 19  1  0  0  0  0
  8 20  1  0  0  0  0
  9 21  1  0  0  0  0
 10 22  1  0  0  0  0
M  END
>  <InChIKey>
InChI=1S/C12H10/c1-3-9-4-2-6-11-8-7-10(5-1)12(9)11/h1-6H,7-8H2

>  <CASRN>
83-32-9

> <Outcome>
1

>  <Index>
1334

>  <StandardizerResult>
Dearomatize (ID: Dearomatize)
Clear Stereo (ID: ClearStereo)
Wedge Clean (ID: WedgeClean)
Mesomerize (ID: Mesomerize)
Tautomerize (ID: Tautomerize)
Aromatize (ID: Aromatize)
Add Explicit Hydrogens (ID: AddExplicitH)
Neutralize (ID: Neutralize)
Clean 2D (ID: Clean2D)

> <knn Distance>


> <CpId>
1334

$$$$
1338
  Mrv1532301301811342D          

 34 35  0  0  0  0            999 V2000
    2.6482   -1.8372    0.0000 C   0  0  0  0  0  0  0  0  0  0  0  0
    1.9337   -2.2497    0.0000 N   0  0  0  0  0  0  0  0  0  0  0  0
    1.9337   -3.0747    0.0000 C   0  0  0  0  0  0  0  0  0  0  0  0
    1.2192   -3.4872    0.0000 C   0  0  0  0  0  0  0  0  0  0  0  0
    0.5047   -3.0747    0.0000 C   0  0  0  0  0  0  0  0  0  0  0  0
    0.5047   -2.2497    0.0000 C   0  0  0  0  0  0  0  0  0  0  0  0
   -0.2097   -1.8372    0.0000 C   0  0  0  0  0  0  0  0  0  0  0  0
   -0.2097   -1.0122    0.0000 O   0  0  0  0  0  0  0  0  0  0  0  0
    1.2192   -1.8372    0.0000 C   0  0  0  0  0  0  0  0  0  0  0  0
   -0.2097   -3.4872    0.0000 C   0  0  0  0  0  0  0  0  0  0  0  0
   -0.2097   -4.3122    0.0000 C   0  0  0  0  0  0  0  0  0  0  0  0
   -0.9242   -4.7247    0.0000 C   0  0  0  0  0  0  0  0  0  0  0  0
   -1.6387   -4.3122    0.0000 C   0  0  0  0  0  0  0  0  0  0  0  0
   -2.3531   -4.7247    0.0000 F   0  0  0  0  0  0  0  0  0  0  0  0
   -1.6387   -3.4872    0.0000 C   0  0  0  0  0  0  0  0  0  0  0  0
   -0.9242   -3.0747    0.0000 C   0  0  0  0  0  0  0  0  0  0  0  0
    3.0607   -2.5517    0.0000 H   0  0  0  0  0  0  0  0  0  0  0  0
    3.3626   -1.4247    0.0000 H   0  0  0  0  0  0  0  0  0  0  0  0
    2.2357   -1.1227    0.0000 H   0  0  0  0  0  0  0  0  0  0  0  0
    2.3870   -3.7640    0.0000 H   0  0  0  0  0  0  0  0  0  0  0  0
    2.7573   -3.1227    0.0000 H   0  0  0  0  0  0  0  0  0  0  0  0
    0.8490   -4.2244    0.0000 H   0  0  0  0  0  0  0  0  0  0  0  0
    1.5895   -4.2244    0.0000 H   0  0  0  0  0  0  0  0  0  0  0  0
   -0.2097   -2.6622    0.0000 H   0  0  0  0  0  0  0  0  0  0  0  0
    0.5047   -1.4247    0.0000 H   0  0  0  0  0  0  0  0  0  0  0  0
   -0.9850   -1.5550    0.0000 H   0  0  0  0  0  0  0  0  0  0  0  0
   -0.9850   -2.1193    0.0000 H   0  0  0  0  0  0  0  0  0  0  0  0
   -0.2457   -0.1880    0.0000 H   0  0  0  0  0  0  0  0  0  0  0  0
    1.8512   -1.3069    0.0000 H   0  0  0  0  0  0  0  0  0  0  0  0
    1.3625   -1.0247    0.0000 H   0  0  0  0  0  0  0  0  0  0  0  0
    0.5047   -4.7247    0.0000 H   0  0  0  0  0  0  0  0  0  0  0  0
   -0.9242   -5.5497    0.0000 H   0  0  0  0  0  0  0  0  0  0  0  0
   -2.3531   -3.0747    0.0000 H   0  0  0  0  0  0  0  0  0  0  0  0
   -0.9242   -3.8997    0.0000 H   0  0  0  0  0  0  0  0  0  0  0  0
  1  2  1  0  0  0  0
  2  3  1  0  0  0  0
  3  4  1  0  0  0  0
  4  5  1  0  0  0  0
  5  6  1  0  0  0  0
  6  7  1  0  0  0  0
  7  8  1  0  0  0  0
  6  9  1  0  0  0  0
  2  9  1  0  0  0  0
  5 10  1  0  0  0  0
 10 11  4  0  0  0  0
 11 12  4  0  0  0  0
 12 13  4  0  0  0  0
 13 14  1  0  0  0  0
 13 15  4  0  0  0  0
 15 16  4  0  0  0  0
 10 16  4  0  0  0  0
  1 17  1  0  0  0  0
  1 18  1  0  0  0  0
  1 19  1  0  0  0  0
  3 20  1  0  0  0  0
  3 21  1  0  0  0  0
  4 22  1  0  0  0  0
  4 23  1  0  0  0  0
  5 24  1  0  0  0  0
  6 25  1  0  0  0  0
  7 26  1  0  0  0  0
  7 27  1  0  0  0  0
  8 28  1  0  0  0  0
  9 29  1  0  0  0  0
  9 30  1  0  0  0  0
 11 31  1  0  0  0  0
 12 32  1  0  0  0  0
 15 33  1  0  0  0  0
 16 34  1  0  0  0  0
M  END
>  <InChIKey>
InChI=1S/C13H18FNO/c1-15-7-6-13(11(8-15)9-16)10-2-4-12(14)5-3-10/h2-5,11,13,16H,6-9H2,1H3

>  <UN GHS>
1

>  <CASRN>
105812-81-5

> <Outcome>
1

>  <Index>
1338

>  <StandardizerResult>
Dearomatize (ID: Dearomatize)
Clear Stereo (ID: ClearStereo)
Wedge Clean (ID: WedgeClean)
Mesomerize (ID: Mesomerize)
Tautomerize (ID: Tautomerize)
Aromatize (ID: Aromatize)
Add Explicit Hydrogens (ID: AddExplicitH)
Neutralize (ID: Neutralize)
Clean 2D (ID: Clean2D)

> <knn Distance>


> <CpId>
1338

$$$$
1340
  Mrv1532301301811342D          

 22 23  0  0  0  0            999 V2000
    0.7159   -1.2375    0.0000 C   0  0  0  0  0  0  0  0  0  0  0  0
    0.7159   -0.4125    0.0000 C   0  0  0  0  0  0  0  0  0  0  0  0
    1.4303    0.0000    0.0000 C   0  0  0  0  0  0  0  0  0  0  0  0
    2.1448   -0.4125    0.0000 C   0  0  0  0  0  0  0  0  0  0  0  0
    2.8593    0.0000    0.0000 C   0  0  0  0  0  0  0  0  0  0  0  0
    3.5737   -0.4125    0.0000 C   0  0  0  0  0  0  0  0  0  0  0  0
    3.5737   -1.2375    0.0000 C   0  0  0  0  0  0  0  0  0  0  0  0
    2.8593   -1.6500    0.0000 C   0  0  0  0  0  0  0  0  0  0  0  0
    2.1448   -1.2375    0.0000 C   0  0  0  0  0  0  0  0  0  0  0  0
    1.4303   -1.6500    0.0000 C   0  0  0  0  0  0  0  0  0  0  0  0
   -0.1077   -1.2855    0.0000 H   0  0  0  0  0  0  0  0  0  0  0  0
    0.2625   -1.9268    0.0000 H   0  0  0  0  0  0  0  0  0  0  0  0
    0.2625    0.2768    0.0000 H   0  0  0  0  0  0  0  0  0  0  0  0
   -0.1077   -0.3645    0.0000 H   0  0  0  0  0  0  0  0  0  0  0  0
    1.8006    0.7372    0.0000 H   0  0  0  0  0  0  0  0  0  0  0  0
    1.0601    0.7372    0.0000 H   0  0  0  0  0  0  0  0  0  0  0  0
    2.8593    0.8250    0.0000 H   0  0  0  0  0  0  0  0  0  0  0  0
    4.2882   -0.0000    0.0000 H   0  0  0  0  0  0  0  0  0  0  0  0
    4.2882   -1.6500    0.0000 H   0  0  0  0  0  0  0  0  0  0  0  0
    2.8593   -2.4750    0.0000 H   0  0  0  0  0  0  0  0  0  0  0  0
    1.0601   -2.3872    0.0000 H   0  0  0  0  0  0  0  0  0  0  0  0
    1.8006   -2.3872    0.0000 H   0  0  0  0  0  0  0  0  0  0  0  0
  1  2  1  0  0  0  0
  2  3  1  0  0  0  0
  3  4  1  0  0  0  0
  4  5  4  0  0  0  0
  5  6  4  0  0  0  0
  6  7  4  0  0  0  0
  7  8  4  0  0  0  0
  8  9  4  0  0  0  0
  4  9  4  0  0  0  0
  9 10  1  0  0  0  0
  1 10  1  0  0  0  0
  1 11  1  0  0  0  0
  1 12  1  0  0  0  0
  2 13  1  0  0  0  0
  2 14  1  0  0  0  0
  3 15  1  0  0  0  0
  3 16  1  0  0  0  0
  5 17  1  0  0  0  0
  6 18  1  0  0  0  0
  7 19  1  0  0  0  0
  8 20  1  0  0  0  0
 10 21  1  0  0  0  0
 10 22  1  0  0  0  0
M  END
>  <InChIKey>
InChI=1S/C10H12/c1-2-6-10-8-4-3-7-9(10)5-1/h1-2,5-6H,3-4,7-8H2

>  <CASRN>
119-64-2

> <Outcome>
1

>  <Index>
1340

>  <StandardizerResult>
Dearomatize (ID: Dearomatize)
Clear Stereo (ID: ClearStereo)
Wedge Clean (ID: WedgeClean)
Mesomerize (ID: Mesomerize)
Tautomerize (ID: Tautomerize)
Aromatize (ID: Aromatize)
Add Explicit Hydrogens (ID: AddExplicitH)
Neutralize (ID: Neutralize)
Clean 2D (ID: Clean2D)

> <knn Distance>


> <CpId>
1340

$$$$
1342
  Mrv1532301301811342D          

 11 10  0  0  0  0            999 V2000
    2.0625   -0.7145    0.0000 C   0  0  0  0  0  0  0  0  0  0  0  0
    1.2375   -0.7145    0.0000 C   0  0  0  0  0  0  0  0  0  0  0  0
    0.8250   -0.0000    0.0000 C   0  0  0  0  0  0  0  0  0  0  0  0
    0.0000   -0.0000    0.0000 Br  0  0  0  0  0  0  0  0  0  0  0  0
    2.0625   -1.5395    0.0000 H   0  0  0  0  0  0  0  0  0  0  0  0
    2.8875   -0.7145    0.0000 H   0  0  0  0  0  0  0  0  0  0  0  0
    2.0625    0.1105    0.0000 H   0  0  0  0  0  0  0  0  0  0  0  0
    0.5482   -1.1678    0.0000 H   0  0  0  0  0  0  0  0  0  0  0  0
    1.1895   -1.5381    0.0000 H   0  0  0  0  0  0  0  0  0  0  0  0
    1.5143    0.4533    0.0000 H   0  0  0  0  0  0  0  0  0  0  0  0
    0.8730    0.8236    0.0000 H   0  0  0  0  0  0  0  0  0  0  0  0
  1  2  1  0  0  0  0
  2  3  1  0  0  0  0
  3  4  1  0  0  0  0
  1  5  1  0  0  0  0
  1  6  1  0  0  0  0
  1  7  1  0  0  0  0
  2  8  1  0  0  0  0
  2  9  1  0  0  0  0
  3 10  1  0  0  0  0
  3 11  1  0  0  0  0
M  END
>  <InChIKey>
InChI=1S/C3H7Br/c1-2-3-4/h2-3H2,1H3

>  <CASRN>
106-94-5

> <Outcome>
1

>  <Index>
1342

>  <StandardizerResult>
Clear Stereo (ID: ClearStereo)
Wedge Clean (ID: WedgeClean)
Mesomerize (ID: Mesomerize)
Tautomerize (ID: Tautomerize)
Add Explicit Hydrogens (ID: AddExplicitH)
Neutralize (ID: Neutralize)
Clean 2D (ID: Clean2D)

> <knn Distance>


> <CpId>
1342

$$$$
1343
  Mrv1532301301811342D          

 16 15  0  0  0  0            999 V2000
    2.4461    0.0431    0.0000 C   0  0  0  0  0  0  0  0  0  0  0  0
    2.0336    0.7576    0.0000 O   0  0  0  0  0  0  0  0  0  0  0  0
    1.2086    0.7576    0.0000 P   0  0  0  0  0  0  0  0  0  0  0  0
    0.7961    1.4720    0.0000 O   0  0  0  0  0  0  0  0  0  0  0  0
   -0.0289    1.4720    0.0000 C   0  0  0  0  0  0  0  0  0  0  0  0
    0.7961    0.0431    0.0000 O   0  0  0  0  0  0  0  0  0  0  0  0
   -0.0289    0.0431    0.0000 C   0  0  0  0  0  0  0  0  0  0  0  0
    1.7316   -0.3694    0.0000 H   0  0  0  0  0  0  0  0  0  0  0  0
    2.8586   -0.6714    0.0000 H   0  0  0  0  0  0  0  0  0  0  0  0
    3.1606    0.4556    0.0000 H   0  0  0  0  0  0  0  0  0  0  0  0
   -0.0289    2.2970    0.0000 H   0  0  0  0  0  0  0  0  0  0  0  0
   -0.8539    1.4720    0.0000 H   0  0  0  0  0  0  0  0  0  0  0  0
   -0.0289    0.6470    0.0000 H   0  0  0  0  0  0  0  0  0  0  0  0
   -0.7911    0.3588    0.0000 H   0  0  0  0  0  0  0  0  0  0  0  0
   -0.6123   -0.5403    0.0000 H   0  0  0  0  0  0  0  0  0  0  0  0
    0.2868   -0.7191    0.0000 H   0  0  0  0  0  0  0  0  0  0  0  0
  1  2  1  0  0  0  0
  2  3  1  0  0  0  0
  3  4  1  0  0  0  0
  4  5  1  0  0  0  0
  3  6  1  0  0  0  0
  6  7  1  0  0  0  0
  1  8  1  0  0  0  0
  1  9  1  0  0  0  0
  1 10  1  0  0  0  0
  5 11  1  0  0  0  0
  5 12  1  0  0  0  0
  5 13  1  0  0  0  0
  7 14  1  0  0  0  0
  7 15  1  0  0  0  0
  7 16  1  0  0  0  0
M  END
>  <InChIKey>
InChI=1S/C3H9O3P/c1-4-7(5-2)6-3/h1-3H3

>  <CASRN>
121-45-9

> <Outcome>
1

>  <Index>
1343

>  <StandardizerResult>
Clear Stereo (ID: ClearStereo)
Wedge Clean (ID: WedgeClean)
Mesomerize (ID: Mesomerize)
Tautomerize (ID: Tautomerize)
Add Explicit Hydrogens (ID: AddExplicitH)
Neutralize (ID: Neutralize)
Clean 2D (ID: Clean2D)

> <knn Distance>


> <CpId>
1343

$$$$
1346
  Mrv1532301301811342D          

 14 14  0  0  0  0            999 V2000
    0.7145    2.0625    0.0000 Cl  0  0  0  0  0  0  0  0  0  0  0  0
    0.7145    1.2375    0.0000 C   0  0  0  0  0  0  0  0  0  0  0  0
    1.4289    0.8250    0.0000 C   0  0  0  0  0  0  0  0  0  0  0  0
    1.4289   -0.0000    0.0000 C   0  0  0  0  0  0  0  0  0  0  0  0
    0.7145   -0.4125    0.0000 C   0  0  0  0  0  0  0  0  0  0  0  0
   -0.0000    0.0000    0.0000 C   0  0  0  0  0  0  0  0  0  0  0  0
   -0.0000    0.8250    0.0000 C   0  0  0  0  0  0  0  0  0  0  0  0
    0.7145   -1.2375    0.0000 N   0  0  0  0  0  0  0  0  0  0  0  0
    1.4289   -1.6500    0.0000 O   0  0  0  0  0  0  0  0  0  0  0  0
   -0.0000   -1.6500    0.0000 O   0  0  0  0  0  0  0  0  0  0  0  0
    2.1434    1.2375    0.0000 H   0  0  0  0  0  0  0  0  0  0  0  0
    2.1434   -0.4125    0.0000 H   0  0  0  0  0  0  0  0  0  0  0  0
   -0.7145   -0.4125    0.0000 H   0  0  0  0  0  0  0  0  0  0  0  0
   -0.7145    1.2375    0.0000 H   0  0  0  0  0  0  0  0  0  0  0  0
  1  2  1  0  0  0  0
  2  3  4  0  0  0  0
  3  4  4  0  0  0  0
  4  5  4  0  0  0  0
  5  6  4  0  0  0  0
  6  7  4  0  0  0  0
  2  7  4  0  0  0  0
  5  8  1  0  0  0  0
  8  9  2  0  0  0  0
  8 10  2  0  0  0  0
  3 11  1  0  0  0  0
  4 12  1  0  0  0  0
  6 13  1  0  0  0  0
  7 14  1  0  0  0  0
M  END
>  <InChIKey>
InChI=1S/C6H4ClNO2/c7-5-1-3-6(4-2-5)8(9)10/h1-4H

>  <CASRN>
100-00-5

> <Outcome>
1

>  <Index>
1346

>  <StandardizerResult>
Dearomatize (ID: Dearomatize)
Clear Stereo (ID: ClearStereo)
Wedge Clean (ID: WedgeClean)
Mesomerize (ID: Mesomerize)
Tautomerize (ID: Tautomerize)
Aromatize (ID: Aromatize)
Add Explicit Hydrogens (ID: AddExplicitH)
Neutralize (ID: Neutralize)
Clean 2D (ID: Clean2D)

> <knn Distance>


> <CpId>
1346

$$$$
1352
  Mrv1532301301811342D          

 37 41  0  0  0  0            999 V2000
    1.0018    3.5522    0.0000 O   0  0  0  0  0  0  0  0  0  0  0  0
    1.3376    2.7986    0.0000 C   0  0  0  0  0  0  0  0  0  0  0  0
    0.8529    2.1310    0.0000 C   0  0  0  0  0  0  0  0  0  0  0  0
    0.0324    2.2170    0.0000 Br  0  0  0  0  0  0  0  0  0  0  0  0
    1.1887    1.3774    0.0000 C   0  0  0  0  0  0  0  0  0  0  0  0
    2.0092    1.2914    0.0000 C   0  0  0  0  0  0  0  0  0  0  0  0
    2.4939    1.9590    0.0000 C   0  0  0  0  0  0  0  0  0  0  0  0
    3.3144    1.8730    0.0000 O   0  0  0  0  0  0  0  0  0  0  0  0
    3.6502    1.1194    0.0000 C   0  0  0  0  0  0  0  0  0  0  0  0
    4.4707    1.0334    0.0000 C   0  0  0  0  0  0  0  0  0  0  0  0
    4.9554    1.7010    0.0000 Br  0  0  0  0  0  0  0  0  0  0  0  0
    4.8064    0.2798    0.0000 C   0  0  0  0  0  0  0  0  0  0  0  0
    5.6270    0.1939    0.0000 O   0  0  0  0  0  0  0  0  0  0  0  0
    4.3217   -0.3877    0.0000 C   0  0  0  0  0  0  0  0  0  0  0  0
    4.6575   -1.1413    0.0000 Br  0  0  0  0  0  0  0  0  0  0  0  0
    3.5012   -0.3017    0.0000 C   0  0  0  0  0  0  0  0  0  0  0  0
    3.1654    0.4518    0.0000 C   0  0  0  0  0  0  0  0  0  0  0  0
    2.3449    0.5378    0.0000 C   0  0  0  0  0  0  0  0  0  0  0  0
    2.6001   -0.2467    0.0000 O   0  0  0  0  0  0  0  0  0  0  0  0
    1.9328   -0.7318    0.0000 C   0  0  0  0  0  0  0  0  0  0  0  0
    1.9330   -1.5568    0.0000 O   0  0  0  0  0  0  0  0  0  0  0  0
    1.2652   -0.2471    0.0000 C   0  0  0  0  0  0  0  0  0  0  0  0
    0.4583   -0.4188    0.0000 C   0  0  0  0  0  0  0  0  0  0  0  0
   -0.0939    0.1941    0.0000 C   0  0  0  0  0  0  0  0  0  0  0  0
    0.1608    0.9788    0.0000 C   0  0  0  0  0  0  0  0  0  0  0  0
    0.9677    1.1505    0.0000 C   0  0  0  0  0  0  0  0  0  0  0  0
    1.5199    0.5376    0.0000 C   0  0  0  0  0  0  0  0  0  0  0  0
    2.1581    2.7126    0.0000 C   0  0  0  0  0  0  0  0  0  0  0  0
    2.6428    3.3802    0.0000 Br  0  0  0  0  0  0  0  0  0  0  0  0
    1.4866    4.2197    0.0000 H   0  0  0  0  0  0  0  0  0  0  0  0
    1.6734    2.0450    0.0000 H   0  0  0  0  0  0  0  0  0  0  0  0
    5.9627   -0.5597    0.0000 H   0  0  0  0  0  0  0  0  0  0  0  0
    3.4331   -1.1239    0.0000 H   0  0  0  0  0  0  0  0  0  0  0  0
    0.2036   -1.2035    0.0000 H   0  0  0  0  0  0  0  0  0  0  0  0
   -0.9008    0.0223    0.0000 H   0  0  0  0  0  0  0  0  0  0  0  0
   -0.3914    1.5917    0.0000 H   0  0  0  0  0  0  0  0  0  0  0  0
    0.5692    1.8729    0.0000 H   0  0  0  0  0  0  0  0  0  0  0  0
  1  2  1  0  0  0  0
  2  3  4  0  0  0  0
  3  4  1  0  0  0  0
  3  5  4  0  0  0  0
  5  6  4  0  0  0  0
  6  7  4  0  0  0  0
  7  8  1  0  0  0  0
  8  9  1  0  0  0  0
  9 10  4  0  0  0  0
 10 11  1  0  0  0  0
 10 12  4  0  0  0  0
 12 13  1  0  0  0  0
 12 14  4  0  0  0  0
 14 15  1  0  0  0  0
 14 16  4  0  0  0  0
 16 17  4  0  0  0  0
  9 17  4  0  0  0  0
 17 18  1  0  0  0  0
  6 18  1  0  0  0  0
 18 19  1  0  0  0  0
 19 20  1  0  0  0  0
 20 21  2  0  0  0  0
 20 22  1  0  0  0  0
 22 23  4  0  0  0  0
 23 24  4  0  0  0  0
 24 25  4  0  0  0  0
 25 26  4  0  0  0  0
 26 27  4  0  0  0  0
 18 27  1  0  0  0  0
 22 27  4  0  0  0  0
  7 28  4  0  0  0  0
  2 28  4  0  0  0  0
 28 29  1  0  0  0  0
  1 30  1  0  0  0  0
  5 31  1  0  0  0  0
 13 32  1  0  0  0  0
 16 33  1  0  0  0  0
 23 34  1  0  0  0  0
 24 35  1  0  0  0  0
 25 36  1  0  0  0  0
 26 37  1  0  0  0  0
M  END
>  <InChIKey>
InChI=1S/C20H8Br4O5/c21-11-5-9-17(13(23)15(11)25)28-18-10(6-12(22)16(26)14(18)24)20(9)8-4-2-1-3-7(8)19(27)29-20/h1-6,25-26H

>  <CASRN>
15086-94-9

> <Outcome>
1

>  <Index>
1352

>  <StandardizerResult>
Dearomatize (ID: Dearomatize)
Clear Stereo (ID: ClearStereo)
Wedge Clean (ID: WedgeClean)
Mesomerize (ID: Mesomerize)
Tautomerize (ID: Tautomerize)
Aromatize (ID: Aromatize)
Add Explicit Hydrogens (ID: AddExplicitH)
Neutralize (ID: Neutralize)
Clean 2D (ID: Clean2D)

> <knn Distance>


> <CpId>
1352

$$$$
1353
  Mrv1532301301811342D          

 18 18  0  0  0  0            999 V2000
    0.0835    2.5277    0.0000 O   0  0  0  0  0  0  0  0  0  0  0  0
    0.7980    2.1152    0.0000 C   0  0  0  0  0  0  0  0  0  0  0  0
    0.7980    1.2902    0.0000 C   0  0  0  0  0  0  0  0  0  0  0  0
    1.5124    0.8777    0.0000 C   0  0  0  0  0  0  0  0  0  0  0  0
    1.5124    0.0527    0.0000 C   0  0  0  0  0  0  0  0  0  0  0  0
    0.7980   -0.3598    0.0000 C   0  0  0  0  0  0  0  0  0  0  0  0
    0.0835    0.0527    0.0000 C   0  0  0  0  0  0  0  0  0  0  0  0
    0.0835    0.8777    0.0000 C   0  0  0  0  0  0  0  0  0  0  0  0
    1.5124    2.5277    0.0000 H   0  0  0  0  0  0  0  0  0  0  0  0
    0.0835    1.7027    0.0000 H   0  0  0  0  0  0  0  0  0  0  0  0
    2.3360    0.9256    0.0000 H   0  0  0  0  0  0  0  0  0  0  0  0
    1.9658    1.5669    0.0000 H   0  0  0  0  0  0  0  0  0  0  0  0
    1.9658   -0.6366    0.0000 H   0  0  0  0  0  0  0  0  0  0  0  0
    2.3360    0.0047    0.0000 H   0  0  0  0  0  0  0  0  0  0  0  0
    0.7980   -1.1848    0.0000 H   0  0  0  0  0  0  0  0  0  0  0  0
   -0.6310   -0.3598    0.0000 H   0  0  0  0  0  0  0  0  0  0  0  0
   -0.6917    1.1598    0.0000 H   0  0  0  0  0  0  0  0  0  0  0  0
   -0.6917    0.5955    0.0000 H   0  0  0  0  0  0  0  0  0  0  0  0
  1  2  2  0  0  0  0
  2  3  1  0  0  0  0
  3  4  1  0  0  0  0
  4  5  1  0  0  0  0
  5  6  1  0  0  0  0
  6  7  2  0  0  0  0
  7  8  1  0  0  0  0
  3  8  1  0  0  0  0
  2  9  1  0  0  0  0
  3 10  1  0  0  0  0
  4 11  1  0  0  0  0
  4 12  1  0  0  0  0
  5 13  1  0  0  0  0
  5 14  1  0  0  0  0
  6 15  1  0  0  0  0
  7 16  1  0  0  0  0
  8 17  1  0  0  0  0
  8 18  1  0  0  0  0
M  END
>  <InChIKey>
InChI=1S/C7H10O/c8-6-7-4-2-1-3-5-7/h1-2,6-7H,3-5H2

>  <CASRN>
100-50-5

> <Outcome>
1

>  <Index>
1353

>  <StandardizerResult>
Clear Stereo (ID: ClearStereo)
Wedge Clean (ID: WedgeClean)
Mesomerize (ID: Mesomerize)
Tautomerize (ID: Tautomerize)
Add Explicit Hydrogens (ID: AddExplicitH)
Neutralize (ID: Neutralize)
Clean 2D (ID: Clean2D)

> <knn Distance>


> <CpId>
1353

$$$$
1354
  Mrv1532301301811342D          

 20 19  0  0  0  0            999 V2000
   -0.2207    0.7138    0.0000 C   0  0  0  0  0  0  0  0  0  0  0  0
    0.4937    1.1263    0.0000 C   0  0  0  0  0  0  0  0  0  0  0  0
    1.2082    0.7138    0.0000 C   0  0  0  0  0  0  0  0  0  0  0  0
    1.2082   -0.1112    0.0000 C   0  0  0  0  0  0  0  0  0  0  0  0
    1.9227    1.1263    0.0000 O   0  0  0  0  0  0  0  0  0  0  0  0
    2.6372    0.7138    0.0000 C   0  0  0  0  0  0  0  0  0  0  0  0
    3.3516    1.1263    0.0000 C   0  0  0  0  0  0  0  0  0  0  0  0
    2.6372   -0.1112    0.0000 O   0  0  0  0  0  0  0  0  0  0  0  0
   -0.6332    1.4283    0.0000 H   0  0  0  0  0  0  0  0  0  0  0  0
   -0.9352    0.3013    0.0000 H   0  0  0  0  0  0  0  0  0  0  0  0
    0.1918   -0.0006    0.0000 H   0  0  0  0  0  0  0  0  0  0  0  0
    0.8640    1.8636    0.0000 H   0  0  0  0  0  0  0  0  0  0  0  0
    0.1235    1.8636    0.0000 H   0  0  0  0  0  0  0  0  0  0  0  0
    0.4937    0.3013    0.0000 H   0  0  0  0  0  0  0  0  0  0  0  0
    0.6249   -0.6945    0.0000 H   0  0  0  0  0  0  0  0  0  0  0  0
    1.6207   -0.8256    0.0000 H   0  0  0  0  0  0  0  0  0  0  0  0
    2.0051    0.1024    0.0000 H   0  0  0  0  0  0  0  0  0  0  0  0
    3.7641    0.4119    0.0000 H   0  0  0  0  0  0  0  0  0  0  0  0
    4.0661    1.5388    0.0000 H   0  0  0  0  0  0  0  0  0  0  0  0
    2.9391    1.8408    0.0000 H   0  0  0  0  0  0  0  0  0  0  0  0
  1  2  1  0  0  0  0
  2  3  1  0  0  0  0
  3  4  1  0  0  0  0
  3  5  1  0  0  0  0
  5  6  1  0  0  0  0
  6  7  1  0  0  0  0
  6  8  2  0  0  0  0
  1  9  1  0  0  0  0
  1 10  1  0  0  0  0
  1 11  1  0  0  0  0
  2 12  1  0  0  0  0
  2 13  1  0  0  0  0
  3 14  1  0  0  0  0
  4 15  1  0  0  0  0
  4 16  1  0  0  0  0
  4 17  1  0  0  0  0
  7 18  1  0  0  0  0
  7 19  1  0  0  0  0
  7 20  1  0  0  0  0
M  END
>  <InChIKey>
InChI=1S/C6H12O2/c1-4-5(2)8-6(3)7/h5H,4H2,1-3H3

>  <CASRN>
105-46-4

> <Outcome>
1

>  <Index>
1354

>  <StandardizerResult>
Clear Stereo (ID: ClearStereo)
Wedge Clean (ID: WedgeClean)
Mesomerize (ID: Mesomerize)
Tautomerize (ID: Tautomerize)
Add Explicit Hydrogens (ID: AddExplicitH)
Neutralize (ID: Neutralize)
Clean 2D (ID: Clean2D)

> <knn Distance>


> <CpId>
1354

$$$$
1356
  Mrv1532301301811342D          

 33 32  0  0  0  0            999 V2000
    4.2355    3.2704    0.0000 C   0  0  0  0  0  0  0  0  0  0  0  0
    4.9500    2.8579    0.0000 C   0  0  0  0  0  0  0  0  0  0  0  0
    5.6645    3.2704    0.0000 C   0  0  0  0  0  0  0  0  0  0  0  0
    6.3789    2.8579    0.0000 C   0  0  0  0  0  0  0  0  0  0  0  0
    7.0934    3.2704    0.0000 C   0  0  0  0  0  0  0  0  0  0  0  0
    7.8079    2.8579    0.0000 C   0  0  0  0  0  0  0  0  0  0  0  0
    8.5224    3.2704    0.0000 C   0  0  0  0  0  0  0  0  0  0  0  0
    9.2368    2.8579    0.0000 C   0  0  0  0  0  0  0  0  0  0  0  0
    9.9513    3.2704    0.0000 C   0  0  0  0  0  0  0  0  0  0  0  0
   10.6658    2.8579    0.0000 C   0  0  0  0  0  0  0  0  0  0  0  0
   11.3802    3.2704    0.0000 C   0  0  0  0  0  0  0  0  0  0  0  0
    4.6480    3.9849    0.0000 H   0  0  0  0  0  0  0  0  0  0  0  0
    3.5211    3.6829    0.0000 H   0  0  0  0  0  0  0  0  0  0  0  0
    3.8230    2.5559    0.0000 H   0  0  0  0  0  0  0  0  0  0  0  0
    4.5797    2.1207    0.0000 H   0  0  0  0  0  0  0  0  0  0  0  0
    5.3203    2.1207    0.0000 H   0  0  0  0  0  0  0  0  0  0  0  0
    6.0347    4.0076    0.0000 H   0  0  0  0  0  0  0  0  0  0  0  0
    5.2942    4.0076    0.0000 H   0  0  0  0  0  0  0  0  0  0  0  0
    6.0087    2.1207    0.0000 H   0  0  0  0  0  0  0  0  0  0  0  0
    6.7492    2.1207    0.0000 H   0  0  0  0  0  0  0  0  0  0  0  0
    7.4637    4.0076    0.0000 H   0  0  0  0  0  0  0  0  0  0  0  0
    6.7231    4.0076    0.0000 H   0  0  0  0  0  0  0  0  0  0  0  0
    7.4376    2.1207    0.0000 H   0  0  0  0  0  0  0  0  0  0  0  0
    8.1781    2.1207    0.0000 H   0  0  0  0  0  0  0  0  0  0  0  0
    8.8926    4.0076    0.0000 H   0  0  0  0  0  0  0  0  0  0  0  0
    8.1521    4.0076    0.0000 H   0  0  0  0  0  0  0  0  0  0  0  0
    8.8666    2.1207    0.0000 H   0  0  0  0  0  0  0  0  0  0  0  0
    9.6071    2.1207    0.0000 H   0  0  0  0  0  0  0  0  0  0  0  0
   10.3216    4.0076    0.0000 H   0  0  0  0  0  0  0  0  0  0  0  0
    9.5810    4.0076    0.0000 H   0  0  0  0  0  0  0  0  0  0  0  0
   10.6658    2.0329    0.0000 H   0  0  0  0  0  0  0  0  0  0  0  0
   12.0947    2.8579    0.0000 H   0  0  0  0  0  0  0  0  0  0  0  0
   11.3802    4.0954    0.0000 H   0  0  0  0  0  0  0  0  0  0  0  0
  1  2  1  0  0  0  0
  2  3  1  0  0  0  0
  3  4  1  0  0  0  0
  4  5  1  0  0  0  0
  5  6  1  0  0  0  0
  6  7  1  0  0  0  0
  7  8  1  0  0  0  0
  8  9  1  0  0  0  0
  9 10  1  0  0  0  0
 10 11  2  0  0  0  0
  1 12  1  0  0  0  0
  1 13  1  0  0  0  0
  1 14  1  0  0  0  0
  2 15  1  0  0  0  0
  2 16  1  0  0  0  0
  3 17  1  0  0  0  0
  3 18  1  0  0  0  0
  4 19  1  0  0  0  0
  4 20  1  0  0  0  0
  5 21  1  0  0  0  0
  5 22  1  0  0  0  0
  6 23  1  0  0  0  0
  6 24  1  0  0  0  0
  7 25  1  0  0  0  0
  7 26  1  0  0  0  0
  8 27  1  0  0  0  0
  8 28  1  0  0  0  0
  9 29  1  0  0  0  0
  9 30  1  0  0  0  0
 10 31  1  0  0  0  0
 11 32  1  0  0  0  0
 11 33  1  0  0  0  0
M  END
>  <InChIKey>
InChI=1S/C11H22/c1-3-5-7-9-11-10-8-6-4-2/h3H,1,4-11H2,2H3

>  <CASRN>
821-95-4

> <Outcome>
1

>  <Index>
1356

>  <StandardizerResult>
Clear Stereo (ID: ClearStereo)
Wedge Clean (ID: WedgeClean)
Mesomerize (ID: Mesomerize)
Tautomerize (ID: Tautomerize)
Add Explicit Hydrogens (ID: AddExplicitH)
Neutralize (ID: Neutralize)
Clean 2D (ID: Clean2D)

> <knn Distance>


> <CpId>
1356

$$$$
1357
  Mrv1532301301811342D          

 21 20  0  0  0  0            999 V2000
    1.7605    1.8414    0.0000 C   0  0  0  0  0  0  0  0  0  0  0  0
    2.4750    1.4289    0.0000 C   0  0  0  0  0  0  0  0  0  0  0  0
    2.4750    0.6039    0.0000 C   0  0  0  0  0  0  0  0  0  0  0  0
    3.1895    1.8414    0.0000 C   0  0  0  0  0  0  0  0  0  0  0  0
    3.1895    2.6664    0.0000 O   0  0  0  0  0  0  0  0  0  0  0  0
    3.9039    1.4289    0.0000 O   0  0  0  0  0  0  0  0  0  0  0  0
    4.6184    1.8414    0.0000 C   0  0  0  0  0  0  0  0  0  0  0  0
    4.6184    2.6664    0.0000 O   0  0  0  0  0  0  0  0  0  0  0  0
    5.3329    1.4289    0.0000 C   0  0  0  0  0  0  0  0  0  0  0  0
    6.0474    1.8414    0.0000 C   0  0  0  0  0  0  0  0  0  0  0  0
    5.3329    0.6039    0.0000 C   0  0  0  0  0  0  0  0  0  0  0  0
    2.1730    2.5559    0.0000 H   0  0  0  0  0  0  0  0  0  0  0  0
    1.0461    2.2539    0.0000 H   0  0  0  0  0  0  0  0  0  0  0  0
    1.3480    1.1269    0.0000 H   0  0  0  0  0  0  0  0  0  0  0  0
    1.7605    0.1914    0.0000 H   0  0  0  0  0  0  0  0  0  0  0  0
    3.1895    0.1914    0.0000 H   0  0  0  0  0  0  0  0  0  0  0  0
    6.4599    1.1269    0.0000 H   0  0  0  0  0  0  0  0  0  0  0  0
    6.7618    2.2539    0.0000 H   0  0  0  0  0  0  0  0  0  0  0  0
    5.6349    2.5559    0.0000 H   0  0  0  0  0  0  0  0  0  0  0  0
    4.6184    0.1914    0.0000 H   0  0  0  0  0  0  0  0  0  0  0  0
    6.0474    0.1914    0.0000 H   0  0  0  0  0  0  0  0  0  0  0  0
  1  2  1  0  0  0  0
  2  3  2  0  0  0  0
  2  4  1  0  0  0  0
  4  5  2  0  0  0  0
  4  6  1  0  0  0  0
  6  7  1  0  0  0  0
  7  8  2  0  0  0  0
  7  9  1  0  0  0  0
  9 10  1  0  0  0  0
  9 11  2  0  0  0  0
  1 12  1  0  0  0  0
  1 13  1  0  0  0  0
  1 14  1  0  0  0  0
  3 15  1  0  0  0  0
  3 16  1  0  0  0  0
 10 17  1  0  0  0  0
 10 18  1  0  0  0  0
 10 19  1  0  0  0  0
 11 20  1  0  0  0  0
 11 21  1  0  0  0  0
M  END
>  <InChIKey>
InChI=1S/C8H10O3/c1-5(2)7(9)11-8(10)6(3)4/h1,3H2,2,4H3

>  <CASRN>
760-93-0

> <Outcome>
1

>  <Index>
1357

>  <StandardizerResult>
Clear Stereo (ID: ClearStereo)
Wedge Clean (ID: WedgeClean)
Mesomerize (ID: Mesomerize)
Tautomerize (ID: Tautomerize)
Add Explicit Hydrogens (ID: AddExplicitH)
Neutralize (ID: Neutralize)
Clean 2D (ID: Clean2D)

> <knn Distance>


> <CpId>
1357

$$$$
1362
  Mrv1532301301811342D          

 29 29  0  0  0  0            999 V2000
    1.8301    3.8152    0.0000 C   0  0  0  0  0  0  0  0  0  0  0  0
    1.9530    2.9994    0.0000 C   0  0  0  0  0  0  0  0  0  0  0  0
    1.3080    2.4850    0.0000 S   0  0  0  0  0  0  0  0  0  0  0  0
    1.4310    1.6693    0.0000 C   0  0  0  0  0  0  0  0  0  0  0  0
    2.1990    1.3678    0.0000 O   0  0  0  0  0  0  0  0  0  0  0  0
    0.7860    1.1549    0.0000 N   0  0  0  0  0  0  0  0  0  0  0  0
    0.9695    0.3506    0.0000 C   0  0  0  0  0  0  0  0  0  0  0  0
    0.4552   -0.2945    0.0000 C   0  0  0  0  0  0  0  0  0  0  0  0
   -0.3698   -0.2945    0.0000 C   0  0  0  0  0  0  0  0  0  0  0  0
   -0.8842    0.3506    0.0000 C   0  0  0  0  0  0  0  0  0  0  0  0
   -0.7006    1.1549    0.0000 C   0  0  0  0  0  0  0  0  0  0  0  0
    0.0427    1.5128    0.0000 C   0  0  0  0  0  0  0  0  0  0  0  0
    2.6459    3.9382    0.0000 H   0  0  0  0  0  0  0  0  0  0  0  0
    1.7071    4.6310    0.0000 H   0  0  0  0  0  0  0  0  0  0  0  0
    1.0143    3.6922    0.0000 H   0  0  0  0  0  0  0  0  0  0  0  0
    2.5040    2.3854    0.0000 H   0  0  0  0  0  0  0  0  0  0  0  0
    2.7746    3.0747    0.0000 H   0  0  0  0  0  0  0  0  0  0  0  0
    1.6146   -0.1638    0.0000 H   0  0  0  0  0  0  0  0  0  0  0  0
    1.7739    0.5341    0.0000 H   0  0  0  0  0  0  0  0  0  0  0  0
    0.4552   -1.1195    0.0000 H   0  0  0  0  0  0  0  0  0  0  0  0
    1.1002   -0.8088    0.0000 H   0  0  0  0  0  0  0  0  0  0  0  0
   -1.0148   -0.8088    0.0000 H   0  0  0  0  0  0  0  0  0  0  0  0
   -0.3698   -1.1195    0.0000 H   0  0  0  0  0  0  0  0  0  0  0  0
   -1.6885    0.5341    0.0000 H   0  0  0  0  0  0  0  0  0  0  0  0
   -1.5292   -0.1638    0.0000 H   0  0  0  0  0  0  0  0  0  0  0  0
   -1.0586    1.8982    0.0000 H   0  0  0  0  0  0  0  0  0  0  0  0
   -1.5049    1.3385    0.0000 H   0  0  0  0  0  0  0  0  0  0  0  0
    0.4006    2.2561    0.0000 H   0  0  0  0  0  0  0  0  0  0  0  0
   -0.3153    2.2561    0.0000 H   0  0  0  0  0  0  0  0  0  0  0  0
  1  2  1  0  0  0  0
  2  3  1  0  0  0  0
  3  4  1  0  0  0  0
  4  5  2  0  0  0  0
  4  6  1  0  0  0  0
  6  7  1  0  0  0  0
  7  8  1  0  0  0  0
  8  9  1  0  0  0  0
  9 10  1  0  0  0  0
 10 11  1  0  0  0  0
 11 12  1  0  0  0  0
  6 12  1  0  0  0  0
  1 13  1  0  0  0  0
  1 14  1  0  0  0  0
  1 15  1  0  0  0  0
  2 16  1  0  0  0  0
  2 17  1  0  0  0  0
  7 18  1  0  0  0  0
  7 19  1  0  0  0  0
  8 20  1  0  0  0  0
  8 21  1  0  0  0  0
  9 22  1  0  0  0  0
  9 23  1  0  0  0  0
 10 24  1  0  0  0  0
 10 25  1  0  0  0  0
 11 26  1  0  0  0  0
 11 27  1  0  0  0  0
 12 28  1  0  0  0  0
 12 29  1  0  0  0  0
M  END
>  <InChIKey>
InChI=1S/C9H17NOS/c1-2-12-9(11)10-7-5-3-4-6-8-10/h2-8H2,1H3

>  <CASRN>
2212-67-1

> <Outcome>
1

>  <Index>
1362

>  <StandardizerResult>
Clear Stereo (ID: ClearStereo)
Wedge Clean (ID: WedgeClean)
Mesomerize (ID: Mesomerize)
Tautomerize (ID: Tautomerize)
Add Explicit Hydrogens (ID: AddExplicitH)
Neutralize (ID: Neutralize)
Clean 2D (ID: Clean2D)

> <knn Distance>


> <CpId>
1362

$$$$
1365
  Mrv1532301301811342D          

 12 11  0  0  0  0            999 V2000
    0.8235   -1.4315    0.0000 O   0  0  0  0  0  0  0  0  0  0  0  0
    1.2360   -0.7170    0.0000 C   0  0  0  0  0  0  0  0  0  0  0  0
    2.0610   -0.7170    0.0000 C   0  0  0  0  0  0  0  0  0  0  0  0
    2.4735   -1.4315    0.0000 Cl  0  0  0  0  0  0  0  0  0  0  0  0
    0.8235   -0.0025    0.0000 C   0  0  0  0  0  0  0  0  0  0  0  0
   -0.0015   -0.0025    0.0000 Cl  0  0  0  0  0  0  0  0  0  0  0  0
   -0.0015   -1.4315    0.0000 H   0  0  0  0  0  0  0  0  0  0  0  0
    1.6485   -1.4315    0.0000 H   0  0  0  0  0  0  0  0  0  0  0  0
    2.7503   -0.2637    0.0000 H   0  0  0  0  0  0  0  0  0  0  0  0
    2.1090    0.1066    0.0000 H   0  0  0  0  0  0  0  0  0  0  0  0
    1.5128    0.4508    0.0000 H   0  0  0  0  0  0  0  0  0  0  0  0
    0.8715    0.8211    0.0000 H   0  0  0  0  0  0  0  0  0  0  0  0
  1  2  1  0  0  0  0
  2  3  1  0  0  0  0
  3  4  1  0  0  0  0
  2  5  1  0  0  0  0
  5  6  1  0  0  0  0
  1  7  1  0  0  0  0
  2  8  1  0  0  0  0
  3  9  1  0  0  0  0
  3 10  1  0  0  0  0
  5 11  1  0  0  0  0
  5 12  1  0  0  0  0
M  END
>  <InChIKey>
InChI=1S/C3H6Cl2O/c4-1-3(6)2-5/h3,6H,1-2H2

>  <CASRN>
96-23-1

> <Outcome>
1

>  <Index>
1365

>  <StandardizerResult>
Clear Stereo (ID: ClearStereo)
Wedge Clean (ID: WedgeClean)
Mesomerize (ID: Mesomerize)
Tautomerize (ID: Tautomerize)
Add Explicit Hydrogens (ID: AddExplicitH)
Neutralize (ID: Neutralize)
Clean 2D (ID: Clean2D)

> <knn Distance>


> <CpId>
1365

$$$$
1366
  Mrv1532301301811342D          

 35 35  0  0  0  0            999 V2000
    1.7867   -2.0936    0.0000 C   0  0  0  0  0  0  0  0  0  0  0  0
    2.1992   -2.8081    0.0000 C   0  0  0  0  0  0  0  0  0  0  0  0
    3.0242   -2.8081    0.0000 S   0  0  0  0  0  0  0  0  0  0  0  0
    3.4367   -3.5225    0.0000 C   0  0  0  0  0  0  0  0  0  0  0  0
    3.0242   -4.2370    0.0000 O   0  0  0  0  0  0  0  0  0  0  0  0
    4.2617   -3.5225    0.0000 N   0  0  0  0  0  0  0  0  0  0  0  0
    4.6742   -2.8081    0.0000 C   0  0  0  0  0  0  0  0  0  0  0  0
    5.4992   -2.8081    0.0000 C   0  0  0  0  0  0  0  0  0  0  0  0
    4.6742   -4.2370    0.0000 C   0  0  0  0  0  0  0  0  0  0  0  0
    5.4992   -4.2370    0.0000 C   0  0  0  0  0  0  0  0  0  0  0  0
    5.9117   -4.9515    0.0000 C   0  0  0  0  0  0  0  0  0  0  0  0
    5.4992   -5.6659    0.0000 C   0  0  0  0  0  0  0  0  0  0  0  0
    4.6742   -5.6659    0.0000 C   0  0  0  0  0  0  0  0  0  0  0  0
    4.2617   -4.9515    0.0000 C   0  0  0  0  0  0  0  0  0  0  0  0
    2.5012   -1.6811    0.0000 H   0  0  0  0  0  0  0  0  0  0  0  0
    1.3742   -1.3791    0.0000 H   0  0  0  0  0  0  0  0  0  0  0  0
    1.0723   -2.5061    0.0000 H   0  0  0  0  0  0  0  0  0  0  0  0
    1.5100   -3.2614    0.0000 H   0  0  0  0  0  0  0  0  0  0  0  0
    2.1513   -3.6317    0.0000 H   0  0  0  0  0  0  0  0  0  0  0  0
    4.6263   -1.9845    0.0000 H   0  0  0  0  0  0  0  0  0  0  0  0
    3.9850   -2.3547    0.0000 H   0  0  0  0  0  0  0  0  0  0  0  0
    5.4992   -3.6331    0.0000 H   0  0  0  0  0  0  0  0  0  0  0  0
    6.3242   -2.8081    0.0000 H   0  0  0  0  0  0  0  0  0  0  0  0
    5.4992   -1.9831    0.0000 H   0  0  0  0  0  0  0  0  0  0  0  0
    3.8492   -4.2370    0.0000 H   0  0  0  0  0  0  0  0  0  0  0  0
    6.2961   -4.0235    0.0000 H   0  0  0  0  0  0  0  0  0  0  0  0
    5.0867   -4.9515    0.0000 H   0  0  0  0  0  0  0  0  0  0  0  0
    6.6490   -5.3217    0.0000 H   0  0  0  0  0  0  0  0  0  0  0  0
    6.6490   -4.5812    0.0000 H   0  0  0  0  0  0  0  0  0  0  0  0
    5.5472   -6.4895    0.0000 H   0  0  0  0  0  0  0  0  0  0  0  0
    6.1885   -6.1193    0.0000 H   0  0  0  0  0  0  0  0  0  0  0  0
    3.9850   -6.1193    0.0000 H   0  0  0  0  0  0  0  0  0  0  0  0
    4.6263   -6.4895    0.0000 H   0  0  0  0  0  0  0  0  0  0  0  0
    3.4493   -5.0947    0.0000 H   0  0  0  0  0  0  0  0  0  0  0  0
    3.7314   -5.5835    0.0000 H   0  0  0  0  0  0  0  0  0  0  0  0
  1  2  1  0  0  0  0
  2  3  1  0  0  0  0
  3  4  1  0  0  0  0
  4  5  2  0  0  0  0
  4  6  1  0  0  0  0
  6  7  1  0  0  0  0
  7  8  1  0  0  0  0
  6  9  1  0  0  0  0
  9 10  1  0  0  0  0
 10 11  1  0  0  0  0
 11 12  1  0  0  0  0
 12 13  1  0  0  0  0
 13 14  1  0  0  0  0
  9 14  1  0  0  0  0
  1 15  1  0  0  0  0
  1 16  1  0  0  0  0
  1 17  1  0  0  0  0
  2 18  1  0  0  0  0
  2 19  1  0  0  0  0
  7 20  1  0  0  0  0
  7 21  1  0  0  0  0
  8 22  1  0  0  0  0
  8 23  1  0  0  0  0
  8 24  1  0  0  0  0
  9 25  1  0  0  0  0
 10 26  1  0  0  0  0
 10 27  1  0  0  0  0
 11 28  1  0  0  0  0
 11 29  1  0  0  0  0
 12 30  1  0  0  0  0
 12 31  1  0  0  0  0
 13 32  1  0  0  0  0
 13 33  1  0  0  0  0
 14 34  1  0  0  0  0
 14 35  1  0  0  0  0
M  END
>  <InChIKey>
InChI=1S/C11H21NOS/c1-3-12(11(13)14-4-2)10-8-6-5-7-9-10/h10H,3-9H2,1-2H3

>  <CASRN>
1134-23-2

> <Outcome>
1

>  <Index>
1366

>  <StandardizerResult>
Clear Stereo (ID: ClearStereo)
Wedge Clean (ID: WedgeClean)
Mesomerize (ID: Mesomerize)
Tautomerize (ID: Tautomerize)
Add Explicit Hydrogens (ID: AddExplicitH)
Neutralize (ID: Neutralize)
Clean 2D (ID: Clean2D)

> <knn Distance>


> <CpId>
1366

$$$$
1368
  Mrv1532301301811342D          

 20 21  0  0  0  0            999 V2000
   -0.0000   -1.6500    0.0000 O   0  0  0  0  0  0  0  0  0  0  0  0
    0.7145   -1.2375    0.0000 C   0  0  0  0  0  0  0  0  0  0  0  0
    0.7145   -0.4125    0.0000 C   0  0  0  0  0  0  0  0  0  0  0  0
    1.4289    0.0000    0.0000 C   0  0  0  0  0  0  0  0  0  0  0  0
    2.1434   -0.4125    0.0000 C   0  0  0  0  0  0  0  0  0  0  0  0
    2.8579    0.0000    0.0000 C   0  0  0  0  0  0  0  0  0  0  0  0
    3.5724   -0.4125    0.0000 C   0  0  0  0  0  0  0  0  0  0  0  0
    3.5724   -1.2375    0.0000 C   0  0  0  0  0  0  0  0  0  0  0  0
    4.2868   -1.6500    0.0000 O   0  0  0  0  0  0  0  0  0  0  0  0
    2.8579   -1.6500    0.0000 C   0  0  0  0  0  0  0  0  0  0  0  0
    2.1434   -1.2375    0.0000 C   0  0  0  0  0  0  0  0  0  0  0  0
    1.4289   -1.6500    0.0000 C   0  0  0  0  0  0  0  0  0  0  0  0
   -0.7145   -1.2375    0.0000 H   0  0  0  0  0  0  0  0  0  0  0  0
   -0.0000    0.0000    0.0000 H   0  0  0  0  0  0  0  0  0  0  0  0
    1.4289    0.8250    0.0000 H   0  0  0  0  0  0  0  0  0  0  0  0
    2.8579    0.8250    0.0000 H   0  0  0  0  0  0  0  0  0  0  0  0
    4.2868    0.0000    0.0000 H   0  0  0  0  0  0  0  0  0  0  0  0
    4.2868   -2.4750    0.0000 H   0  0  0  0  0  0  0  0  0  0  0  0
    2.8579   -2.4750    0.0000 H   0  0  0  0  0  0  0  0  0  0  0  0
    1.4289   -2.4750    0.0000 H   0  0  0  0  0  0  0  0  0  0  0  0
  1  2  1  0  0  0  0
  2  3  4  0  0  0  0
  3  4  4  0  0  0  0
  4  5  4  0  0  0  0
  5  6  4  0  0  0  0
  6  7  4  0  0  0  0
  7  8  4  0  0  0  0
  8  9  1  0  0  0  0
  8 10  4  0  0  0  0
 10 11  4  0  0  0  0
  5 11  4  0  0  0  0
 11 12  4  0  0  0  0
  2 12  4  0  0  0  0
  1 13  1  0  0  0  0
  3 14  1  0  0  0  0
  4 15  1  0  0  0  0
  6 16  1  0  0  0  0
  7 17  1  0  0  0  0
  9 18  1  0  0  0  0
 10 19  1  0  0  0  0
 12 20  1  0  0  0  0
M  END
>  <InChIKey>
InChI=1S/C10H8O2/c11-9-3-1-7-2-4-10(12)6-8(7)5-9/h1-6,11-12H

>  <UN GHS>
1

>  <CASRN>
582-17-2

> <Outcome>
1

>  <Index>
1368

>  <StandardizerResult>
Dearomatize (ID: Dearomatize)
Clear Stereo (ID: ClearStereo)
Wedge Clean (ID: WedgeClean)
Mesomerize (ID: Mesomerize)
Tautomerize (ID: Tautomerize)
Aromatize (ID: Aromatize)
Add Explicit Hydrogens (ID: AddExplicitH)
Neutralize (ID: Neutralize)
Clean 2D (ID: Clean2D)

> <knn Distance>


> <CpId>
1368

$$$$
1372
  Mrv1532301301811342D          

 14 14  0  0  0  0            999 V2000
   -0.7145    2.8875    0.0000 O   0  0  0  0  0  0  0  0  0  0  0  0
   -0.0000    2.4750    0.0000 C   0  0  0  0  0  0  0  0  0  0  0  0
    0.7145    2.0625    0.0000 N   0  0  0  0  0  0  0  0  0  0  0  0
    0.7145    1.2375    0.0000 C   0  0  0  0  0  0  0  0  0  0  0  0
    1.4289    0.8250    0.0000 C   0  0  0  0  0  0  0  0  0  0  0  0
    1.4289    0.0000    0.0000 C   0  0  0  0  0  0  0  0  0  0  0  0
    0.7145   -0.4125    0.0000 C   0  0  0  0  0  0  0  0  0  0  0  0
   -0.0000    0.0000    0.0000 C   0  0  0  0  0  0  0  0  0  0  0  0
   -0.0000    0.8250    0.0000 C   0  0  0  0  0  0  0  0  0  0  0  0
    2.1434    1.2375    0.0000 H   0  0  0  0  0  0  0  0  0  0  0  0
    2.1434   -0.4125    0.0000 H   0  0  0  0  0  0  0  0  0  0  0  0
    0.7145   -1.2375    0.0000 H   0  0  0  0  0  0  0  0  0  0  0  0
   -0.7145   -0.4125    0.0000 H   0  0  0  0  0  0  0  0  0  0  0  0
   -0.7145    1.2375    0.0000 H   0  0  0  0  0  0  0  0  0  0  0  0
  1  2  2  0  0  0  0
  2  3  2  0  0  0  0
  3  4  1  0  0  0  0
  4  5  4  0  0  0  0
  5  6  4  0  0  0  0
  6  7  4  0  0  0  0
  7  8  4  0  0  0  0
  8  9  4  0  0  0  0
  4  9  4  0  0  0  0
  5 10  1  0  0  0  0
  6 11  1  0  0  0  0
  7 12  1  0  0  0  0
  8 13  1  0  0  0  0
  9 14  1  0  0  0  0
M  END
>  <InChIKey>
InChI=1S/C7H5NO/c9-6-8-7-4-2-1-3-5-7/h1-5H

>  <CASRN>
103-71-9

> <Outcome>
1

>  <Index>
1372

>  <StandardizerResult>
Dearomatize (ID: Dearomatize)
Clear Stereo (ID: ClearStereo)
Wedge Clean (ID: WedgeClean)
Mesomerize (ID: Mesomerize)
Tautomerize (ID: Tautomerize)
Aromatize (ID: Aromatize)
Add Explicit Hydrogens (ID: AddExplicitH)
Neutralize (ID: Neutralize)
Clean 2D (ID: Clean2D)

> <knn Distance>


> <CpId>
1372

$$$$
1373
  Mrv1532301301811342D          

 10  9  0  0  0  0            999 V2000
    2.0625   -0.7145    0.0000 O   0  0  0  0  0  0  0  0  0  0  0  0
    1.2375   -0.7145    0.0000 C   0  0  0  0  0  0  0  0  0  0  0  0
    0.8250   -0.0000    0.0000 C   0  0  0  0  0  0  0  0  0  0  0  0
    0.0000   -0.0000    0.0000 S   0  0  0  0  0  0  0  0  0  0  0  0
    2.4750   -1.4290    0.0000 H   0  0  0  0  0  0  0  0  0  0  0  0
    0.5482   -1.1678    0.0000 H   0  0  0  0  0  0  0  0  0  0  0  0
    1.1895   -1.5381    0.0000 H   0  0  0  0  0  0  0  0  0  0  0  0
    1.5143    0.4533    0.0000 H   0  0  0  0  0  0  0  0  0  0  0  0
    0.8730    0.8236    0.0000 H   0  0  0  0  0  0  0  0  0  0  0  0
   -0.4125    0.7145    0.0000 H   0  0  0  0  0  0  0  0  0  0  0  0
  1  2  1  0  0  0  0
  2  3  1  0  0  0  0
  3  4  1  0  0  0  0
  1  5  1  0  0  0  0
  2  6  1  0  0  0  0
  2  7  1  0  0  0  0
  3  8  1  0  0  0  0
  3  9  1  0  0  0  0
  4 10  1  0  0  0  0
M  END
>  <InChIKey>
InChI=1S/C2H6OS/c3-1-2-4/h3-4H,1-2H2

>  <CASRN>
60-24-2

> <Outcome>
1

>  <Index>
1373

>  <StandardizerResult>
Clear Stereo (ID: ClearStereo)
Wedge Clean (ID: WedgeClean)
Mesomerize (ID: Mesomerize)
Tautomerize (ID: Tautomerize)
Add Explicit Hydrogens (ID: AddExplicitH)
Neutralize (ID: Neutralize)
Clean 2D (ID: Clean2D)

> <knn Distance>


> <CpId>
1373

$$$$
1376
  Mrv1532301301811342D          

 10  9  0  0  0  0            999 V2000
    0.8232    1.4289    0.0000 N   0  0  0  0  0  0  0  0  0  0  0  0
    1.2357    0.7145    0.0000 C   0  0  0  0  0  0  0  0  0  0  0  0
    0.8232   -0.0000    0.0000 C   0  0  0  0  0  0  0  0  0  0  0  0
    1.2357   -0.7145    0.0000 O   0  0  0  0  0  0  0  0  0  0  0  0
   -0.0018   -0.0000    0.0000 O   0  0  0  0  0  0  0  0  0  0  0  0
    1.2357    2.1434    0.0000 H   0  0  0  0  0  0  0  0  0  0  0  0
   -0.0018    1.4289    0.0000 H   0  0  0  0  0  0  0  0  0  0  0  0
    1.9730    0.3442    0.0000 H   0  0  0  0  0  0  0  0  0  0  0  0
    1.9730    1.0847    0.0000 H   0  0  0  0  0  0  0  0  0  0  0  0
    0.8232   -1.4289    0.0000 H   0  0  0  0  0  0  0  0  0  0  0  0
  1  2  1  0  0  0  0
  2  3  1  0  0  0  0
  3  4  1  0  0  0  0
  3  5  2  0  0  0  0
  1  6  1  0  0  0  0
  1  7  1  0  0  0  0
  2  8  1  0  0  0  0
  2  9  1  0  0  0  0
  4 10  1  0  0  0  0
M  END
>  <InChIKey>
InChI=1S/C2H5NO2/c3-1-2(4)5/h1,3H2,(H,4,5)

>  <CASRN>
56-40-6

> <Outcome>
1

>  <Index>
1376

>  <StandardizerResult>
Clear Stereo (ID: ClearStereo)
Wedge Clean (ID: WedgeClean)
Mesomerize (ID: Mesomerize)
Tautomerize (ID: Tautomerize)
Add Explicit Hydrogens (ID: AddExplicitH)
Neutralize (ID: Neutralize)
Clean 2D (ID: Clean2D)

> <knn Distance>


> <CpId>
1376

$$$$
1377
  Mrv1532301301811342D          

 12 12  0  0  0  0            999 V2000
    0.5678    1.9393    0.0000 C   0  0  0  0  0  0  0  0  0  0  0  0
    0.5678    1.1143    0.0000 N   0  0  0  0  0  0  0  0  0  0  0  0
    1.2352    0.6294    0.0000 S   0  0  0  0  0  0  0  0  0  0  0  0
    0.9803   -0.1553    0.0000 C   0  0  0  0  0  0  0  0  0  0  0  0
    1.4652   -0.8227    0.0000 Cl  0  0  0  0  0  0  0  0  0  0  0  0
    0.1553   -0.1553    0.0000 C   0  0  0  0  0  0  0  0  0  0  0  0
   -0.0997    0.6294    0.0000 C   0  0  0  0  0  0  0  0  0  0  0  0
   -0.8843    0.8843    0.0000 O   0  0  0  0  0  0  0  0  0  0  0  0
    1.3928    1.9393    0.0000 H   0  0  0  0  0  0  0  0  0  0  0  0
    0.5678    2.7643    0.0000 H   0  0  0  0  0  0  0  0  0  0  0  0
   -0.2572    1.9393    0.0000 H   0  0  0  0  0  0  0  0  0  0  0  0
   -0.3296   -0.8227    0.0000 H   0  0  0  0  0  0  0  0  0  0  0  0
  1  2  1  0  0  0  0
  2  3  1  0  0  0  0
  3  4  1  0  0  0  0
  4  5  1  0  0  0  0
  4  6  2  0  0  0  0
  6  7  1  0  0  0  0
  2  7  1  0  0  0  0
  7  8  2  0  0  0  0
  1  9  1  0  0  0  0
  1 10  1  0  0  0  0
  1 11  1  0  0  0  0
  6 12  1  0  0  0  0
M  END
>  <InChIKey>
InChI=1S/C4H4ClNOS/c1-6-4(7)2-3(5)8-6/h2H,1H3

>  <CASRN>
26172-55-4

> <Outcome>
1

>  <Index>
1377

>  <StandardizerResult>
Dearomatize (ID: Dearomatize)
Clear Stereo (ID: ClearStereo)
Wedge Clean (ID: WedgeClean)
Mesomerize (ID: Mesomerize)
Tautomerize (ID: Tautomerize)
Add Explicit Hydrogens (ID: AddExplicitH)
Neutralize (ID: Neutralize)
Clean 2D (ID: Clean2D)

> <knn Distance>


> <CpId>
1377

$$$$
1380
  Mrv1532301301811342D          

 16 15  0  0  0  0            999 V2000
    0.9346   -1.2369    0.0000 Br  0  0  0  0  0  0  0  0  0  0  0  0
    1.6491   -0.8244    0.0000 C   0  0  0  0  0  0  0  0  0  0  0  0
    1.6491    0.0006    0.0000 C   0  0  0  0  0  0  0  0  0  0  0  0
    2.4741    0.0006    0.0000 Br  0  0  0  0  0  0  0  0  0  0  0  0
    1.6491    0.8256    0.0000 C   0  0  0  0  0  0  0  0  0  0  0  0
    2.3635    1.2381    0.0000 C   0  0  0  0  0  0  0  0  0  0  0  0
    2.3635    2.0631    0.0000 C   0  0  0  0  0  0  0  0  0  0  0  0
    2.3635    2.8881    0.0000 N   0  0  0  0  0  0  0  0  0  0  0  0
    0.8241    0.0006    0.0000 C   0  0  0  0  0  0  0  0  0  0  0  0
   -0.0009    0.0006    0.0000 N   0  0  0  0  0  0  0  0  0  0  0  0
    2.1024   -1.5137    0.0000 H   0  0  0  0  0  0  0  0  0  0  0  0
    2.4727   -0.8724    0.0000 H   0  0  0  0  0  0  0  0  0  0  0  0
    1.1957    1.5148    0.0000 H   0  0  0  0  0  0  0  0  0  0  0  0
    0.8254    0.8735    0.0000 H   0  0  0  0  0  0  0  0  0  0  0  0
    2.8169    0.5488    0.0000 H   0  0  0  0  0  0  0  0  0  0  0  0
    3.1871    1.1901    0.0000 H   0  0  0  0  0  0  0  0  0  0  0  0
  1  2  1  0  0  0  0
  2  3  1  0  0  0  0
  3  4  1  0  0  0  0
  3  5  1  0  0  0  0
  5  6  1  0  0  0  0
  6  7  1  0  0  0  0
  7  8  3  0  0  0  0
  3  9  1  0  0  0  0
  9 10  3  0  0  0  0
  2 11  1  0  0  0  0
  2 12  1  0  0  0  0
  5 13  1  0  0  0  0
  5 14  1  0  0  0  0
  6 15  1  0  0  0  0
  6 16  1  0  0  0  0
M  END
>  <InChIKey>
InChI=1S/C6H6Br2N2/c7-4-6(8,5-10)2-1-3-9/h1-2,4H2

>  <CASRN>
35691-65-7

> <Outcome>
1

>  <Index>
1380

>  <StandardizerResult>
Clear Stereo (ID: ClearStereo)
Wedge Clean (ID: WedgeClean)
Mesomerize (ID: Mesomerize)
Tautomerize (ID: Tautomerize)
Add Explicit Hydrogens (ID: AddExplicitH)
Neutralize (ID: Neutralize)
Clean 2D (ID: Clean2D)

> <knn Distance>


> <CpId>
1380

$$$$
1381
  Mrv1532301301811342D          

 11 10  0  0  0  0            999 V2000
    2.4750   -1.4289    0.0000 O   0  0  0  0  0  0  0  0  0  0  0  0
    2.0625   -0.7145    0.0000 C   0  0  0  0  0  0  0  0  0  0  0  0
    2.4750   -0.0000    0.0000 O   0  0  0  0  0  0  0  0  0  0  0  0
    1.2375   -0.7145    0.0000 C   0  0  0  0  0  0  0  0  0  0  0  0
    0.8250   -0.0000    0.0000 C   0  0  0  0  0  0  0  0  0  0  0  0
    0.0000   -0.0000    0.0000 Br  0  0  0  0  0  0  0  0  0  0  0  0
    2.0625   -2.1434    0.0000 H   0  0  0  0  0  0  0  0  0  0  0  0
    0.5482   -1.1678    0.0000 H   0  0  0  0  0  0  0  0  0  0  0  0
    1.1895   -1.5381    0.0000 H   0  0  0  0  0  0  0  0  0  0  0  0
    1.5143    0.4533    0.0000 H   0  0  0  0  0  0  0  0  0  0  0  0
    0.8730    0.8236    0.0000 H   0  0  0  0  0  0  0  0  0  0  0  0
  1  2  1  0  0  0  0
  2  3  2  0  0  0  0
  2  4  1  0  0  0  0
  4  5  1  0  0  0  0
  5  6  1  0  0  0  0
  1  7  1  0  0  0  0
  4  8  1  0  0  0  0
  4  9  1  0  0  0  0
  5 10  1  0  0  0  0
  5 11  1  0  0  0  0
M  END
>  <InChIKey>
InChI=1S/C3H5BrO2/c4-2-1-3(5)6/h1-2H2,(H,5,6)

>  <CASRN>
590-92-1

> <Outcome>
1

>  <Index>
1381

>  <StandardizerResult>
Clear Stereo (ID: ClearStereo)
Wedge Clean (ID: WedgeClean)
Mesomerize (ID: Mesomerize)
Tautomerize (ID: Tautomerize)
Add Explicit Hydrogens (ID: AddExplicitH)
Neutralize (ID: Neutralize)
Clean 2D (ID: Clean2D)

> <knn Distance>


> <CpId>
1381

$$$$
1383
  Mrv1532301301811342D          

 37 37  0  0  0  0            999 V2000
    0.7026    2.9846    0.0000 C   0  0  0  0  0  0  0  0  0  0  0  0
    0.7026    2.1596    0.0000 C   0  0  0  0  0  0  0  0  0  0  0  0
   -0.1224    2.1596    0.0000 C   0  0  0  0  0  0  0  0  0  0  0  0
    1.5276    2.1596    0.0000 C   0  0  0  0  0  0  0  0  0  0  0  0
    0.7026    1.3346    0.0000 C   0  0  0  0  0  0  0  0  0  0  0  0
    1.4170    0.9221    0.0000 C   0  0  0  0  0  0  0  0  0  0  0  0
    1.4170    0.0971    0.0000 C   0  0  0  0  0  0  0  0  0  0  0  0
    0.7026   -0.3154    0.0000 C   0  0  0  0  0  0  0  0  0  0  0  0
   -0.0119    0.0971    0.0000 C   0  0  0  0  0  0  0  0  0  0  0  0
   -0.0119    0.9221    0.0000 C   0  0  0  0  0  0  0  0  0  0  0  0
   -0.7264    1.3346    0.0000 O   0  0  0  0  0  0  0  0  0  0  0  0
   -0.7264   -0.3154    0.0000 C   0  0  0  0  0  0  0  0  0  0  0  0
   -1.4409   -0.7279    0.0000 C   0  0  0  0  0  0  0  0  0  0  0  0
   -1.1389    0.3990    0.0000 C   0  0  0  0  0  0  0  0  0  0  0  0
   -0.3139   -1.0299    0.0000 C   0  0  0  0  0  0  0  0  0  0  0  0
    1.5276    2.9846    0.0000 H   0  0  0  0  0  0  0  0  0  0  0  0
    0.7026    3.8096    0.0000 H   0  0  0  0  0  0  0  0  0  0  0  0
   -0.1224    2.9846    0.0000 H   0  0  0  0  0  0  0  0  0  0  0  0
   -0.8847    2.4753    0.0000 H   0  0  0  0  0  0  0  0  0  0  0  0
   -0.7058    1.5762    0.0000 H   0  0  0  0  0  0  0  0  0  0  0  0
    0.1933    1.3974    0.0000 H   0  0  0  0  0  0  0  0  0  0  0  0
    1.2118    1.3974    0.0000 H   0  0  0  0  0  0  0  0  0  0  0  0
    2.1109    1.5762    0.0000 H   0  0  0  0  0  0  0  0  0  0  0  0
    2.2898    2.4753    0.0000 H   0  0  0  0  0  0  0  0  0  0  0  0
    2.1745    0.5952    0.0000 H   0  0  0  0  0  0  0  0  0  0  0  0
    1.8501   -0.6051    0.0000 H   0  0  0  0  0  0  0  0  0  0  0  0
    0.7026   -1.1404    0.0000 H   0  0  0  0  0  0  0  0  0  0  0  0
   -1.4577    0.9528    0.0000 H   0  0  0  0  0  0  0  0  0  0  0  0
   -1.8534   -0.0135    0.0000 H   0  0  0  0  0  0  0  0  0  0  0  0
   -2.1553   -1.1404    0.0000 H   0  0  0  0  0  0  0  0  0  0  0  0
   -1.0284   -1.4424    0.0000 H   0  0  0  0  0  0  0  0  0  0  0  0
   -0.3139    0.3987    0.0000 H   0  0  0  0  0  0  0  0  0  0  0  0
   -0.7258    1.1132    0.0000 H   0  0  0  0  0  0  0  0  0  0  0  0
   -1.9357    0.6130    0.0000 H   0  0  0  0  0  0  0  0  0  0  0  0
   -0.2062   -1.8478    0.0000 H   0  0  0  0  0  0  0  0  0  0  0  0
    0.4830   -1.2434    0.0000 H   0  0  0  0  0  0  0  0  0  0  0  0
    0.1883   -0.3754    0.0000 H   0  0  0  0  0  0  0  0  0  0  0  0
  1  2  1  0  0  0  0
  2  3  1  0  0  0  0
  2  4  1  0  0  0  0
  2  5  1  0  0  0  0
  5  6  4  0  0  0  0
  6  7  4  0  0  0  0
  7  8  4  0  0  0  0
  8  9  4  0  0  0  0
  9 10  4  0  0  0  0
  5 10  4  0  0  0  0
 10 11  1  0  0  0  0
  9 12  1  0  0  0  0
 12 13  1  0  0  0  0
 12 14  1  0  0  0  0
 12 15  1  0  0  0  0
  1 16  1  0  0  0  0
  1 17  1  0  0  0  0
  1 18  1  0  0  0  0
  3 19  1  0  0  0  0
  3 20  1  0  0  0  0
  3 21  1  0  0  0  0
  4 22  1  0  0  0  0
  4 23  1  0  0  0  0
  4 24  1  0  0  0  0
  6 25  1  0  0  0  0
  7 26  1  0  0  0  0
  8 27  1  0  0  0  0
 11 28  1  0  0  0  0
 13 29  1  0  0  0  0
 13 30  1  0  0  0  0
 13 31  1  0  0  0  0
 14 32  1  0  0  0  0
 14 33  1  0  0  0  0
 14 34  1  0  0  0  0
 15 35  1  0  0  0  0
 15 36  1  0  0  0  0
 15 37  1  0  0  0  0
M  END
>  <InChIKey>
InChI=1S/C14H22O/c1-13(2,3)10-8-7-9-11(12(10)15)14(4,5)6/h7-9,15H,1-6H3

>  <CASRN>
128-39-2

> <Outcome>
1

>  <Index>
1383

>  <StandardizerResult>
Dearomatize (ID: Dearomatize)
Clear Stereo (ID: ClearStereo)
Wedge Clean (ID: WedgeClean)
Mesomerize (ID: Mesomerize)
Tautomerize (ID: Tautomerize)
Aromatize (ID: Aromatize)
Add Explicit Hydrogens (ID: AddExplicitH)
Neutralize (ID: Neutralize)
Clean 2D (ID: Clean2D)

> <knn Distance>


> <CpId>
1383

$$$$
1384
  Mrv1532301301811342D          

 15 14  0  0  0  0            999 V2000
    0.8394   -0.7774    0.0000 C   0  0  0  0  0  0  0  0  0  0  0  0
    0.8394    0.0476    0.0000 C   0  0  0  0  0  0  0  0  0  0  0  0
    0.8394    0.8726    0.0000 C   0  0  0  0  0  0  0  0  0  0  0  0
    1.6644    0.0476    0.0000 C   0  0  0  0  0  0  0  0  0  0  0  0
    0.0144    0.0476    0.0000 O   0  0  0  0  0  0  0  0  0  0  0  0
    0.0144   -0.7774    0.0000 H   0  0  0  0  0  0  0  0  0  0  0  0
    0.8394   -1.6024    0.0000 H   0  0  0  0  0  0  0  0  0  0  0  0
    1.6644   -0.7774    0.0000 H   0  0  0  0  0  0  0  0  0  0  0  0
    1.6644    0.8726    0.0000 H   0  0  0  0  0  0  0  0  0  0  0  0
    0.8394    1.6976    0.0000 H   0  0  0  0  0  0  0  0  0  0  0  0
    0.0144    0.8726    0.0000 H   0  0  0  0  0  0  0  0  0  0  0  0
    2.2477   -0.5357    0.0000 H   0  0  0  0  0  0  0  0  0  0  0  0
    2.4894    0.0476    0.0000 H   0  0  0  0  0  0  0  0  0  0  0  0
    2.2477    0.6310    0.0000 H   0  0  0  0  0  0  0  0  0  0  0  0
   -0.8106    0.0476    0.0000 H   0  0  0  0  0  0  0  0  0  0  0  0
  1  2  1  0  0  0  0
  2  3  1  0  0  0  0
  2  4  1  0  0  0  0
  2  5  1  0  0  0  0
  1  6  1  0  0  0  0
  1  7  1  0  0  0  0
  1  8  1  0  0  0  0
  3  9  1  0  0  0  0
  3 10  1  0  0  0  0
  3 11  1  0  0  0  0
  4 12  1  0  0  0  0
  4 13  1  0  0  0  0
  4 14  1  0  0  0  0
  5 15  1  0  0  0  0
M  END
>  <InChIKey>
InChI=1S/C4H10O/c1-4(2,3)5/h5H,1-3H3

>  <CASRN>
75-65-0

> <Outcome>
1

>  <Index>
1384

>  <StandardizerResult>
Clear Stereo (ID: ClearStereo)
Wedge Clean (ID: WedgeClean)
Mesomerize (ID: Mesomerize)
Tautomerize (ID: Tautomerize)
Add Explicit Hydrogens (ID: AddExplicitH)
Neutralize (ID: Neutralize)
Clean 2D (ID: Clean2D)

> <knn Distance>


> <CpId>
1384

$$$$
1390
  Mrv1532301301811342D          

 19 19  0  0  0  0            999 V2000
    0.7145    2.0625    0.0000 C   0  0  0  0  0  0  0  0  0  0  0  0
    0.7145    1.2375    0.0000 C   0  0  0  0  0  0  0  0  0  0  0  0
    1.4289    0.8250    0.0000 C   0  0  0  0  0  0  0  0  0  0  0  0
    1.4289    0.0000    0.0000 C   0  0  0  0  0  0  0  0  0  0  0  0
    0.7145   -0.4125    0.0000 C   0  0  0  0  0  0  0  0  0  0  0  0
    0.7145   -1.2375    0.0000 O   0  0  0  0  0  0  0  0  0  0  0  0
    0.0000    0.0000    0.0000 C   0  0  0  0  0  0  0  0  0  0  0  0
    0.0000    0.8250    0.0000 C   0  0  0  0  0  0  0  0  0  0  0  0
   -0.7145   -0.4125    0.0000 C   0  0  0  0  0  0  0  0  0  0  0  0
   -1.4289    0.0000    0.0000 O   0  0  0  0  0  0  0  0  0  0  0  0
   -0.7145   -1.2375    0.0000 O   0  0  0  0  0  0  0  0  0  0  0  0
    1.5395    2.0625    0.0000 H   0  0  0  0  0  0  0  0  0  0  0  0
    0.7145    2.8875    0.0000 H   0  0  0  0  0  0  0  0  0  0  0  0
   -0.1105    2.0625    0.0000 H   0  0  0  0  0  0  0  0  0  0  0  0
    2.1434    1.2375    0.0000 H   0  0  0  0  0  0  0  0  0  0  0  0
    2.1434   -0.4125    0.0000 H   0  0  0  0  0  0  0  0  0  0  0  0
    0.0000   -1.6500    0.0000 H   0  0  0  0  0  0  0  0  0  0  0  0
   -0.7145    1.2375    0.0000 H   0  0  0  0  0  0  0  0  0  0  0  0
   -1.4289    0.8250    0.0000 H   0  0  0  0  0  0  0  0  0  0  0  0
  1  2  1  0  0  0  0
  2  3  4  0  0  0  0
  3  4  4  0  0  0  0
  4  5  4  0  0  0  0
  5  6  1  0  0  0  0
  5  7  4  0  0  0  0
  7  8  4  0  0  0  0
  2  8  4  0  0  0  0
  7  9  1  0  0  0  0
  9 10  1  0  0  0  0
  9 11  2  0  0  0  0
  1 12  1  0  0  0  0
  1 13  1  0  0  0  0
  1 14  1  0  0  0  0
  3 15  1  0  0  0  0
  4 16  1  0  0  0  0
  6 17  1  0  0  0  0
  8 18  1  0  0  0  0
 10 19  1  0  0  0  0
M  END
>  <InChIKey>
InChI=1S/C8H8O3/c1-5-2-3-7(9)6(4-5)8(10)11/h2-4,9H,1H3,(H,10,11)

>  <CASRN>
89-56-5

> <Outcome>
1

>  <Index>
1390

>  <StandardizerResult>
Dearomatize (ID: Dearomatize)
Clear Stereo (ID: ClearStereo)
Wedge Clean (ID: WedgeClean)
Mesomerize (ID: Mesomerize)
Tautomerize (ID: Tautomerize)
Aromatize (ID: Aromatize)
Add Explicit Hydrogens (ID: AddExplicitH)
Neutralize (ID: Neutralize)
Clean 2D (ID: Clean2D)

> <knn Distance>


> <CpId>
1390

$$$$
1393
  Mrv1532301301811342D          

 24 25  0  0  0  0            999 V2000
    2.1934   -0.4231    0.0000 N   0  0  0  0  0  0  0  0  0  0  0  0
    2.1934   -1.2481    0.0000 C   0  0  0  0  0  0  0  0  0  0  0  0
    2.9079   -1.6606    0.0000 C   0  0  0  0  0  0  0  0  0  0  0  0
    2.9079   -2.4856    0.0000 C   0  0  0  0  0  0  0  0  0  0  0  0
    2.1934   -2.8981    0.0000 C   0  0  0  0  0  0  0  0  0  0  0  0
    1.4789   -2.4856    0.0000 C   0  0  0  0  0  0  0  0  0  0  0  0
    1.4789   -1.6606    0.0000 C   0  0  0  0  0  0  0  0  0  0  0  0
    2.9079   -0.0106    0.0000 C   0  0  0  0  0  0  0  0  0  0  0  0
    2.9079    0.8144    0.0000 C   0  0  0  0  0  0  0  0  0  0  0  0
    3.6223    1.2269    0.0000 C   0  0  0  0  0  0  0  0  0  0  0  0
    4.3368    0.8144    0.0000 C   0  0  0  0  0  0  0  0  0  0  0  0
    4.3368   -0.0106    0.0000 C   0  0  0  0  0  0  0  0  0  0  0  0
    3.6223   -0.4231    0.0000 C   0  0  0  0  0  0  0  0  0  0  0  0
    1.4789   -0.0106    0.0000 H   0  0  0  0  0  0  0  0  0  0  0  0
    3.6223   -1.2481    0.0000 H   0  0  0  0  0  0  0  0  0  0  0  0
    3.6223   -2.8981    0.0000 H   0  0  0  0  0  0  0  0  0  0  0  0
    2.1934   -3.7231    0.0000 H   0  0  0  0  0  0  0  0  0  0  0  0
    0.7644   -2.8981    0.0000 H   0  0  0  0  0  0  0  0  0  0  0  0
    0.7644   -1.2481    0.0000 H   0  0  0  0  0  0  0  0  0  0  0  0
    2.1934    1.2269    0.0000 H   0  0  0  0  0  0  0  0  0  0  0  0
    3.6223    2.0519    0.0000 H   0  0  0  0  0  0  0  0  0  0  0  0
    5.0513    1.2269    0.0000 H   0  0  0  0  0  0  0  0  0  0  0  0
    5.0513   -0.4231    0.0000 H   0  0  0  0  0  0  0  0  0  0  0  0
    2.9079   -0.8356    0.0000 H   0  0  0  0  0  0  0  0  0  0  0  0
  1  2  1  0  0  0  0
  2  3  4  0  0  0  0
  3  4  4  0  0  0  0
  4  5  4  0  0  0  0
  5  6  4  0  0  0  0
  6  7  4  0  0  0  0
  2  7  4  0  0  0  0
  1  8  1  0  0  0  0
  8  9  4  0  0  0  0
  9 10  4  0  0  0  0
 10 11  4  0  0  0  0
 11 12  4  0  0  0  0
 12 13  4  0  0  0  0
  8 13  4  0  0  0  0
  1 14  1  0  0  0  0
  3 15  1  0  0  0  0
  4 16  1  0  0  0  0
  5 17  1  0  0  0  0
  6 18  1  0  0  0  0
  7 19  1  0  0  0  0
  9 20  1  0  0  0  0
 10 21  1  0  0  0  0
 11 22  1  0  0  0  0
 12 23  1  0  0  0  0
 13 24  1  0  0  0  0
M  END
>  <InChIKey>
InChI=1S/C12H11N/c1-3-7-11(8-4-1)13-12-9-5-2-6-10-12/h1-10,13H

>  <CASRN>
122-39-4

> <Outcome>
1

>  <Index>
1393

>  <StandardizerResult>
Dearomatize (ID: Dearomatize)
Clear Stereo (ID: ClearStereo)
Wedge Clean (ID: WedgeClean)
Mesomerize (ID: Mesomerize)
Tautomerize (ID: Tautomerize)
Aromatize (ID: Aromatize)
Add Explicit Hydrogens (ID: AddExplicitH)
Neutralize (ID: Neutralize)
Clean 2D (ID: Clean2D)

> <knn Distance>


> <CpId>
1393

$$$$
1395
  Mrv1532301301811342D          

 15 15  0  0  0  0            999 V2000
    0.7145    2.0625    0.0000 C   0  0  0  0  0  0  0  0  0  0  0  0
    0.7145    1.2375    0.0000 C   0  0  0  0  0  0  0  0  0  0  0  0
    1.4289    0.8250    0.0000 C   0  0  0  0  0  0  0  0  0  0  0  0
    2.1434    1.2375    0.0000 Cl  0  0  0  0  0  0  0  0  0  0  0  0
    1.4289    0.0000    0.0000 C   0  0  0  0  0  0  0  0  0  0  0  0
    0.7145   -0.4125    0.0000 C   0  0  0  0  0  0  0  0  0  0  0  0
    0.0000    0.0000    0.0000 C   0  0  0  0  0  0  0  0  0  0  0  0
    0.0000    0.8250    0.0000 C   0  0  0  0  0  0  0  0  0  0  0  0
   -0.7145    1.2375    0.0000 Cl  0  0  0  0  0  0  0  0  0  0  0  0
    1.5395    2.0625    0.0000 H   0  0  0  0  0  0  0  0  0  0  0  0
    0.7145    2.8875    0.0000 H   0  0  0  0  0  0  0  0  0  0  0  0
   -0.1105    2.0625    0.0000 H   0  0  0  0  0  0  0  0  0  0  0  0
    2.1434   -0.4125    0.0000 H   0  0  0  0  0  0  0  0  0  0  0  0
    0.7145   -1.2375    0.0000 H   0  0  0  0  0  0  0  0  0  0  0  0
   -0.7145   -0.4125    0.0000 H   0  0  0  0  0  0  0  0  0  0  0  0
  1  2  1  0  0  0  0
  2  3  4  0  0  0  0
  3  4  1  0  0  0  0
  3  5  4  0  0  0  0
  5  6  4  0  0  0  0
  6  7  4  0  0  0  0
  7  8  4  0  0  0  0
  2  8  4  0  0  0  0
  8  9  1  0  0  0  0
  1 10  1  0  0  0  0
  1 11  1  0  0  0  0
  1 12  1  0  0  0  0
  5 13  1  0  0  0  0
  6 14  1  0  0  0  0
  7 15  1  0  0  0  0
M  END
>  <InChIKey>
InChI=1S/C7H6Cl2/c1-5-6(8)3-2-4-7(5)9/h2-4H,1H3

>  <CASRN>
118-69-4

> <Outcome>
1

>  <Index>
1395

>  <StandardizerResult>
Dearomatize (ID: Dearomatize)
Clear Stereo (ID: ClearStereo)
Wedge Clean (ID: WedgeClean)
Mesomerize (ID: Mesomerize)
Tautomerize (ID: Tautomerize)
Aromatize (ID: Aromatize)
Add Explicit Hydrogens (ID: AddExplicitH)
Neutralize (ID: Neutralize)
Clean 2D (ID: Clean2D)

> <knn Distance>


> <CpId>
1395

$$$$
1396
  Mrv1532301301811342D          

 24 25  0  0  0  0            999 V2000
    0.7145    1.2375    0.0000 C   0  0  0  0  0  0  0  0  0  0  0  0
    1.4289    0.8250    0.0000 C   0  0  0  0  0  0  0  0  0  0  0  0
    1.4289    0.0000    0.0000 C   0  0  0  0  0  0  0  0  0  0  0  0
    0.7145   -0.4125    0.0000 C   0  0  0  0  0  0  0  0  0  0  0  0
   -0.0000    0.0000    0.0000 C   0  0  0  0  0  0  0  0  0  0  0  0
   -0.0000    0.8250    0.0000 C   0  0  0  0  0  0  0  0  0  0  0  0
    0.7145   -1.2375    0.0000 N   0  0  0  0  0  0  0  0  0  0  0  0
    1.4289   -1.6500    0.0000 N   0  0  0  0  0  0  0  0  0  0  0  0
    1.4289   -2.4750    0.0000 C   0  0  0  0  0  0  0  0  0  0  0  0
    2.1434   -2.8875    0.0000 C   0  0  0  0  0  0  0  0  0  0  0  0
    2.1434   -3.7125    0.0000 C   0  0  0  0  0  0  0  0  0  0  0  0
    1.4289   -4.1250    0.0000 C   0  0  0  0  0  0  0  0  0  0  0  0
    0.7145   -3.7125    0.0000 C   0  0  0  0  0  0  0  0  0  0  0  0
    0.7145   -2.8875    0.0000 C   0  0  0  0  0  0  0  0  0  0  0  0
    0.7145    2.0625    0.0000 H   0  0  0  0  0  0  0  0  0  0  0  0
    2.1434    1.2375    0.0000 H   0  0  0  0  0  0  0  0  0  0  0  0
    2.1434   -0.4125    0.0000 H   0  0  0  0  0  0  0  0  0  0  0  0
   -0.7145   -0.4125    0.0000 H   0  0  0  0  0  0  0  0  0  0  0  0
   -0.7145    1.2375    0.0000 H   0  0  0  0  0  0  0  0  0  0  0  0
    2.8579   -2.4750    0.0000 H   0  0  0  0  0  0  0  0  0  0  0  0
    2.8579   -4.1250    0.0000 H   0  0  0  0  0  0  0  0  0  0  0  0
    1.4289   -4.9500    0.0000 H   0  0  0  0  0  0  0  0  0  0  0  0
   -0.0000   -4.1250    0.0000 H   0  0  0  0  0  0  0  0  0  0  0  0
   -0.0000   -2.4750    0.0000 H   0  0  0  0  0  0  0  0  0  0  0  0
  1  2  4  0  0  0  0
  2  3  4  0  0  0  0
  3  4  4  0  0  0  0
  4  5  4  0  0  0  0
  5  6  4  0  0  0  0
  1  6  4  0  0  0  0
  7  4  1  4  0  0  0
  7  8  2  0  0  0  0
  8  9  1  0  0  0  0
  9 10  4  0  0  0  0
 10 11  4  0  0  0  0
 11 12  4  0  0  0  0
 12 13  4  0  0  0  0
 13 14  4  0  0  0  0
  9 14  4  0  0  0  0
  1 15  1  0  0  0  0
  2 16  1  0  0  0  0
  3 17  1  0  0  0  0
  5 18  1  0  0  0  0
  6 19  1  0  0  0  0
 10 20  1  0  0  0  0
 11 21  1  0  0  0  0
 12 22  1  0  0  0  0
 13 23  1  0  0  0  0
 14 24  1  0  0  0  0
M  END
>  <InChIKey>
InChI=1S/C12H10N2/c1-3-7-11(8-4-1)13-14-12-9-5-2-6-10-12/h1-10H

>  <CASRN>
103-33-3

> <Outcome>
1

>  <Index>
1396

>  <StandardizerResult>
Dearomatize (ID: Dearomatize)
Clear Stereo (ID: ClearStereo)
Wedge Clean (ID: WedgeClean)
Mesomerize (ID: Mesomerize)
Tautomerize (ID: Tautomerize)
Aromatize (ID: Aromatize)
Add Explicit Hydrogens (ID: AddExplicitH)
Neutralize (ID: Neutralize)
Clean 2D (ID: Clean2D)

> <knn Distance>


> <CpId>
1396

$$$$
1397
  Mrv1532301301811342D          

 15 16  0  0  0  0            999 V2000
    0.8838   -2.1500    0.0000 O   0  0  0  0  0  0  0  0  0  0  0  0
    1.1387   -1.3653    0.0000 C   0  0  0  0  0  0  0  0  0  0  0  0
    0.6538   -0.6979    0.0000 N   0  0  0  0  0  0  0  0  0  0  0  0
    1.1387   -0.0305    0.0000 S   0  0  0  0  0  0  0  0  0  0  0  0
    1.9233   -0.2854    0.0000 C   0  0  0  0  0  0  0  0  0  0  0  0
    2.6378    0.1271    0.0000 C   0  0  0  0  0  0  0  0  0  0  0  0
    3.3523   -0.2854    0.0000 C   0  0  0  0  0  0  0  0  0  0  0  0
    3.3523   -1.1104    0.0000 C   0  0  0  0  0  0  0  0  0  0  0  0
    2.6378   -1.5229    0.0000 C   0  0  0  0  0  0  0  0  0  0  0  0
    1.9233   -1.1104    0.0000 C   0  0  0  0  0  0  0  0  0  0  0  0
   -0.1712   -0.6979    0.0000 H   0  0  0  0  0  0  0  0  0  0  0  0
    2.6378    0.9521    0.0000 H   0  0  0  0  0  0  0  0  0  0  0  0
    4.0667    0.1271    0.0000 H   0  0  0  0  0  0  0  0  0  0  0  0
    4.0667   -1.5229    0.0000 H   0  0  0  0  0  0  0  0  0  0  0  0
    2.6378   -2.3479    0.0000 H   0  0  0  0  0  0  0  0  0  0  0  0
  1  2  2  0  0  0  0
  2  3  1  0  0  0  0
  3  4  1  0  0  0  0
  4  5  1  0  0  0  0
  5  6  4  0  0  0  0
  6  7  4  0  0  0  0
  7  8  4  0  0  0  0
  8  9  4  0  0  0  0
  9 10  4  0  0  0  0
  2 10  1  0  0  0  0
  5 10  4  0  0  0  0
  3 11  1  0  0  0  0
  6 12  1  0  0  0  0
  7 13  1  0  0  0  0
  8 14  1  0  0  0  0
  9 15  1  0  0  0  0
M  END
>  <InChIKey>
InChI=1S/C7H5NOS/c9-7-5-3-1-2-4-6(5)10-8-7/h1-4H,(H,8,9)

>  <UN GHS>
1

>  <CASRN>
2634-33-5

> <Outcome>
1

>  <Index>
1397

>  <StandardizerResult>
Dearomatize (ID: Dearomatize)
Clear Stereo (ID: ClearStereo)
Wedge Clean (ID: WedgeClean)
Mesomerize (ID: Mesomerize)
Tautomerize (ID: Tautomerize)
Aromatize (ID: Aromatize)
Add Explicit Hydrogens (ID: AddExplicitH)
Neutralize (ID: Neutralize)
Clean 2D (ID: Clean2D)

> <knn Distance>


> <CpId>
1397

$$$$
1400
  Mrv1532301301811342D          

  9  8  0  0  0  0            999 V2000
    2.1238   -1.5527    0.0000 C   0  0  0  0  0  0  0  0  0  0  0  0
    1.7113   -0.8382    0.0000 C   0  0  0  0  0  0  0  0  0  0  0  0
    0.8863   -0.8382    0.0000 S   0  0  0  0  0  0  0  0  0  0  0  0
    1.4093   -1.9652    0.0000 H   0  0  0  0  0  0  0  0  0  0  0  0
    2.5363   -2.2672    0.0000 H   0  0  0  0  0  0  0  0  0  0  0  0
    2.8383   -1.1402    0.0000 H   0  0  0  0  0  0  0  0  0  0  0  0
    2.4006   -0.3849    0.0000 H   0  0  0  0  0  0  0  0  0  0  0  0
    1.7593   -0.0146    0.0000 H   0  0  0  0  0  0  0  0  0  0  0  0
    0.4738   -0.1237    0.0000 H   0  0  0  0  0  0  0  0  0  0  0  0
  1  2  1  0  0  0  0
  2  3  1  0  0  0  0
  1  4  1  0  0  0  0
  1  5  1  0  0  0  0
  1  6  1  0  0  0  0
  2  7  1  0  0  0  0
  2  8  1  0  0  0  0
  3  9  1  0  0  0  0
M  END
>  <InChIKey>
InChI=1S/C2H6S/c1-2-3/h3H,2H2,1H3

>  <CASRN>
75-08-1

> <Outcome>
1

>  <Index>
1400

>  <StandardizerResult>
Mesomerize (ID: Mesomerize)
Tautomerize (ID: Tautomerize)
Add Explicit Hydrogens (ID: AddExplicitH)
Neutralize (ID: Neutralize)
Clean 2D (ID: Clean2D)

> <knn Distance>


> <CpId>
1400

$$$$
1401
  Mrv1532301301811342D          

 13 12  0  0  0  0            999 V2000
   -0.1915    0.7145    0.0000 Cl  0  0  0  0  0  0  0  0  0  0  0  0
    0.5230    1.1270    0.0000 C   0  0  0  0  0  0  0  0  0  0  0  0
    1.2375    0.7145    0.0000 C   0  0  0  0  0  0  0  0  0  0  0  0
    1.9520    1.1270    0.0000 O   0  0  0  0  0  0  0  0  0  0  0  0
    2.6664    0.7145    0.0000 C   0  0  0  0  0  0  0  0  0  0  0  0
    3.3809    1.1270    0.0000 C   0  0  0  0  0  0  0  0  0  0  0  0
    0.8933    1.8642    0.0000 H   0  0  0  0  0  0  0  0  0  0  0  0
    0.1528    1.8642    0.0000 H   0  0  0  0  0  0  0  0  0  0  0  0
    0.8672   -0.0227    0.0000 H   0  0  0  0  0  0  0  0  0  0  0  0
    1.6077   -0.0227    0.0000 H   0  0  0  0  0  0  0  0  0  0  0  0
    2.6664   -0.1105    0.0000 H   0  0  0  0  0  0  0  0  0  0  0  0
    4.0954    0.7145    0.0000 H   0  0  0  0  0  0  0  0  0  0  0  0
    3.3809    1.9520    0.0000 H   0  0  0  0  0  0  0  0  0  0  0  0
  1  2  1  0  0  0  0
  2  3  1  0  0  0  0
  3  4  1  0  0  0  0
  4  5  1  0  0  0  0
  5  6  2  0  0  0  0
  2  7  1  0  0  0  0
  2  8  1  0  0  0  0
  3  9  1  0  0  0  0
  3 10  1  0  0  0  0
  5 11  1  0  0  0  0
  6 12  1  0  0  0  0
  6 13  1  0  0  0  0
M  END
>  <InChIKey>
InChI=1S/C4H7ClO/c1-2-6-4-3-5/h2H,1,3-4H2

>  <CASRN>
110-75-8

> <Outcome>
1

>  <Index>
1401

>  <StandardizerResult>
Clear Stereo (ID: ClearStereo)
Wedge Clean (ID: WedgeClean)
Mesomerize (ID: Mesomerize)
Tautomerize (ID: Tautomerize)
Add Explicit Hydrogens (ID: AddExplicitH)
Neutralize (ID: Neutralize)
Clean 2D (ID: Clean2D)

> <knn Distance>


> <CpId>
1401

$$$$
1403
  Mrv1532301301811342D          

 33 32  0  0  0  0            999 V2000
    5.3355   -3.5793    0.0000 C   0  0  0  0  0  0  0  0  0  0  0  0
    4.9230   -2.8648    0.0000 C   0  0  0  0  0  0  0  0  0  0  0  0
    4.0980   -2.8648    0.0000 O   0  0  0  0  0  0  0  0  0  0  0  0
    3.6855   -2.1504    0.0000 P   0  0  0  0  0  0  0  0  0  0  0  0
    4.4000   -1.7379    0.0000 S   0  0  0  0  0  0  0  0  0  0  0  0
    2.9710   -2.5629    0.0000 O   0  0  0  0  0  0  0  0  0  0  0  0
    2.2566   -2.1504    0.0000 C   0  0  0  0  0  0  0  0  0  0  0  0
    1.5421   -2.5629    0.0000 C   0  0  0  0  0  0  0  0  0  0  0  0
    3.2730   -1.4359    0.0000 S   0  0  0  0  0  0  0  0  0  0  0  0
    2.4480   -1.4359    0.0000 C   0  0  0  0  0  0  0  0  0  0  0  0
    2.0355   -0.7214    0.0000 C   0  0  0  0  0  0  0  0  0  0  0  0
    1.2105   -0.7214    0.0000 S   0  0  0  0  0  0  0  0  0  0  0  0
    0.7980   -0.0069    0.0000 C   0  0  0  0  0  0  0  0  0  0  0  0
   -0.0270   -0.0069    0.0000 C   0  0  0  0  0  0  0  0  0  0  0  0
    4.6210   -3.9918    0.0000 H   0  0  0  0  0  0  0  0  0  0  0  0
    5.7480   -4.2938    0.0000 H   0  0  0  0  0  0  0  0  0  0  0  0
    6.0500   -3.1668    0.0000 H   0  0  0  0  0  0  0  0  0  0  0  0
    5.6123   -2.4115    0.0000 H   0  0  0  0  0  0  0  0  0  0  0  0
    4.9710   -2.0412    0.0000 H   0  0  0  0  0  0  0  0  0  0  0  0
    1.6020   -1.6481    0.0000 H   0  0  0  0  0  0  0  0  0  0  0  0
    3.0188   -1.8346    0.0000 H   0  0  0  0  0  0  0  0  0  0  0  0
    0.7566   -2.3105    0.0000 H   0  0  0  0  0  0  0  0  0  0  0  0
    1.1064   -3.2635    0.0000 H   0  0  0  0  0  0  0  0  0  0  0  0
    2.1158   -3.1557    0.0000 H   0  0  0  0  0  0  0  0  0  0  0  0
    3.0800   -0.9056    0.0000 H   0  0  0  0  0  0  0  0  0  0  0  0
    2.5913   -0.6234    0.0000 H   0  0  0  0  0  0  0  0  0  0  0  0
    1.9636    0.1004    0.0000 H   0  0  0  0  0  0  0  0  0  0  0  0
    1.6230   -1.4359    0.0000 H   0  0  0  0  0  0  0  0  0  0  0  0
    1.4873    0.4464    0.0000 H   0  0  0  0  0  0  0  0  0  0  0  0
    0.8460    0.8167    0.0000 H   0  0  0  0  0  0  0  0  0  0  0  0
   -0.0270    0.8181    0.0000 H   0  0  0  0  0  0  0  0  0  0  0  0
   -0.8520   -0.0069    0.0000 H   0  0  0  0  0  0  0  0  0  0  0  0
   -0.0270   -0.8319    0.0000 H   0  0  0  0  0  0  0  0  0  0  0  0
  1  2  1  0  0  0  0
  2  3  1  0  0  0  0
  3  4  1  0  0  0  0
  4  5  2  0  0  0  0
  4  6  1  0  0  0  0
  6  7  1  0  0  0  0
  7  8  1  0  0  0  0
  4  9  1  0  0  0  0
  9 10  1  0  0  0  0
 10 11  1  0  0  0  0
 11 12  1  0  0  0  0
 12 13  1  0  0  0  0
 13 14  1  0  0  0  0
  1 15  1  0  0  0  0
  1 16  1  0  0  0  0
  1 17  1  0  0  0  0
  2 18  1  0  0  0  0
  2 19  1  0  0  0  0
  7 20  1  0  0  0  0
  7 21  1  0  0  0  0
  8 22  1  0  0  0  0
  8 23  1  0  0  0  0
  8 24  1  0  0  0  0
 10 25  1  0  0  0  0
 10 26  1  0  0  0  0
 11 27  1  0  0  0  0
 11 28  1  0  0  0  0
 13 29  1  0  0  0  0
 13 30  1  0  0  0  0
 14 31  1  0  0  0  0
 14 32  1  0  0  0  0
 14 33  1  0  0  0  0
M  END
>  <InChIKey>
InChI=1S/C8H19O2PS3/c1-4-9-11(12,10-5-2)14-8-7-13-6-3/h4-8H2,1-3H3

>  <CASRN>
298-04-4

> <Outcome>
1

>  <Index>
1403

>  <StandardizerResult>
Clear Stereo (ID: ClearStereo)
Wedge Clean (ID: WedgeClean)
Mesomerize (ID: Mesomerize)
Tautomerize (ID: Tautomerize)
Add Explicit Hydrogens (ID: AddExplicitH)
Neutralize (ID: Neutralize)
Clean 2D (ID: Clean2D)

> <knn Distance>


> <CpId>
1403

$$$$
1404
  Mrv1532301301811342D          

 10  9  0  0  0  0            999 V2000
   -0.6039   -1.6500    0.0000 Cl  0  0  0  0  0  0  0  0  0  0  0  0
    0.1105   -1.2375    0.0000 C   0  0  0  0  0  0  0  0  0  0  0  0
    0.5230   -1.9520    0.0000 Cl  0  0  0  0  0  0  0  0  0  0  0  0
   -0.3020   -0.5230    0.0000 Cl  0  0  0  0  0  0  0  0  0  0  0  0
    0.8250   -0.8250    0.0000 C   0  0  0  0  0  0  0  0  0  0  0  0
    1.5395   -1.2375    0.0000 O   0  0  0  0  0  0  0  0  0  0  0  0
    0.8250   -0.0000    0.0000 C   0  0  0  0  0  0  0  0  0  0  0  0
    0.8250    0.8250    0.0000 Cl  0  0  0  0  0  0  0  0  0  0  0  0
    1.6500   -0.0000    0.0000 Cl  0  0  0  0  0  0  0  0  0  0  0  0
   -0.0000   -0.0000    0.0000 Cl  0  0  0  0  0  0  0  0  0  0  0  0
  1  2  1  0  0  0  0
  2  3  1  0  0  0  0
  2  4  1  0  0  0  0
  2  5  1  0  0  0  0
  5  6  2  0  0  0  0
  5  7  1  0  0  0  0
  7  8  1  0  0  0  0
  7  9  1  0  0  0  0
  7 10  1  0  0  0  0
M  END
>  <InChIKey>
InChI=1S/C3Cl6O/c4-2(5,6)1(10)3(7,8)9

>  <CASRN>
116-16-5

> <Outcome>
1

>  <Index>
1404

>  <StandardizerResult>
Clear Stereo (ID: ClearStereo)
Wedge Clean (ID: WedgeClean)
Mesomerize (ID: Mesomerize)
Tautomerize (ID: Tautomerize)
Clean 2D (ID: Clean2D)

> <knn Distance>


> <CpId>
1404

$$$$
1407
  Mrv1532301301811342D          

 39 38  0  0  0  0            999 V2000
    4.0853    0.5048    0.0000 C   0  0  0  0  0  0  0  0  0  0  0  0
    3.3708    0.9173    0.0000 C   0  0  0  0  0  0  0  0  0  0  0  0
    3.3708    1.7423    0.0000 O   0  0  0  0  0  0  0  0  0  0  0  0
    2.6563    2.1548    0.0000 C   0  0  0  0  0  0  0  0  0  0  0  0
    2.6563    2.9798    0.0000 O   0  0  0  0  0  0  0  0  0  0  0  0
    1.9418    1.7423    0.0000 C   0  0  0  0  0  0  0  0  0  0  0  0
    1.2274    2.1548    0.0000 C   0  0  0  0  0  0  0  0  0  0  0  0
    1.6399    2.8692    0.0000 O   0  0  0  0  0  0  0  0  0  0  0  0
    0.5129    2.5673    0.0000 C   0  0  0  0  0  0  0  0  0  0  0  0
    0.5129    3.3923    0.0000 C   0  0  0  0  0  0  0  0  0  0  0  0
    1.2274    3.8048    0.0000 O   0  0  0  0  0  0  0  0  0  0  0  0
   -0.2016    3.8048    0.0000 O   0  0  0  0  0  0  0  0  0  0  0  0
   -0.2016    4.6298    0.0000 C   0  0  0  0  0  0  0  0  0  0  0  0
   -0.9160    5.0423    0.0000 C   0  0  0  0  0  0  0  0  0  0  0  0
    0.8149    1.4403    0.0000 C   0  0  0  0  0  0  0  0  0  0  0  0
   -0.0101    1.4403    0.0000 O   0  0  0  0  0  0  0  0  0  0  0  0
    1.2274    0.7258    0.0000 O   0  0  0  0  0  0  0  0  0  0  0  0
    0.8149    0.0113    0.0000 C   0  0  0  0  0  0  0  0  0  0  0  0
   -0.0101    0.0113    0.0000 C   0  0  0  0  0  0  0  0  0  0  0  0
    3.6728   -0.2097    0.0000 H   0  0  0  0  0  0  0  0  0  0  0  0
    4.7997    0.0923    0.0000 H   0  0  0  0  0  0  0  0  0  0  0  0
    4.4978    1.2192    0.0000 H   0  0  0  0  0  0  0  0  0  0  0  0
    2.5472    0.8693    0.0000 H   0  0  0  0  0  0  0  0  0  0  0  0
    2.9174    0.2280    0.0000 H   0  0  0  0  0  0  0  0  0  0  0  0
    1.5716    1.0050    0.0000 H   0  0  0  0  0  0  0  0  0  0  0  0
    2.3121    1.0050    0.0000 H   0  0  0  0  0  0  0  0  0  0  0  0
    2.4649    2.8692    0.0000 H   0  0  0  0  0  0  0  0  0  0  0  0
   -0.3107    2.5193    0.0000 H   0  0  0  0  0  0  0  0  0  0  0  0
    0.0596    1.8780    0.0000 H   0  0  0  0  0  0  0  0  0  0  0  0
    0.6220    4.6777    0.0000 H   0  0  0  0  0  0  0  0  0  0  0  0
    0.2518    5.3190    0.0000 H   0  0  0  0  0  0  0  0  0  0  0  0
   -0.5035    5.7567    0.0000 H   0  0  0  0  0  0  0  0  0  0  0  0
   -1.6305    5.4548    0.0000 H   0  0  0  0  0  0  0  0  0  0  0  0
   -1.3285    4.3278    0.0000 H   0  0  0  0  0  0  0  0  0  0  0  0
    0.8628   -0.8123    0.0000 H   0  0  0  0  0  0  0  0  0  0  0  0
    1.5041   -0.4420    0.0000 H   0  0  0  0  0  0  0  0  0  0  0  0
   -0.0101    0.8363    0.0000 H   0  0  0  0  0  0  0  0  0  0  0  0
   -0.8351    0.0113    0.0000 H   0  0  0  0  0  0  0  0  0  0  0  0
   -0.0101   -0.8137    0.0000 H   0  0  0  0  0  0  0  0  0  0  0  0
  1  2  1  0  0  0  0
  2  3  1  0  0  0  0
  3  4  1  0  0  0  0
  4  5  2  0  0  0  0
  4  6  1  0  0  0  0
  6  7  1  0  0  0  0
  7  8  1  0  0  0  0
  7  9  1  0  0  0  0
  9 10  1  0  0  0  0
 10 11  2  0  0  0  0
 10 12  1  0  0  0  0
 12 13  1  0  0  0  0
 13 14  1  0  0  0  0
  7 15  1  0  0  0  0
 15 16  2  0  0  0  0
 15 17  1  0  0  0  0
 17 18  1  0  0  0  0
 18 19  1  0  0  0  0
  1 20  1  0  0  0  0
  1 21  1  0  0  0  0
  1 22  1  0  0  0  0
  2 23  1  0  0  0  0
  2 24  1  0  0  0  0
  6 25  1  0  0  0  0
  6 26  1  0  0  0  0
  8 27  1  0  0  0  0
  9 28  1  0  0  0  0
  9 29  1  0  0  0  0
 13 30  1  0  0  0  0
 13 31  1  0  0  0  0
 14 32  1  0  0  0  0
 14 33  1  0  0  0  0
 14 34  1  0  0  0  0
 18 35  1  0  0  0  0
 18 36  1  0  0  0  0
 19 37  1  0  0  0  0
 19 38  1  0  0  0  0
 19 39  1  0  0  0  0
M  END
>  <InChIKey>
InChI=1S/C12H20O7/c1-4-17-9(13)7-12(16,11(15)19-6-3)8-10(14)18-5-2/h16H,4-8H2,1-3H3

>  <CASRN>
77-93-0

> <Outcome>
1

>  <Index>
1407

>  <StandardizerResult>
Clear Stereo (ID: ClearStereo)
Wedge Clean (ID: WedgeClean)
Mesomerize (ID: Mesomerize)
Tautomerize (ID: Tautomerize)
Add Explicit Hydrogens (ID: AddExplicitH)
Neutralize (ID: Neutralize)
Clean 2D (ID: Clean2D)

> <knn Distance>


> <CpId>
1407

$$$$
1410
  Mrv1532301301811342D          

 16 16  0  0  0  0            999 V2000
    0.7145    2.0625    0.0000 N   0  0  0  0  0  0  0  0  0  0  0  0
    0.7145    1.2375    0.0000 C   0  0  0  0  0  0  0  0  0  0  0  0
    1.4289    0.8250    0.0000 C   0  0  0  0  0  0  0  0  0  0  0  0
    1.4289   -0.0000    0.0000 C   0  0  0  0  0  0  0  0  0  0  0  0
    0.7145   -0.4125    0.0000 C   0  0  0  0  0  0  0  0  0  0  0  0
    0.0000   -0.0000    0.0000 C   0  0  0  0  0  0  0  0  0  0  0  0
    0.0000    0.8250    0.0000 C   0  0  0  0  0  0  0  0  0  0  0  0
   -0.7145    1.2375    0.0000 N   0  0  0  0  0  0  0  0  0  0  0  0
   -1.4289    0.8250    0.0000 O   0  0  0  0  0  0  0  0  0  0  0  0
   -0.7145    2.0625    0.0000 O   0  0  0  0  0  0  0  0  0  0  0  0
    1.4289    2.4750    0.0000 H   0  0  0  0  0  0  0  0  0  0  0  0
    0.0000    2.4750    0.0000 H   0  0  0  0  0  0  0  0  0  0  0  0
    2.1434    1.2375    0.0000 H   0  0  0  0  0  0  0  0  0  0  0  0
    2.1434   -0.4125    0.0000 H   0  0  0  0  0  0  0  0  0  0  0  0
    0.7145   -1.2375    0.0000 H   0  0  0  0  0  0  0  0  0  0  0  0
   -0.7145   -0.4125    0.0000 H   0  0  0  0  0  0  0  0  0  0  0  0
  1  2  1  0  0  0  0
  2  3  4  0  0  0  0
  3  4  4  0  0  0  0
  4  5  4  0  0  0  0
  5  6  4  0  0  0  0
  6  7  4  0  0  0  0
  2  7  4  0  0  0  0
  7  8  1  0  0  0  0
  8  9  2  0  0  0  0
  8 10  2  0  0  0  0
  1 11  1  0  0  0  0
  1 12  1  0  0  0  0
  3 13  1  0  0  0  0
  4 14  1  0  0  0  0
  5 15  1  0  0  0  0
  6 16  1  0  0  0  0
M  END
>  <InChIKey>
InChI=1S/C6H6N2O2/c7-5-3-1-2-4-6(5)8(9)10/h1-4H,7H2

>  <CASRN>
88-74-4

> <Outcome>
1

>  <Index>
1410

>  <StandardizerResult>
Dearomatize (ID: Dearomatize)
Clear Stereo (ID: ClearStereo)
Wedge Clean (ID: WedgeClean)
Mesomerize (ID: Mesomerize)
Tautomerize (ID: Tautomerize)
Aromatize (ID: Aromatize)
Add Explicit Hydrogens (ID: AddExplicitH)
Neutralize (ID: Neutralize)
Clean 2D (ID: Clean2D)

> <knn Distance>


> <CpId>
1410

$$$$
1414
  Mrv1532301301811342D          

 19 18  0  0  0  0            999 V2000
    1.7297    1.8412    0.0000 C   0  0  0  0  0  0  0  0  0  0  0  0
    2.4442    1.4287    0.0000 O   0  0  0  0  0  0  0  0  0  0  0  0
    3.1587    1.8412    0.0000 C   0  0  0  0  0  0  0  0  0  0  0  0
    3.1587    2.6662    0.0000 C   0  0  0  0  0  0  0  0  0  0  0  0
    3.8731    1.4287    0.0000 O   0  0  0  0  0  0  0  0  0  0  0  0
    4.5876    1.8412    0.0000 C   0  0  0  0  0  0  0  0  0  0  0  0
    4.5876    2.6662    0.0000 O   0  0  0  0  0  0  0  0  0  0  0  0
    5.3021    1.4287    0.0000 C   0  0  0  0  0  0  0  0  0  0  0  0
    6.0165    1.8412    0.0000 C   0  0  0  0  0  0  0  0  0  0  0  0
    2.1422    2.5556    0.0000 H   0  0  0  0  0  0  0  0  0  0  0  0
    1.0152    2.2537    0.0000 H   0  0  0  0  0  0  0  0  0  0  0  0
    1.3172    1.1267    0.0000 H   0  0  0  0  0  0  0  0  0  0  0  0
    2.4442    2.2537    0.0000 H   0  0  0  0  0  0  0  0  0  0  0  0
    3.9555    2.4526    0.0000 H   0  0  0  0  0  0  0  0  0  0  0  0
    3.5712    3.3806    0.0000 H   0  0  0  0  0  0  0  0  0  0  0  0
    2.5753    3.2495    0.0000 H   0  0  0  0  0  0  0  0  0  0  0  0
    5.3021    0.6037    0.0000 H   0  0  0  0  0  0  0  0  0  0  0  0
    6.7310    1.4287    0.0000 H   0  0  0  0  0  0  0  0  0  0  0  0
    6.0165    2.6662    0.0000 H   0  0  0  0  0  0  0  0  0  0  0  0
  1  2  1  0  0  0  0
  2  3  1  0  0  0  0
  3  4  1  0  0  0  0
  3  5  1  0  0  0  0
  5  6  1  0  0  0  0
  6  7  2  0  0  0  0
  6  8  1  0  0  0  0
  8  9  2  0  0  0  0
  1 10  1  0  0  0  0
  1 11  1  0  0  0  0
  1 12  1  0  0  0  0
  3 13  1  0  0  0  0
  4 14  1  0  0  0  0
  4 15  1  0  0  0  0
  4 16  1  0  0  0  0
  8 17  1  0  0  0  0
  9 18  1  0  0  0  0
  9 19  1  0  0  0  0
M  END
>  <InChIKey>
InChI=1S/C6H10O3/c1-4-6(7)9-5(2)8-3/h4-5H,1H2,2-3H3

> <Outcome>
1

>  <Index>
1414

>  <StandardizerResult>
Clear Stereo (ID: ClearStereo)
Wedge Clean (ID: WedgeClean)
Mesomerize (ID: Mesomerize)
Tautomerize (ID: Tautomerize)
Add Explicit Hydrogens (ID: AddExplicitH)
Neutralize (ID: Neutralize)
Clean 2D (ID: Clean2D)

> <knn Distance>


> <CpId>
1414

$$$$
1420
  Mrv1532301301811342D          

 37 41  0  0  0  0            999 V2000
    0.9860    3.5559    0.0000 O   0  0  0  0  0  0  0  0  0  0  0  0
    1.3218    2.8023    0.0000 C   0  0  0  0  0  0  0  0  0  0  0  0
    0.8370    2.1348    0.0000 C   0  0  0  0  0  0  0  0  0  0  0  0
    1.1728    1.3812    0.0000 C   0  0  0  0  0  0  0  0  0  0  0  0
    1.9933    1.2952    0.0000 C   0  0  0  0  0  0  0  0  0  0  0  0
    2.4780    1.9628    0.0000 C   0  0  0  0  0  0  0  0  0  0  0  0
    3.2985    1.8768    0.0000 O   0  0  0  0  0  0  0  0  0  0  0  0
    3.6343    1.1232    0.0000 C   0  0  0  0  0  0  0  0  0  0  0  0
    4.4548    1.0372    0.0000 C   0  0  0  0  0  0  0  0  0  0  0  0
    4.9395    1.7048    0.0000 I   0  0  0  0  0  0  0  0  0  0  0  0
    4.7906    0.2836    0.0000 C   0  0  0  0  0  0  0  0  0  0  0  0
    5.6111    0.1976    0.0000 O   0  0  0  0  0  0  0  0  0  0  0  0
    4.3059   -0.3840    0.0000 C   0  0  0  0  0  0  0  0  0  0  0  0
    3.4854   -0.2980    0.0000 C   0  0  0  0  0  0  0  0  0  0  0  0
    3.1496    0.4556    0.0000 C   0  0  0  0  0  0  0  0  0  0  0  0
    2.3291    0.5416    0.0000 C   0  0  0  0  0  0  0  0  0  0  0  0
    2.5842   -0.2429    0.0000 O   0  0  0  0  0  0  0  0  0  0  0  0
    1.9169   -0.7281    0.0000 C   0  0  0  0  0  0  0  0  0  0  0  0
    1.9172   -1.5531    0.0000 O   0  0  0  0  0  0  0  0  0  0  0  0
    1.2494   -0.2433    0.0000 C   0  0  0  0  0  0  0  0  0  0  0  0
    0.4424   -0.4151    0.0000 C   0  0  0  0  0  0  0  0  0  0  0  0
   -0.1098    0.1978    0.0000 C   0  0  0  0  0  0  0  0  0  0  0  0
    0.1449    0.9825    0.0000 C   0  0  0  0  0  0  0  0  0  0  0  0
    0.9519    1.1543    0.0000 C   0  0  0  0  0  0  0  0  0  0  0  0
    1.5041    0.5414    0.0000 C   0  0  0  0  0  0  0  0  0  0  0  0
    2.1423    2.7163    0.0000 C   0  0  0  0  0  0  0  0  0  0  0  0
    2.6270    3.3839    0.0000 I   0  0  0  0  0  0  0  0  0  0  0  0
    1.4707    4.2235    0.0000 H   0  0  0  0  0  0  0  0  0  0  0  0
    0.0165    2.2208    0.0000 H   0  0  0  0  0  0  0  0  0  0  0  0
    1.6575    2.0488    0.0000 H   0  0  0  0  0  0  0  0  0  0  0  0
    5.9469   -0.5560    0.0000 H   0  0  0  0  0  0  0  0  0  0  0  0
    4.6416   -1.1376    0.0000 H   0  0  0  0  0  0  0  0  0  0  0  0
    3.4172   -1.1202    0.0000 H   0  0  0  0  0  0  0  0  0  0  0  0
    0.1877   -1.1998    0.0000 H   0  0  0  0  0  0  0  0  0  0  0  0
   -0.9167    0.0261    0.0000 H   0  0  0  0  0  0  0  0  0  0  0  0
   -0.4073    1.5955    0.0000 H   0  0  0  0  0  0  0  0  0  0  0  0
    0.5533    1.8766    0.0000 H   0  0  0  0  0  0  0  0  0  0  0  0
  1  2  1  0  0  0  0
  2  3  4  0  0  0  0
  3  4  4  0  0  0  0
  4  5  4  0  0  0  0
  5  6  4  0  0  0  0
  6  7  1  0  0  0  0
  7  8  1  0  0  0  0
  8  9  4  0  0  0  0
  9 10  1  0  0  0  0
  9 11  4  0  0  0  0
 11 12  1  0  0  0  0
 11 13  4  0  0  0  0
 13 14  4  0  0  0  0
 14 15  4  0  0  0  0
  8 15  4  0  0  0  0
 15 16  1  0  0  0  0
  5 16  1  0  0  0  0
 16 17  1  0  0  0  0
 17 18  1  0  0  0  0
 18 19  2  0  0  0  0
 18 20  1  0  0  0  0
 20 21  4  0  0  0  0
 21 22  4  0  0  0  0
 22 23  4  0  0  0  0
 23 24  4  0  0  0  0
 24 25  4  0  0  0  0
 16 25  1  0  0  0  0
 20 25  4  0  0  0  0
  6 26  4  0  0  0  0
  2 26  4  0  0  0  0
 26 27  1  0  0  0  0
  1 28  1  0  0  0  0
  3 29  1  0  0  0  0
  4 30  1  0  0  0  0
 12 31  1  0  0  0  0
 13 32  1  0  0  0  0
 14 33  1  0  0  0  0
 21 34  1  0  0  0  0
 22 35  1  0  0  0  0
 23 36  1  0  0  0  0
 24 37  1  0  0  0  0
M  END
>  <InChIKey>
InChI=1S/C20H10I2O5/c21-15-13(23)7-5-11-17(15)26-18-12(6-8-14(24)16(18)22)20(11)10-4-2-1-3-9(10)19(25)27-20/h1-8,23-24H

>  <CASRN>
38577-97-8

> <Outcome>
1

>  <Index>
1420

>  <StandardizerResult>
Dearomatize (ID: Dearomatize)
Clear Stereo (ID: ClearStereo)
Wedge Clean (ID: WedgeClean)
Mesomerize (ID: Mesomerize)
Tautomerize (ID: Tautomerize)
Aromatize (ID: Aromatize)
Add Explicit Hydrogens (ID: AddExplicitH)
Neutralize (ID: Neutralize)
Clean 2D (ID: Clean2D)

> <knn Distance>


> <CpId>
1420

$$$$
1421
  Mrv1532301301811342D          

 49 49  0  0  0  0            999 V2000
    8.2585    4.3147    0.0000 C   0  0  0  0  0  0  0  0  0  0  0  0
    8.9730    4.7272    0.0000 C   0  0  0  0  0  0  0  0  0  0  0  0
    9.6875    4.3147    0.0000 C   0  0  0  0  0  0  0  0  0  0  0  0
   10.4019    4.7272    0.0000 C   0  0  0  0  0  0  0  0  0  0  0  0
   11.1164    4.3147    0.0000 C   0  0  0  0  0  0  0  0  0  0  0  0
   11.8309    4.7272    0.0000 C   0  0  0  0  0  0  0  0  0  0  0  0
   12.5453    4.3147    0.0000 C   0  0  0  0  0  0  0  0  0  0  0  0
   13.2598    4.7272    0.0000 C   0  0  0  0  0  0  0  0  0  0  0  0
   13.9743    4.3147    0.0000 C   0  0  0  0  0  0  0  0  0  0  0  0
   14.6887    4.7272    0.0000 C   0  0  0  0  0  0  0  0  0  0  0  0
   15.4032    4.3147    0.0000 C   0  0  0  0  0  0  0  0  0  0  0  0
   16.1177    4.7272    0.0000 C   0  0  0  0  0  0  0  0  0  0  0  0
   16.8322    4.3147    0.0000 C   0  0  0  0  0  0  0  0  0  0  0  0
   17.5466    4.7272    0.0000 C   0  0  0  0  0  0  0  0  0  0  0  0
   18.2611    4.3147    0.0000 C   0  0  0  0  0  0  0  0  0  0  0  0
   19.0861    4.3147    0.0000 C   0  0  0  0  0  0  0  0  0  0  0  0
   18.6736    3.6002    0.0000 O   0  0  0  0  0  0  0  0  0  0  0  0
    7.8460    5.0291    0.0000 H   0  0  0  0  0  0  0  0  0  0  0  0
    7.5440    3.9022    0.0000 H   0  0  0  0  0  0  0  0  0  0  0  0
    8.6710    3.6002    0.0000 H   0  0  0  0  0  0  0  0  0  0  0  0
    9.3432    5.4644    0.0000 H   0  0  0  0  0  0  0  0  0  0  0  0
    8.6027    5.4644    0.0000 H   0  0  0  0  0  0  0  0  0  0  0  0
    9.3172    3.5774    0.0000 H   0  0  0  0  0  0  0  0  0  0  0  0
   10.0577    3.5774    0.0000 H   0  0  0  0  0  0  0  0  0  0  0  0
   10.7722    5.4644    0.0000 H   0  0  0  0  0  0  0  0  0  0  0  0
   10.0317    5.4644    0.0000 H   0  0  0  0  0  0  0  0  0  0  0  0
   10.7461    3.5774    0.0000 H   0  0  0  0  0  0  0  0  0  0  0  0
   11.4867    3.5774    0.0000 H   0  0  0  0  0  0  0  0  0  0  0  0
   12.2011    5.4644    0.0000 H   0  0  0  0  0  0  0  0  0  0  0  0
   11.4606    5.4644    0.0000 H   0  0  0  0  0  0  0  0  0  0  0  0
   12.1751    3.5774    0.0000 H   0  0  0  0  0  0  0  0  0  0  0  0
   12.9156    3.5774    0.0000 H   0  0  0  0  0  0  0  0  0  0  0  0
   13.6301    5.4644    0.0000 H   0  0  0  0  0  0  0  0  0  0  0  0
   12.8895    5.4644    0.0000 H   0  0  0  0  0  0  0  0  0  0  0  0
   13.6040    3.5774    0.0000 H   0  0  0  0  0  0  0  0  0  0  0  0
   14.3445    3.5774    0.0000 H   0  0  0  0  0  0  0  0  0  0  0  0
   15.0590    5.4644    0.0000 H   0  0  0  0  0  0  0  0  0  0  0  0
   14.3185    5.4644    0.0000 H   0  0  0  0  0  0  0  0  0  0  0  0
   15.0330    3.5774    0.0000 H   0  0  0  0  0  0  0  0  0  0  0  0
   15.7735    3.5774    0.0000 H   0  0  0  0  0  0  0  0  0  0  0  0
   16.4879    5.4644    0.0000 H   0  0  0  0  0  0  0  0  0  0  0  0
   15.7474    5.4644    0.0000 H   0  0  0  0  0  0  0  0  0  0  0  0
   16.4619    3.5774    0.0000 H   0  0  0  0  0  0  0  0  0  0  0  0
   17.2024    3.5774    0.0000 H   0  0  0  0  0  0  0  0  0  0  0  0
   17.9169    5.4644    0.0000 H   0  0  0  0  0  0  0  0  0  0  0  0
   17.1764    5.4644    0.0000 H   0  0  0  0  0  0  0  0  0  0  0  0
   17.6777    3.7313    0.0000 H   0  0  0  0  0  0  0  0  0  0  0  0
   19.9097    4.2667    0.0000 H   0  0  0  0  0  0  0  0  0  0  0  0
   19.4564    5.0519    0.0000 H   0  0  0  0  0  0  0  0  0  0  0  0
  1  2  1  0  0  0  0
  2  3  1  0  0  0  0
  3  4  1  0  0  0  0
  4  5  1  0  0  0  0
  5  6  1  0  0  0  0
  6  7  1  0  0  0  0
  7  8  1  0  0  0  0
  8  9  1  0  0  0  0
  9 10  1  0  0  0  0
 10 11  1  0  0  0  0
 11 12  1  0  0  0  0
 12 13  1  0  0  0  0
 13 14  1  0  0  0  0
 14 15  1  0  0  0  0
 15 16  1  0  0  0  0
 16 17  1  0  0  0  0
 15 17  1  0  0  0  0
  1 18  1  0  0  0  0
  1 19  1  0  0  0  0
  1 20  1  0  0  0  0
  2 21  1  0  0  0  0
  2 22  1  0  0  0  0
  3 23  1  0  0  0  0
  3 24  1  0  0  0  0
  4 25  1  0  0  0  0
  4 26  1  0  0  0  0
  5 27  1  0  0  0  0
  5 28  1  0  0  0  0
  6 29  1  0  0  0  0
  6 30  1  0  0  0  0
  7 31  1  0  0  0  0
  7 32  1  0  0  0  0
  8 33  1  0  0  0  0
  8 34  1  0  0  0  0
  9 35  1  0  0  0  0
  9 36  1  0  0  0  0
 10 37  1  0  0  0  0
 10 38  1  0  0  0  0
 11 39  1  0  0  0  0
 11 40  1  0  0  0  0
 12 41  1  0  0  0  0
 12 42  1  0  0  0  0
 13 43  1  0  0  0  0
 13 44  1  0  0  0  0
 14 45  1  0  0  0  0
 14 46  1  0  0  0  0
 15 47  1  0  0  0  0
 16 48  1  0  0  0  0
 16 49  1  0  0  0  0
M  END
>  <InChIKey>
InChI=1S/C16H32O/c1-2-3-4-5-6-7-8-9-10-11-12-13-14-16-15-17-16/h16H,2-15H2,1H3

>  <CASRN>
7320-37-8

> <Outcome>
1

>  <Index>
1421

>  <StandardizerResult>
Clear Stereo (ID: ClearStereo)
Wedge Clean (ID: WedgeClean)
Mesomerize (ID: Mesomerize)
Tautomerize (ID: Tautomerize)
Add Explicit Hydrogens (ID: AddExplicitH)
Neutralize (ID: Neutralize)
Clean 2D (ID: Clean2D)

> <knn Distance>


> <CpId>
1421

$$$$
1427
  Mrv1532301301811342D          

 24 26  0  0  0  0            999 V2000
    0.9417   -2.1680    0.0000 O   0  0  0  0  0  0  0  0  0  0  0  0
    1.1967   -1.3834    0.0000 C   0  0  0  0  0  0  0  0  0  0  0  0
    0.7118   -0.7159    0.0000 N   0  0  0  0  0  0  0  0  0  0  0  0
   -0.1132   -0.7159    0.0000 C   0  0  0  0  0  0  0  0  0  0  0  0
   -0.5257   -1.4304    0.0000 C   0  0  0  0  0  0  0  0  0  0  0  0
   -0.5257   -2.2554    0.0000 C   0  0  0  0  0  0  0  0  0  0  0  0
   -1.2402   -1.8429    0.0000 O   0  0  0  0  0  0  0  0  0  0  0  0
    1.1967   -0.0485    0.0000 C   0  0  0  0  0  0  0  0  0  0  0  0
    0.9417    0.7361    0.0000 O   0  0  0  0  0  0  0  0  0  0  0  0
    1.9813   -0.3034    0.0000 C   0  0  0  0  0  0  0  0  0  0  0  0
    2.6958    0.1091    0.0000 C   0  0  0  0  0  0  0  0  0  0  0  0
    3.4102   -0.3034    0.0000 C   0  0  0  0  0  0  0  0  0  0  0  0
    3.4102   -1.1284    0.0000 C   0  0  0  0  0  0  0  0  0  0  0  0
    2.6958   -1.5409    0.0000 C   0  0  0  0  0  0  0  0  0  0  0  0
    1.9813   -1.1284    0.0000 C   0  0  0  0  0  0  0  0  0  0  0  0
   -0.1612    0.1077    0.0000 H   0  0  0  0  0  0  0  0  0  0  0  0
   -0.8025   -0.2626    0.0000 H   0  0  0  0  0  0  0  0  0  0  0  0
   -1.1091   -0.8470    0.0000 H   0  0  0  0  0  0  0  0  0  0  0  0
   -0.5737   -3.0790    0.0000 H   0  0  0  0  0  0  0  0  0  0  0  0
    0.2115   -2.6256    0.0000 H   0  0  0  0  0  0  0  0  0  0  0  0
    2.6958    0.9341    0.0000 H   0  0  0  0  0  0  0  0  0  0  0  0
    4.1247    0.1091    0.0000 H   0  0  0  0  0  0  0  0  0  0  0  0
    4.1247   -1.5409    0.0000 H   0  0  0  0  0  0  0  0  0  0  0  0
    2.6958   -2.3659    0.0000 H   0  0  0  0  0  0  0  0  0  0  0  0
  1  2  2  0  0  0  0
  2  3  1  0  0  0  0
  3  4  1  0  0  0  0
  4  5  1  0  0  0  0
  5  6  1  0  0  0  0
  6  7  1  0  0  0  0
  5  7  1  0  0  0  0
  3  8  1  0  0  0  0
  8  9  2  0  0  0  0
  8 10  1  0  0  0  0
 10 11  4  0  0  0  0
 11 12  4  0  0  0  0
 12 13  4  0  0  0  0
 13 14  4  0  0  0  0
 14 15  4  0  0  0  0
  2 15  1  0  0  0  0
 10 15  4  0  0  0  0
  4 16  1  0  0  0  0
  4 17  1  0  0  0  0
  5 18  1  0  0  0  0
  6 19  1  0  0  0  0
  6 20  1  0  0  0  0
 11 21  1  0  0  0  0
 12 22  1  0  0  0  0
 13 23  1  0  0  0  0
 14 24  1  0  0  0  0
M  END
>  <InChIKey>
InChI=1S/C11H9NO3/c13-10-8-3-1-2-4-9(8)11(14)12(10)5-7-6-15-7/h1-4,7H,5-6H2

>  <CASRN>
5455-98-1

> <Outcome>
1

>  <Index>
1427

>  <StandardizerResult>
Dearomatize (ID: Dearomatize)
Clear Stereo (ID: ClearStereo)
Wedge Clean (ID: WedgeClean)
Mesomerize (ID: Mesomerize)
Tautomerize (ID: Tautomerize)
Aromatize (ID: Aromatize)
Add Explicit Hydrogens (ID: AddExplicitH)
Neutralize (ID: Neutralize)
Clean 2D (ID: Clean2D)

> <knn Distance>


> <CpId>
1427

$$$$
1430
  Mrv1532301301811342D          

 19 19  0  0  0  0            999 V2000
    0.7145    2.0625    0.0000 C   0  0  0  0  0  0  0  0  0  0  0  0
    0.7145    1.2375    0.0000 C   0  0  0  0  0  0  0  0  0  0  0  0
    1.4289    0.8250    0.0000 C   0  0  0  0  0  0  0  0  0  0  0  0
    1.4289   -0.0000    0.0000 C   0  0  0  0  0  0  0  0  0  0  0  0
    0.7145   -0.4125    0.0000 C   0  0  0  0  0  0  0  0  0  0  0  0
    0.0000   -0.0000    0.0000 C   0  0  0  0  0  0  0  0  0  0  0  0
    0.0000    0.8250    0.0000 C   0  0  0  0  0  0  0  0  0  0  0  0
   -0.7145    1.2375    0.0000 N   0  0  0  0  0  0  0  0  0  0  0  0
   -1.4289    0.8250    0.0000 C   0  0  0  0  0  0  0  0  0  0  0  0
   -2.1434    0.4125    0.0000 O   0  0  0  0  0  0  0  0  0  0  0  0
    0.7145   -1.2375    0.0000 N   0  0  0  0  0  0  0  0  0  0  0  0
    1.4289   -1.6500    0.0000 C   0  0  0  0  0  0  0  0  0  0  0  0
    2.1434   -2.0625    0.0000 O   0  0  0  0  0  0  0  0  0  0  0  0
    1.5395    2.0625    0.0000 H   0  0  0  0  0  0  0  0  0  0  0  0
    0.7145    2.8875    0.0000 H   0  0  0  0  0  0  0  0  0  0  0  0
   -0.1105    2.0625    0.0000 H   0  0  0  0  0  0  0  0  0  0  0  0
    2.1434    1.2375    0.0000 H   0  0  0  0  0  0  0  0  0  0  0  0
    2.1434   -0.4125    0.0000 H   0  0  0  0  0  0  0  0  0  0  0  0
   -0.7145   -0.4125    0.0000 H   0  0  0  0  0  0  0  0  0  0  0  0
  1  2  1  0  0  0  0
  2  3  4  0  0  0  0
  3  4  4  0  0  0  0
  4  5  4  0  0  0  0
  5  6  4  0  0  0  0
  6  7  4  0  0  0  0
  2  7  4  0  0  0  0
  7  8  1  0  0  0  0
  8  9  2  0  0  0  0
  9 10  2  0  0  0  0
  5 11  1  0  0  0  0
 11 12  2  0  0  0  0
 12 13  2  0  0  0  0
  1 14  1  0  0  0  0
  1 15  1  0  0  0  0
  1 16  1  0  0  0  0
  3 17  1  0  0  0  0
  4 18  1  0  0  0  0
  6 19  1  0  0  0  0
M  END
>  <InChIKey>
InChI=1S/C9H6N2O2/c1-7-2-3-8(10-5-12)4-9(7)11-6-13/h2-4H,1H3

>  <CASRN>
584-84-9

> <Outcome>
1

>  <Index>
1430

>  <StandardizerResult>
Dearomatize (ID: Dearomatize)
Clear Stereo (ID: ClearStereo)
Wedge Clean (ID: WedgeClean)
Mesomerize (ID: Mesomerize)
Tautomerize (ID: Tautomerize)
Aromatize (ID: Aromatize)
Add Explicit Hydrogens (ID: AddExplicitH)
Neutralize (ID: Neutralize)
Clean 2D (ID: Clean2D)

> <knn Distance>


> <CpId>
1430

$$$$
1432
  Mrv1532301301811342D          

 49 50  0  0  0  0            999 V2000
    1.4317   -0.7945    0.0000 C   0  0  0  0  0  0  0  0  0  0  0  0
    1.4317   -1.6195    0.0000 C   0  0  0  0  0  0  0  0  0  0  0  0
    0.6067   -1.6195    0.0000 C   0  0  0  0  0  0  0  0  0  0  0  0
    2.2567   -1.6195    0.0000 C   0  0  0  0  0  0  0  0  0  0  0  0
    1.4317   -2.4445    0.0000 C   0  0  0  0  0  0  0  0  0  0  0  0
    2.1461   -2.8570    0.0000 C   0  0  0  0  0  0  0  0  0  0  0  0
    2.1461   -3.6820    0.0000 C   0  0  0  0  0  0  0  0  0  0  0  0
    1.4317   -4.0945    0.0000 C   0  0  0  0  0  0  0  0  0  0  0  0
    1.4317   -4.9195    0.0000 C   0  0  0  0  0  0  0  0  0  0  0  0
    2.1461   -5.3320    0.0000 S   0  0  0  0  0  0  0  0  0  0  0  0
    2.1461   -6.1570    0.0000 C   0  0  0  0  0  0  0  0  0  0  0  0
    2.8606   -6.5695    0.0000 C   0  0  0  0  0  0  0  0  0  0  0  0
    2.8606   -7.3945    0.0000 N   0  0  0  0  0  0  0  0  0  0  0  0
    2.1461   -7.8070    0.0000 N   0  0  0  0  0  0  0  0  0  0  0  0
    1.4317   -7.3945    0.0000 C   0  0  0  0  0  0  0  0  0  0  0  0
    0.7172   -7.8070    0.0000 O   0  0  0  0  0  0  0  0  0  0  0  0
    1.4317   -6.5695    0.0000 C   0  0  0  0  0  0  0  0  0  0  0  0
    0.7172   -6.1570    0.0000 Cl  0  0  0  0  0  0  0  0  0  0  0  0
    2.1461   -8.6320    0.0000 C   0  0  0  0  0  0  0  0  0  0  0  0
    2.1461   -9.4570    0.0000 C   0  0  0  0  0  0  0  0  0  0  0  0
    1.3211   -8.6320    0.0000 C   0  0  0  0  0  0  0  0  0  0  0  0
    2.9711   -8.6320    0.0000 C   0  0  0  0  0  0  0  0  0  0  0  0
    0.7172   -3.6820    0.0000 C   0  0  0  0  0  0  0  0  0  0  0  0
    0.7172   -2.8570    0.0000 C   0  0  0  0  0  0  0  0  0  0  0  0
    2.2567   -0.7945    0.0000 H   0  0  0  0  0  0  0  0  0  0  0  0
    1.4317    0.0305    0.0000 H   0  0  0  0  0  0  0  0  0  0  0  0
    0.6067   -0.7945    0.0000 H   0  0  0  0  0  0  0  0  0  0  0  0
   -0.1555   -1.3038    0.0000 H   0  0  0  0  0  0  0  0  0  0  0  0
    0.0233   -2.2028    0.0000 H   0  0  0  0  0  0  0  0  0  0  0  0
    0.9224   -2.3817    0.0000 H   0  0  0  0  0  0  0  0  0  0  0  0
    1.9409   -2.3817    0.0000 H   0  0  0  0  0  0  0  0  0  0  0  0
    2.8400   -2.2028    0.0000 H   0  0  0  0  0  0  0  0  0  0  0  0
    3.0189   -1.3038    0.0000 H   0  0  0  0  0  0  0  0  0  0  0  0
    2.9036   -3.1839    0.0000 H   0  0  0  0  0  0  0  0  0  0  0  0
    2.5792   -4.3842    0.0000 H   0  0  0  0  0  0  0  0  0  0  0  0
    0.6081   -4.9674    0.0000 H   0  0  0  0  0  0  0  0  0  0  0  0
    0.9783   -5.6087    0.0000 H   0  0  0  0  0  0  0  0  0  0  0  0
    3.5751   -6.1570    0.0000 H   0  0  0  0  0  0  0  0  0  0  0  0
    1.3211   -9.4570    0.0000 H   0  0  0  0  0  0  0  0  0  0  0  0
    2.1461  -10.2820    0.0000 H   0  0  0  0  0  0  0  0  0  0  0  0
    2.9711   -9.4570    0.0000 H   0  0  0  0  0  0  0  0  0  0  0  0
    1.6368   -7.8698    0.0000 H   0  0  0  0  0  0  0  0  0  0  0  0
    0.7378   -8.0486    0.0000 H   0  0  0  0  0  0  0  0  0  0  0  0
    0.5589   -8.9477    0.0000 H   0  0  0  0  0  0  0  0  0  0  0  0
    3.7333   -8.9477    0.0000 H   0  0  0  0  0  0  0  0  0  0  0  0
    3.5545   -8.0486    0.0000 H   0  0  0  0  0  0  0  0  0  0  0  0
    2.6554   -7.8698    0.0000 H   0  0  0  0  0  0  0  0  0  0  0  0
    0.0027   -4.0945    0.0000 H   0  0  0  0  0  0  0  0  0  0  0  0
   -0.0403   -3.1839    0.0000 H   0  0  0  0  0  0  0  0  0  0  0  0
  1  2  1  0  0  0  0
  2  3  1  0  0  0  0
  2  4  1  0  0  0  0
  2  5  1  0  0  0  0
  5  6  4  0  0  0  0
  6  7  4  0  0  0  0
  7  8  4  0  0  0  0
  8  9  1  0  0  0  0
  9 10  1  0  0  0  0
 10 11  1  0  0  0  0
 11 12  1  0  0  0  0
 12 13  2  0  0  0  0
 13 14  1  0  0  0  0
 14 15  1  0  0  0  0
 15 16  2  0  0  0  0
 15 17  1  0  0  0  0
 11 17  2  0  0  0  0
 17 18  1  0  0  0  0
 14 19  1  0  0  0  0
 19 20  1  0  0  0  0
 19 21  1  0  0  0  0
 19 22  1  0  0  0  0
  8 23  4  0  0  0  0
 23 24  4  0  0  0  0
  5 24  4  0  0  0  0
  1 25  1  0  0  0  0
  1 26  1  0  0  0  0
  1 27  1  0  0  0  0
  3 28  1  0  0  0  0
  3 29  1  0  0  0  0
  3 30  1  0  0  0  0
  4 31  1  0  0  0  0
  4 32  1  0  0  0  0
  4 33  1  0  0  0  0
  6 34  1  0  0  0  0
  7 35  1  0  0  0  0
  9 36  1  0  0  0  0
  9 37  1  0  0  0  0
 12 38  1  0  0  0  0
 20 39  1  0  0  0  0
 20 40  1  0  0  0  0
 20 41  1  0  0  0  0
 21 42  1  0  0  0  0
 21 43  1  0  0  0  0
 21 44  1  0  0  0  0
 22 45  1  0  0  0  0
 22 46  1  0  0  0  0
 22 47  1  0  0  0  0
 23 48  1  0  0  0  0
 24 49  1  0  0  0  0
M  END
>  <InChIKey>
InChI=1S/C19H25ClN2OS/c1-18(2,3)14-9-7-13(8-10-14)12-24-15-11-21-22(19(4,5)6)17(23)16(15)20/h7-11H,12H2,1-6H3

>  <CASRN>
96489-71-3

> <Outcome>
1

>  <Index>
1432

>  <StandardizerResult>
Dearomatize (ID: Dearomatize)
Clear Stereo (ID: ClearStereo)
Wedge Clean (ID: WedgeClean)
Mesomerize (ID: Mesomerize)
Tautomerize (ID: Tautomerize)
Aromatize (ID: Aromatize)
Add Explicit Hydrogens (ID: AddExplicitH)
Neutralize (ID: Neutralize)
Clean 2D (ID: Clean2D)

> <knn Distance>


> <CpId>
1432

$$$$
1439
  Mrv1532301301811342D          

 67 70  0  0  0  0            999 V2000
    6.3105    1.2309    0.0000 C   0  0  0  0  0  0  0  0  0  0  0  0
    6.3105    2.0559    0.0000 C   0  0  0  0  0  0  0  0  0  0  0  0
    7.0250    2.4684    0.0000 C   0  0  0  0  0  0  0  0  0  0  0  0
    7.0250    3.2934    0.0000 C   0  0  0  0  0  0  0  0  0  0  0  0
    7.7394    3.7059    0.0000 N   0  0  0  0  0  0  0  0  0  0  0  0
    8.4539    3.2934    0.0000 C   0  0  0  0  0  0  0  0  0  0  0  0
    8.4539    2.4684    0.0000 C   0  0  0  0  0  0  0  0  0  0  0  0
    9.1684    2.0559    0.0000 C   0  0  0  0  0  0  0  0  0  0  0  0
    9.1684    1.2309    0.0000 C   0  0  0  0  0  0  0  0  0  0  0  0
    7.7394    4.5309    0.0000 C   0  0  0  0  0  0  0  0  0  0  0  0
    8.4539    4.9434    0.0000 C   0  0  0  0  0  0  0  0  0  0  0  0
    9.1684    4.5309    0.0000 O   0  0  0  0  0  0  0  0  0  0  0  0
    8.4539    5.7684    0.0000 C   0  0  0  0  0  0  0  0  0  0  0  0
    7.7394    6.1809    0.0000 C   0  0  0  0  0  0  0  0  0  0  0  0
    7.7394    7.0059    0.0000 C   0  0  0  0  0  0  0  0  0  0  0  0
    7.0250    7.4184    0.0000 Cl  0  0  0  0  0  0  0  0  0  0  0  0
    8.4539    7.4184    0.0000 C   0  0  0  0  0  0  0  0  0  0  0  0
    9.1684    7.0059    0.0000 C   0  0  0  0  0  0  0  0  0  0  0  0
    9.9530    7.2609    0.0000 C   0  0  0  0  0  0  0  0  0  0  0  0
   10.2079    8.0455    0.0000 C   0  0  0  0  0  0  0  0  0  0  0  0
   11.0149    8.2170    0.0000 C   0  0  0  0  0  0  0  0  0  0  0  0
   11.2698    9.0016    0.0000 C   0  0  0  0  0  0  0  0  0  0  0  0
   12.0768    9.1732    0.0000 C   0  0  0  0  0  0  0  0  0  0  0  0
   12.6289    8.5601    0.0000 C   0  0  0  0  0  0  0  0  0  0  0  0
   13.4358    8.7316    0.0000 Cl  0  0  0  0  0  0  0  0  0  0  0  0
   12.3739    7.7755    0.0000 C   0  0  0  0  0  0  0  0  0  0  0  0
   11.5669    7.6039    0.0000 C   0  0  0  0  0  0  0  0  0  0  0  0
   10.4379    6.5934    0.0000 C   0  0  0  0  0  0  0  0  0  0  0  0
   11.2584    6.5072    0.0000 C   0  0  0  0  0  0  0  0  0  0  0  0
   11.5940    5.7535    0.0000 C   0  0  0  0  0  0  0  0  0  0  0  0
   12.4144    5.6673    0.0000 Cl  0  0  0  0  0  0  0  0  0  0  0  0
   11.1090    5.0861    0.0000 C   0  0  0  0  0  0  0  0  0  0  0  0
   10.2886    5.1723    0.0000 C   0  0  0  0  0  0  0  0  0  0  0  0
    9.9530    5.9260    0.0000 C   0  0  0  0  0  0  0  0  0  0  0  0
    9.1684    6.1809    0.0000 C   0  0  0  0  0  0  0  0  0  0  0  0
    5.4855    1.2309    0.0000 H   0  0  0  0  0  0  0  0  0  0  0  0
    6.3105    0.4059    0.0000 H   0  0  0  0  0  0  0  0  0  0  0  0
    7.1355    1.2309    0.0000 H   0  0  0  0  0  0  0  0  0  0  0  0
    5.8571    2.7452    0.0000 H   0  0  0  0  0  0  0  0  0  0  0  0
    5.4869    2.1039    0.0000 H   0  0  0  0  0  0  0  0  0  0  0  0
    7.4783    1.7792    0.0000 H   0  0  0  0  0  0  0  0  0  0  0  0
    7.8486    2.4205    0.0000 H   0  0  0  0  0  0  0  0  0  0  0  0
    6.5716    3.9827    0.0000 H   0  0  0  0  0  0  0  0  0  0  0  0
    6.2014    3.3414    0.0000 H   0  0  0  0  0  0  0  0  0  0  0  0
    9.2775    3.3414    0.0000 H   0  0  0  0  0  0  0  0  0  0  0  0
    8.9072    3.9827    0.0000 H   0  0  0  0  0  0  0  0  0  0  0  0
    8.2720    1.6637    0.0000 H   0  0  0  0  0  0  0  0  0  0  0  0
    9.1684    2.8809    0.0000 H   0  0  0  0  0  0  0  0  0  0  0  0
    9.9436    1.7738    0.0000 H   0  0  0  0  0  0  0  0  0  0  0  0
    9.9436    2.3381    0.0000 H   0  0  0  0  0  0  0  0  0  0  0  0
    8.3670    1.4270    0.0000 H   0  0  0  0  0  0  0  0  0  0  0  0
    8.7874    0.4991    0.0000 H   0  0  0  0  0  0  0  0  0  0  0  0
    9.7886    0.6870    0.0000 H   0  0  0  0  0  0  0  0  0  0  0  0
    7.2861    5.2202    0.0000 H   0  0  0  0  0  0  0  0  0  0  0  0
    6.9158    4.5789    0.0000 H   0  0  0  0  0  0  0  0  0  0  0  0
    8.4539    4.1184    0.0000 H   0  0  0  0  0  0  0  0  0  0  0  0
    9.9562    4.7758    0.0000 H   0  0  0  0  0  0  0  0  0  0  0  0
    7.0250    5.7684    0.0000 H   0  0  0  0  0  0  0  0  0  0  0  0
    8.4539    8.2434    0.0000 H   0  0  0  0  0  0  0  0  0  0  0  0
    9.6559    8.6586    0.0000 H   0  0  0  0  0  0  0  0  0  0  0  0
   10.7178    9.6147    0.0000 H   0  0  0  0  0  0  0  0  0  0  0  0
   12.3318    9.9578    0.0000 H   0  0  0  0  0  0  0  0  0  0  0  0
   12.9259    7.1624    0.0000 H   0  0  0  0  0  0  0  0  0  0  0  0
   11.3120    6.8193    0.0000 H   0  0  0  0  0  0  0  0  0  0  0  0
   12.0770    6.6096    0.0000 H   0  0  0  0  0  0  0  0  0  0  0  0
   11.4446    4.3324    0.0000 H   0  0  0  0  0  0  0  0  0  0  0  0
    9.4716    5.2869    0.0000 H   0  0  0  0  0  0  0  0  0  0  0  0
  1  2  1  0  0  0  0
  2  3  1  0  0  0  0
  3  4  1  0  0  0  0
  4  5  1  0  0  0  0
  5  6  1  0  0  0  0
  6  7  1  0  0  0  0
  7  8  1  0  0  0  0
  8  9  1  0  0  0  0
  5 10  1  0  0  0  0
 10 11  1  0  0  0  0
 11 12  1  0  0  0  0
 11 13  1  0  0  0  0
 13 14  4  0  0  0  0
 14 15  4  0  0  0  0
 15 16  1  0  0  0  0
 15 17  4  0  0  0  0
 17 18  4  0  0  0  0
 18 19  1  0  0  0  0
 19 20  2  0  0  0  0
 20 21  1  4  0  0  0
 21 22  4  0  0  0  0
 22 23  4  0  0  0  0
 23 24  4  0  0  0  0
 24 25  1  0  0  0  0
 24 26  4  0  0  0  0
 26 27  4  0  0  0  0
 21 27  4  0  0  0  0
 19 28  1  0  0  0  0
 28 29  4  0  0  0  0
 29 30  4  0  0  0  0
 30 31  1  0  0  0  0
 30 32  4  0  0  0  0
 32 33  4  0  0  0  0
 33 34  4  0  0  0  0
 28 34  4  0  0  0  0
 34 35  1  0  0  0  0
 13 35  4  0  0  0  0
 18 35  4  0  0  0  0
  1 36  1  0  0  0  0
  1 37  1  0  0  0  0
  1 38  1  0  0  0  0
  2 39  1  0  0  0  0
  2 40  1  0  0  0  0
  3 41  1  0  0  0  0
  3 42  1  0  0  0  0
  4 43  1  0  0  0  0
  4 44  1  0  0  0  0
  6 45  1  0  0  0  0
  6 46  1  0  0  0  0
  7 47  1  0  0  0  0
  7 48  1  0  0  0  0
  8 49  1  0  0  0  0
  8 50  1  0  0  0  0
  9 51  1  0  0  0  0
  9 52  1  0  0  0  0
  9 53  1  0  0  0  0
 10 54  1  0  0  0  0
 10 55  1  0  0  0  0
 11 56  1  0  0  0  0
 12 57  1  0  0  0  0
 14 58  1  0  0  0  0
 17 59  1  0  0  0  0
 20 60  1  0  0  0  0
 22 61  1  0  0  0  0
 23 62  1  0  0  0  0
 26 63  1  0  0  0  0
 27 64  1  0  0  0  0
 29 65  1  0  0  0  0
 32 66  1  0  0  0  0
 33 67  1  0  0  0  0
M  END
>  <InChIKey>
InChI=1S/C30H32Cl3NO/c1-3-5-13-34(14-6-4-2)19-29(35)28-18-23(33)17-27-25(15-20-7-9-21(31)10-8-20)26-16-22(32)11-12-24(26)30(27)28/h7-12,15-18,29,35H,3-6,13-14,19H2,1-2H3

>  <CASRN>
82186-77-4

> <Outcome>
1

>  <Index>
1439

>  <StandardizerResult>
Dearomatize (ID: Dearomatize)
Clear Stereo (ID: ClearStereo)
Wedge Clean (ID: WedgeClean)
Mesomerize (ID: Mesomerize)
Tautomerize (ID: Tautomerize)
Aromatize (ID: Aromatize)
Add Explicit Hydrogens (ID: AddExplicitH)
Neutralize (ID: Neutralize)
Clean 2D (ID: Clean2D)

> <knn Distance>


> <CpId>
1439

$$$$
1441
  Mrv1532301301811342D          

 16 16  0  0  0  0            999 V2000
   -0.0000    2.4750    0.0000 O   0  0  0  0  0  0  0  0  0  0  0  0
    0.7145    2.0625    0.0000 N   0  0  0  0  0  0  0  0  0  0  0  0
    0.7145    1.2375    0.0000 C   0  0  0  0  0  0  0  0  0  0  0  0
    1.4289    0.8250    0.0000 C   0  0  0  0  0  0  0  0  0  0  0  0
    1.4289    0.0000    0.0000 C   0  0  0  0  0  0  0  0  0  0  0  0
    0.7145   -0.4125    0.0000 C   0  0  0  0  0  0  0  0  0  0  0  0
   -0.0000    0.0000    0.0000 C   0  0  0  0  0  0  0  0  0  0  0  0
   -0.0000    0.8250    0.0000 C   0  0  0  0  0  0  0  0  0  0  0  0
    0.7145   -1.2375    0.0000 N   0  0  0  0  0  0  0  0  0  0  0  0
    1.4289   -1.6500    0.0000 O   0  0  0  0  0  0  0  0  0  0  0  0
   -0.0000    3.3000    0.0000 H   0  0  0  0  0  0  0  0  0  0  0  0
    1.4289    2.4750    0.0000 H   0  0  0  0  0  0  0  0  0  0  0  0
    2.1434    1.2375    0.0000 H   0  0  0  0  0  0  0  0  0  0  0  0
    2.1434   -0.4125    0.0000 H   0  0  0  0  0  0  0  0  0  0  0  0
   -0.7145   -0.4125    0.0000 H   0  0  0  0  0  0  0  0  0  0  0  0
   -0.7145    1.2375    0.0000 H   0  0  0  0  0  0  0  0  0  0  0  0
  1  2  1  0  0  0  0
  2  3  1  0  0  0  0
  3  4  4  0  0  0  0
  4  5  4  0  0  0  0
  5  6  4  0  0  0  0
  6  7  4  0  0  0  0
  7  8  4  0  0  0  0
  3  8  4  0  0  0  0
  6  9  1  0  0  0  0
  9 10  2  0  0  0  0
  1 11  1  0  0  0  0
  2 12  1  0  0  0  0
  4 13  1  0  0  0  0
  5 14  1  0  0  0  0
  7 15  1  0  0  0  0
  8 16  1  0  0  0  0
M  END
>  <InChIKey>
InChI=1S/C6H6N2O2/c9-7-5-1-2-6(8-10)4-3-5/h1-4,7,9H

>  <CASRN>
105-11-3

> <Outcome>
1

>  <Index>
1441

>  <StandardizerResult>
Dearomatize (ID: Dearomatize)
Clear Stereo (ID: ClearStereo)
Wedge Clean (ID: WedgeClean)
Mesomerize (ID: Mesomerize)
Tautomerize (ID: Tautomerize)
Aromatize (ID: Aromatize)
Add Explicit Hydrogens (ID: AddExplicitH)
Neutralize (ID: Neutralize)
Clean 2D (ID: Clean2D)

> <knn Distance>


> <CpId>
1441

$$$$
1448
  Mrv1532301301811342D          

 61 66  0  0  0  0            999 V2000
    2.4475   -3.1150    0.0000 C   0  0  0  0  0  0  0  0  0  0  0  0
    2.4475   -3.9400    0.0000 C   0  0  0  0  0  0  0  0  0  0  0  0
    2.8600   -4.6545    0.0000 C   0  0  0  0  0  0  0  0  0  0  0  0
    2.0350   -4.6545    0.0000 O   0  0  0  0  0  0  0  0  0  0  0  0
    1.7330   -2.7025    0.0000 N   0  0  0  0  0  0  0  0  0  0  0  0
    1.7330   -1.8775    0.0000 C   0  0  0  0  0  0  0  0  0  0  0  0
    1.0186   -1.4650    0.0000 C   0  0  0  0  0  0  0  0  0  0  0  0
    0.1936   -1.4650    0.0000 C   0  0  0  0  0  0  0  0  0  0  0  0
    0.6061   -0.7505    0.0000 O   0  0  0  0  0  0  0  0  0  0  0  0
    1.0186   -3.1150    0.0000 C   0  0  0  0  0  0  0  0  0  0  0  0
    1.0186   -3.9400    0.0000 C   0  0  0  0  0  0  0  0  0  0  0  0
    0.3041   -4.3525    0.0000 C   0  0  0  0  0  0  0  0  0  0  0  0
   -0.4104   -3.9400    0.0000 C   0  0  0  0  0  0  0  0  0  0  0  0
   -1.1248   -4.3525    0.0000 C   0  0  0  0  0  0  0  0  0  0  0  0
   -1.8393   -3.9400    0.0000 C   0  0  0  0  0  0  0  0  0  0  0  0
   -2.5538   -4.3525    0.0000 C   0  0  0  0  0  0  0  0  0  0  0  0
   -3.2682   -3.9400    0.0000 C   0  0  0  0  0  0  0  0  0  0  0  0
   -3.2682   -3.1150    0.0000 C   0  0  0  0  0  0  0  0  0  0  0  0
   -2.5538   -2.7025    0.0000 C   0  0  0  0  0  0  0  0  0  0  0  0
   -1.8393   -3.1150    0.0000 C   0  0  0  0  0  0  0  0  0  0  0  0
   -3.9827   -2.7025    0.0000 N   0  0  0  0  0  0  0  0  0  0  0  0
   -4.6972   -3.1150    0.0000 C   0  0  0  0  0  0  0  0  0  0  0  0
   -5.4117   -2.7025    0.0000 C   0  0  0  0  0  0  0  0  0  0  0  0
   -6.2367   -2.7025    0.0000 C   0  0  0  0  0  0  0  0  0  0  0  0
   -5.8242   -1.9880    0.0000 O   0  0  0  0  0  0  0  0  0  0  0  0
   -3.9827   -1.8775    0.0000 C   0  0  0  0  0  0  0  0  0  0  0  0
   -4.6972   -1.4650    0.0000 C   0  0  0  0  0  0  0  0  0  0  0  0
   -5.5222   -1.4650    0.0000 C   0  0  0  0  0  0  0  0  0  0  0  0
   -5.1097   -0.7505    0.0000 O   0  0  0  0  0  0  0  0  0  0  0  0
   -0.4104   -3.1150    0.0000 C   0  0  0  0  0  0  0  0  0  0  0  0
    0.3041   -2.7025    0.0000 C   0  0  0  0  0  0  0  0  0  0  0  0
    3.2711   -3.0670    0.0000 H   0  0  0  0  0  0  0  0  0  0  0  0
    2.9009   -2.4257    0.0000 H   0  0  0  0  0  0  0  0  0  0  0  0
    1.6506   -3.7265    0.0000 H   0  0  0  0  0  0  0  0  0  0  0  0
    3.2303   -5.3917    0.0000 H   0  0  0  0  0  0  0  0  0  0  0  0
    3.6836   -4.6065    0.0000 H   0  0  0  0  0  0  0  0  0  0  0  0
    2.5567   -1.8295    0.0000 H   0  0  0  0  0  0  0  0  0  0  0  0
    2.1864   -1.1882    0.0000 H   0  0  0  0  0  0  0  0  0  0  0  0
    1.6019   -0.8816    0.0000 H   0  0  0  0  0  0  0  0  0  0  0  0
   -0.6300   -1.4170    0.0000 H   0  0  0  0  0  0  0  0  0  0  0  0
   -0.1767   -2.2022    0.0000 H   0  0  0  0  0  0  0  0  0  0  0  0
    1.3585   -4.6917    0.0000 H   0  0  0  0  0  0  0  0  0  0  0  0
    0.3041   -5.1775    0.0000 H   0  0  0  0  0  0  0  0  0  0  0  0
   -1.4951   -5.0897    0.0000 H   0  0  0  0  0  0  0  0  0  0  0  0
   -0.7546   -5.0897    0.0000 H   0  0  0  0  0  0  0  0  0  0  0  0
   -2.5538   -5.1775    0.0000 H   0  0  0  0  0  0  0  0  0  0  0  0
   -3.9827   -4.3525    0.0000 H   0  0  0  0  0  0  0  0  0  0  0  0
   -2.5538   -1.8775    0.0000 H   0  0  0  0  0  0  0  0  0  0  0  0
   -1.1248   -2.7025    0.0000 H   0  0  0  0  0  0  0  0  0  0  0  0
   -5.0675   -3.8522    0.0000 H   0  0  0  0  0  0  0  0  0  0  0  0
   -4.3269   -3.8522    0.0000 H   0  0  0  0  0  0  0  0  0  0  0  0
   -4.8283   -2.1191    0.0000 H   0  0  0  0  0  0  0  0  0  0  0  0
   -7.0603   -2.6545    0.0000 H   0  0  0  0  0  0  0  0  0  0  0  0
   -6.6069   -3.4397    0.0000 H   0  0  0  0  0  0  0  0  0  0  0  0
   -3.1591   -1.8295    0.0000 H   0  0  0  0  0  0  0  0  0  0  0  0
   -3.5294   -1.1882    0.0000 H   0  0  0  0  0  0  0  0  0  0  0  0
   -4.1138   -0.8816    0.0000 H   0  0  0  0  0  0  0  0  0  0  0  0
   -6.0525   -0.8330    0.0000 H   0  0  0  0  0  0  0  0  0  0  0  0
   -6.3347   -1.3217    0.0000 H   0  0  0  0  0  0  0  0  0  0  0  0
   -1.1248   -3.5275    0.0000 H   0  0  0  0  0  0  0  0  0  0  0  0
    0.8128   -2.0530    0.0000 H   0  0  0  0  0  0  0  0  0  0  0  0
  1  2  1  0  0  0  0
  2  3  1  0  0  0  0
  3  4  1  0  0  0  0
  2  4  1  0  0  0  0
  1  5  1  0  0  0  0
  5  6  1  0  0  0  0
  6  7  1  0  0  0  0
  7  8  1  0  0  0  0
  8  9  1  0  0  0  0
  7  9  1  0  0  0  0
  5 10  1  0  0  0  0
 10 11  4  0  0  0  0
 11 12  4  0  0  0  0
 12 13  4  0  0  0  0
 13 14  1  0  0  0  0
 14 15  1  0  0  0  0
 15 16  4  0  0  0  0
 16 17  4  0  0  0  0
 17 18  4  0  0  0  0
 18 19  4  0  0  0  0
 19 20  4  0  0  0  0
 15 20  4  0  0  0  0
 18 21  1  0  0  0  0
 21 22  1  0  0  0  0
 22 23  1  0  0  0  0
 23 24  1  0  0  0  0
 24 25  1  0  0  0  0
 23 25  1  0  0  0  0
 21 26  1  0  0  0  0
 26 27  1  0  0  0  0
 27 28  1  0  0  0  0
 28 29  1  0  0  0  0
 27 29  1  0  0  0  0
 13 30  4  0  0  0  0
 30 31  4  0  0  0  0
 10 31  4  0  0  0  0
  1 32  1  0  0  0  0
  1 33  1  0  0  0  0
  2 34  1  0  0  0  0
  3 35  1  0  0  0  0
  3 36  1  0  0  0  0
  6 37  1  0  0  0  0
  6 38  1  0  0  0  0
  7 39  1  0  0  0  0
  8 40  1  0  0  0  0
  8 41  1  0  0  0  0
 11 42  1  0  0  0  0
 12 43  1  0  0  0  0
 14 44  1  0  0  0  0
 14 45  1  0  0  0  0
 16 46  1  0  0  0  0
 17 47  1  0  0  0  0
 19 48  1  0  0  0  0
 20 49  1  0  0  0  0
 22 50  1  0  0  0  0
 22 51  1  0  0  0  0
 23 52  1  0  0  0  0
 24 53  1  0  0  0  0
 24 54  1  0  0  0  0
 26 55  1  0  0  0  0
 26 56  1  0  0  0  0
 27 57  1  0  0  0  0
 28 58  1  0  0  0  0
 28 59  1  0  0  0  0
 30 60  1  0  0  0  0
 31 61  1  0  0  0  0
M  END
>  <InChIKey>
InChI=1S/C25H30N2O4/c1-5-20(26(10-22-14-28-22)11-23-15-29-23)6-2-18(1)9-19-3-7-21(8-4-19)27(12-24-16-30-24)13-25-17-31-25/h1-8,22-25H,9-17H2

>  <UN GHS>
1

>  <CASRN>
28768-32-3

> <Outcome>
1

>  <Index>
1448

>  <StandardizerResult>
Dearomatize (ID: Dearomatize)
Clear Stereo (ID: ClearStereo)
Wedge Clean (ID: WedgeClean)
Mesomerize (ID: Mesomerize)
Tautomerize (ID: Tautomerize)
Aromatize (ID: Aromatize)
Add Explicit Hydrogens (ID: AddExplicitH)
Neutralize (ID: Neutralize)
Clean 2D (ID: Clean2D)

> <knn Distance>


> <CpId>
1448

$$$$
1449
  Mrv1532301301811342D          

 19 18  0  0  0  0            999 V2000
    1.7605    1.8405    0.0000 C   0  0  0  0  0  0  0  0  0  0  0  0
    2.4750    1.4280    0.0000 C   0  0  0  0  0  0  0  0  0  0  0  0
    2.4750    0.6030    0.0000 C   0  0  0  0  0  0  0  0  0  0  0  0
    3.1895    1.8405    0.0000 C   0  0  0  0  0  0  0  0  0  0  0  0
    3.1895    2.6655    0.0000 O   0  0  0  0  0  0  0  0  0  0  0  0
    3.9039    1.4280    0.0000 O   0  0  0  0  0  0  0  0  0  0  0  0
    4.6184    1.8405    0.0000 C   0  0  0  0  0  0  0  0  0  0  0  0
    5.3329    1.4280    0.0000 C   0  0  0  0  0  0  0  0  0  0  0  0
    6.0474    1.8405    0.0000 C   0  0  0  0  0  0  0  0  0  0  0  0
    2.1730    2.5549    0.0000 H   0  0  0  0  0  0  0  0  0  0  0  0
    1.0461    2.2530    0.0000 H   0  0  0  0  0  0  0  0  0  0  0  0
    1.3480    1.1260    0.0000 H   0  0  0  0  0  0  0  0  0  0  0  0
    1.7605    0.1905    0.0000 H   0  0  0  0  0  0  0  0  0  0  0  0
    3.1895    0.1905    0.0000 H   0  0  0  0  0  0  0  0  0  0  0  0
    4.9887    2.5777    0.0000 H   0  0  0  0  0  0  0  0  0  0  0  0
    4.2482    2.5777    0.0000 H   0  0  0  0  0  0  0  0  0  0  0  0
    5.3329    0.6030    0.0000 H   0  0  0  0  0  0  0  0  0  0  0  0
    6.7618    1.4280    0.0000 H   0  0  0  0  0  0  0  0  0  0  0  0
    6.0474    2.6655    0.0000 H   0  0  0  0  0  0  0  0  0  0  0  0
  1  2  1  0  0  0  0
  2  3  2  0  0  0  0
  2  4  1  0  0  0  0
  4  5  2  0  0  0  0
  4  6  1  0  0  0  0
  6  7  1  0  0  0  0
  7  8  1  0  0  0  0
  8  9  2  0  0  0  0
  1 10  1  0  0  0  0
  1 11  1  0  0  0  0
  1 12  1  0  0  0  0
  3 13  1  0  0  0  0
  3 14  1  0  0  0  0
  7 15  1  0  0  0  0
  7 16  1  0  0  0  0
  8 17  1  0  0  0  0
  9 18  1  0  0  0  0
  9 19  1  0  0  0  0
M  END
>  <InChIKey>
InChI=1S/C7H10O2/c1-4-5-9-7(8)6(2)3/h4H,1-2,5H2,3H3

>  <CASRN>
96-05-9

> <Outcome>
1

>  <Index>
1449

>  <StandardizerResult>
Clear Stereo (ID: ClearStereo)
Wedge Clean (ID: WedgeClean)
Mesomerize (ID: Mesomerize)
Tautomerize (ID: Tautomerize)
Add Explicit Hydrogens (ID: AddExplicitH)
Neutralize (ID: Neutralize)
Clean 2D (ID: Clean2D)

> <knn Distance>


> <CpId>
1449

$$$$
1452
  Mrv1532301301811342D          

 29 28  0  0  0  0            999 V2000
    2.2836    2.1428    0.0000 C   0  0  0  0  0  0  0  0  0  0  0  0
    2.9980    2.5553    0.0000 C   0  0  0  0  0  0  0  0  0  0  0  0
    3.7125    2.1428    0.0000 C   0  0  0  0  0  0  0  0  0  0  0  0
    4.4270    2.5553    0.0000 C   0  0  0  0  0  0  0  0  0  0  0  0
    5.1414    2.1428    0.0000 C   0  0  0  0  0  0  0  0  0  0  0  0
    5.8559    2.5553    0.0000 C   0  0  0  0  0  0  0  0  0  0  0  0
    6.5704    2.1428    0.0000 C   0  0  0  0  0  0  0  0  0  0  0  0
    7.2849    2.5553    0.0000 C   0  0  0  0  0  0  0  0  0  0  0  0
    7.9993    2.1428    0.0000 C   0  0  0  0  0  0  0  0  0  0  0  0
    8.7138    2.5553    0.0000 O   0  0  0  0  0  0  0  0  0  0  0  0
    7.9993    1.3178    0.0000 O   0  0  0  0  0  0  0  0  0  0  0  0
    1.8711    2.8573    0.0000 H   0  0  0  0  0  0  0  0  0  0  0  0
    1.5691    1.7303    0.0000 H   0  0  0  0  0  0  0  0  0  0  0  0
    2.6961    1.4283    0.0000 H   0  0  0  0  0  0  0  0  0  0  0  0
    3.3683    3.2925    0.0000 H   0  0  0  0  0  0  0  0  0  0  0  0
    2.6278    3.2925    0.0000 H   0  0  0  0  0  0  0  0  0  0  0  0
    3.3422    1.4055    0.0000 H   0  0  0  0  0  0  0  0  0  0  0  0
    4.0828    1.4055    0.0000 H   0  0  0  0  0  0  0  0  0  0  0  0
    4.7972    3.2925    0.0000 H   0  0  0  0  0  0  0  0  0  0  0  0
    4.0567    3.2925    0.0000 H   0  0  0  0  0  0  0  0  0  0  0  0
    4.7712    1.4055    0.0000 H   0  0  0  0  0  0  0  0  0  0  0  0
    5.5117    1.4055    0.0000 H   0  0  0  0  0  0  0  0  0  0  0  0
    6.2262    3.2925    0.0000 H   0  0  0  0  0  0  0  0  0  0  0  0
    5.4857    3.2925    0.0000 H   0  0  0  0  0  0  0  0  0  0  0  0
    6.2001    1.4055    0.0000 H   0  0  0  0  0  0  0  0  0  0  0  0
    6.9406    1.4055    0.0000 H   0  0  0  0  0  0  0  0  0  0  0  0
    7.6551    3.2925    0.0000 H   0  0  0  0  0  0  0  0  0  0  0  0
    6.9146    3.2925    0.0000 H   0  0  0  0  0  0  0  0  0  0  0  0
    9.4283    2.1428    0.0000 H   0  0  0  0  0  0  0  0  0  0  0  0
  1  2  1  0  0  0  0
  2  3  1  0  0  0  0
  3  4  1  0  0  0  0
  4  5  1  0  0  0  0
  5  6  1  0  0  0  0
  6  7  1  0  0  0  0
  7  8  1  0  0  0  0
  8  9  1  0  0  0  0
  9 10  1  0  0  0  0
  9 11  2  0  0  0  0
  1 12  1  0  0  0  0
  1 13  1  0  0  0  0
  1 14  1  0  0  0  0
  2 15  1  0  0  0  0
  2 16  1  0  0  0  0
  3 17  1  0  0  0  0
  3 18  1  0  0  0  0
  4 19  1  0  0  0  0
  4 20  1  0  0  0  0
  5 21  1  0  0  0  0
  5 22  1  0  0  0  0
  6 23  1  0  0  0  0
  6 24  1  0  0  0  0
  7 25  1  0  0  0  0
  7 26  1  0  0  0  0
  8 27  1  0  0  0  0
  8 28  1  0  0  0  0
 10 29  1  0  0  0  0
M  END
>  <InChIKey>
InChI=1S/C9H18O2/c1-2-3-4-5-6-7-8-9(10)11/h2-8H2,1H3,(H,10,11)

>  <CASRN>
112-05-0

> <Outcome>
1

>  <Index>
1452

>  <StandardizerResult>
Clear Stereo (ID: ClearStereo)
Wedge Clean (ID: WedgeClean)
Mesomerize (ID: Mesomerize)
Tautomerize (ID: Tautomerize)
Add Explicit Hydrogens (ID: AddExplicitH)
Neutralize (ID: Neutralize)
Clean 2D (ID: Clean2D)

> <knn Distance>


> <CpId>
1452

$$$$
1453
  Mrv1532301301811342D          

 27 28  0  0  0  0            999 V2000
    1.4289   -2.4750    0.0000 O   0  0  0  0  0  0  0  0  0  0  0  0
    1.4289   -1.6500    0.0000 C   0  0  0  0  0  0  0  0  0  0  0  0
    0.7145   -1.2375    0.0000 C   0  0  0  0  0  0  0  0  0  0  0  0
    0.7145   -0.4125    0.0000 C   0  0  0  0  0  0  0  0  0  0  0  0
    1.4289   -0.0000    0.0000 C   0  0  0  0  0  0  0  0  0  0  0  0
    2.1434   -0.4125    0.0000 C   0  0  0  0  0  0  0  0  0  0  0  0
    2.8579   -0.0000    0.0000 C   0  0  0  0  0  0  0  0  0  0  0  0
    3.5724   -0.4125    0.0000 C   0  0  0  0  0  0  0  0  0  0  0  0
    3.5724   -1.2375    0.0000 C   0  0  0  0  0  0  0  0  0  0  0  0
    2.8579   -1.6500    0.0000 C   0  0  0  0  0  0  0  0  0  0  0  0
    2.1434   -1.2375    0.0000 C   0  0  0  0  0  0  0  0  0  0  0  0
    4.2868   -1.6500    0.0000 S   0  0  0  0  0  0  0  0  0  0  0  0
    5.0013   -2.0625    0.0000 O   0  0  0  0  0  0  0  0  0  0  0  0
    4.6993   -0.9355    0.0000 O   0  0  0  0  0  0  0  0  0  0  0  0
    3.8743   -2.3645    0.0000 O   0  0  0  0  0  0  0  0  0  0  0  0
    1.4289    0.8250    0.0000 N   0  0  0  0  0  0  0  0  0  0  0  0
    0.7145    1.2375    0.0000 O   0  0  0  0  0  0  0  0  0  0  0  0
    2.1434    1.2375    0.0000 O   0  0  0  0  0  0  0  0  0  0  0  0
   -0.0000   -1.6500    0.0000 N   0  0  0  0  0  0  0  0  0  0  0  0
   -0.7145   -1.2375    0.0000 O   0  0  0  0  0  0  0  0  0  0  0  0
   -0.0000   -2.4750    0.0000 O   0  0  0  0  0  0  0  0  0  0  0  0
    0.7145   -2.8875    0.0000 H   0  0  0  0  0  0  0  0  0  0  0  0
   -0.0000   -0.0000    0.0000 H   0  0  0  0  0  0  0  0  0  0  0  0
    2.8579    0.8250    0.0000 H   0  0  0  0  0  0  0  0  0  0  0  0
    4.2868   -0.0000    0.0000 H   0  0  0  0  0  0  0  0  0  0  0  0
    2.8579   -2.4750    0.0000 H   0  0  0  0  0  0  0  0  0  0  0  0
    5.0013   -2.8875    0.0000 H   0  0  0  0  0  0  0  0  0  0  0  0
  1  2  1  0  0  0  0
  2  3  4  0  0  0  0
  3  4  4  0  0  0  0
  4  5  4  0  0  0  0
  5  6  4  0  0  0  0
  6  7  4  0  0  0  0
  7  8  4  0  0  0  0
  8  9  4  0  0  0  0
  9 10  4  0  0  0  0
 10 11  4  0  0  0  0
  2 11  4  0  0  0  0
  6 11  4  0  0  0  0
  9 12  1  0  0  0  0
 12 13  1  0  0  0  0
 12 14  2  0  0  0  0
 12 15  2  0  0  0  0
  5 16  1  0  0  0  0
 16 17  2  0  0  0  0
 16 18  2  0  0  0  0
  3 19  1  0  0  0  0
 19 20  2  0  0  0  0
 19 21  2  0  0  0  0
  1 22  1  0  0  0  0
  4 23  1  0  0  0  0
  7 24  1  0  0  0  0
  8 25  1  0  0  0  0
 10 26  1  0  0  0  0
 13 27  1  0  0  0  0
M  END
>  <InChIKey>
InChI=1S/C10H6N2O8S/c13-10-7-3-5(21(18,19)20)1-2-6(7)8(11(14)15)4-9(10)12(16)17/h1-4,13H,(H,18,19,20)

>  <CASRN>
846-70-8

> <Outcome>
1

>  <Index>
1453

>  <StandardizerResult>
Dearomatize (ID: Dearomatize)
Clear Stereo (ID: ClearStereo)
Wedge Clean (ID: WedgeClean)
Mesomerize (ID: Mesomerize)
Tautomerize (ID: Tautomerize)
Aromatize (ID: Aromatize)
Add Explicit Hydrogens (ID: AddExplicitH)
Neutralize (ID: Neutralize)
Clean 2D (ID: Clean2D)

> <knn Distance>


> <CpId>
1453

$$$$
1456
  Mrv1532301301811342D          

 17 17  0  0  0  0            999 V2000
    0.7145    2.0625    0.0000 O   0  0  0  0  0  0  0  0  0  0  0  0
    0.7145    1.2375    0.0000 C   0  0  0  0  0  0  0  0  0  0  0  0
    1.4289    0.8250    0.0000 C   0  0  0  0  0  0  0  0  0  0  0  0
    1.4289   -0.0000    0.0000 C   0  0  0  0  0  0  0  0  0  0  0  0
    0.7145   -0.4125    0.0000 C   0  0  0  0  0  0  0  0  0  0  0  0
    0.0000    0.0000    0.0000 C   0  0  0  0  0  0  0  0  0  0  0  0
    0.0000    0.8250    0.0000 C   0  0  0  0  0  0  0  0  0  0  0  0
    0.7145   -1.2375    0.0000 S   0  0  0  0  0  0  0  0  0  0  0  0
    0.7145   -2.0625    0.0000 O   0  0  0  0  0  0  0  0  0  0  0  0
   -0.1105   -1.2375    0.0000 O   0  0  0  0  0  0  0  0  0  0  0  0
    1.5395   -1.2375    0.0000 O   0  0  0  0  0  0  0  0  0  0  0  0
    1.4289    2.4750    0.0000 H   0  0  0  0  0  0  0  0  0  0  0  0
    2.1434    1.2375    0.0000 H   0  0  0  0  0  0  0  0  0  0  0  0
    2.1434   -0.4125    0.0000 H   0  0  0  0  0  0  0  0  0  0  0  0
   -0.7145   -0.4125    0.0000 H   0  0  0  0  0  0  0  0  0  0  0  0
   -0.7145    1.2375    0.0000 H   0  0  0  0  0  0  0  0  0  0  0  0
    0.0000   -2.4750    0.0000 H   0  0  0  0  0  0  0  0  0  0  0  0
  1  2  1  0  0  0  0
  2  3  4  0  0  0  0
  3  4  4  0  0  0  0
  4  5  4  0  0  0  0
  5  6  4  0  0  0  0
  6  7  4  0  0  0  0
  2  7  4  0  0  0  0
  5  8  1  0  0  0  0
  8  9  1  0  0  0  0
  8 10  2  0  0  0  0
  8 11  2  0  0  0  0
  1 12  1  0  0  0  0
  3 13  1  0  0  0  0
  4 14  1  0  0  0  0
  6 15  1  0  0  0  0
  7 16  1  0  0  0  0
  9 17  1  0  0  0  0
M  END
>  <InChIKey>
InChI=1S/C6H6O4S/c7-5-1-3-6(4-2-5)11(8,9)10/h1-4,7H,(H,8,9,10)

>  <CASRN>
98-67-9

> <Outcome>
1

>  <Index>
1456

>  <StandardizerResult>
Dearomatize (ID: Dearomatize)
Clear Stereo (ID: ClearStereo)
Wedge Clean (ID: WedgeClean)
Mesomerize (ID: Mesomerize)
Tautomerize (ID: Tautomerize)
Aromatize (ID: Aromatize)
Add Explicit Hydrogens (ID: AddExplicitH)
Neutralize (ID: Neutralize)
Clean 2D (ID: Clean2D)

> <knn Distance>


> <CpId>
1456

$$$$
1462
  Mrv1532301301811342D          

 24 24  0  0  0  0            999 V2000
    1.4289    3.3000    0.0000 C   0  0  0  0  0  0  0  0  0  0  0  0
    0.7145    2.8875    0.0000 N   0  0  0  0  0  0  0  0  0  0  0  0
   -0.0000    3.3000    0.0000 N   0  0  0  0  0  0  0  0  0  0  0  0
   -0.0000    4.1250    0.0000 O   0  0  0  0  0  0  0  0  0  0  0  0
    0.7145    2.0625    0.0000 S   0  0  0  0  0  0  0  0  0  0  0  0
   -0.1105    2.0625    0.0000 O   0  0  0  0  0  0  0  0  0  0  0  0
    1.5395    2.0625    0.0000 O   0  0  0  0  0  0  0  0  0  0  0  0
    0.7145    1.2375    0.0000 C   0  0  0  0  0  0  0  0  0  0  0  0
    1.4289    0.8250    0.0000 C   0  0  0  0  0  0  0  0  0  0  0  0
    1.4289    0.0000    0.0000 C   0  0  0  0  0  0  0  0  0  0  0  0
    0.7145   -0.4125    0.0000 C   0  0  0  0  0  0  0  0  0  0  0  0
    0.7145   -1.2375    0.0000 C   0  0  0  0  0  0  0  0  0  0  0  0
   -0.0000    0.0000    0.0000 C   0  0  0  0  0  0  0  0  0  0  0  0
   -0.0000    0.8250    0.0000 C   0  0  0  0  0  0  0  0  0  0  0  0
    1.8414    2.5855    0.0000 H   0  0  0  0  0  0  0  0  0  0  0  0
    2.1434    3.7125    0.0000 H   0  0  0  0  0  0  0  0  0  0  0  0
    1.0164    4.0145    0.0000 H   0  0  0  0  0  0  0  0  0  0  0  0
    2.1434    1.2375    0.0000 H   0  0  0  0  0  0  0  0  0  0  0  0
    2.1434   -0.4125    0.0000 H   0  0  0  0  0  0  0  0  0  0  0  0
   -0.1105   -1.2375    0.0000 H   0  0  0  0  0  0  0  0  0  0  0  0
    0.7145   -2.0625    0.0000 H   0  0  0  0  0  0  0  0  0  0  0  0
    1.5395   -1.2375    0.0000 H   0  0  0  0  0  0  0  0  0  0  0  0
   -0.7145   -0.4125    0.0000 H   0  0  0  0  0  0  0  0  0  0  0  0
   -0.7145    1.2375    0.0000 H   0  0  0  0  0  0  0  0  0  0  0  0
  1  2  1  0  0  0  0
  2  3  1  0  0  0  0
  3  4  2  0  0  0  0
  2  5  1  0  0  0  0
  5  6  2  0  0  0  0
  5  7  2  0  0  0  0
  5  8  1  0  0  0  0
  8  9  4  0  0  0  0
  9 10  4  0  0  0  0
 10 11  4  0  0  0  0
 11 12  1  0  0  0  0
 11 13  4  0  0  0  0
 13 14  4  0  0  0  0
  8 14  4  0  0  0  0
  1 15  1  0  0  0  0
  1 16  1  0  0  0  0
  1 17  1  0  0  0  0
  9 18  1  0  0  0  0
 10 19  1  0  0  0  0
 12 20  1  0  0  0  0
 12 21  1  0  0  0  0
 12 22  1  0  0  0  0
 13 23  1  0  0  0  0
 14 24  1  0  0  0  0
M  END
>  <InChIKey>
InChI=1S/C8H10N2O3S/c1-7-3-5-8(6-4-7)14(12,13)10(2)9-11/h3-6H,1-2H3

>  <CASRN>
80-11-5

> <Outcome>
1

>  <Index>
1462

>  <StandardizerResult>
Dearomatize (ID: Dearomatize)
Clear Stereo (ID: ClearStereo)
Wedge Clean (ID: WedgeClean)
Mesomerize (ID: Mesomerize)
Tautomerize (ID: Tautomerize)
Aromatize (ID: Aromatize)
Add Explicit Hydrogens (ID: AddExplicitH)
Neutralize (ID: Neutralize)
Clean 2D (ID: Clean2D)

> <knn Distance>


> <CpId>
1462

$$$$
1463
  Mrv1532301301811342D          

 13 12  0  0  0  0            999 V2000
    0.8050    1.4771    0.0000 C   0  0  0  0  0  0  0  0  0  0  0  0
    1.2175    0.7626    0.0000 C   0  0  0  0  0  0  0  0  0  0  0  0
    2.0425    0.7626    0.0000 C   0  0  0  0  0  0  0  0  0  0  0  0
    0.8050    0.0482    0.0000 N   0  0  0  0  0  0  0  0  0  0  0  0
    1.2175   -0.6663    0.0000 O   0  0  0  0  0  0  0  0  0  0  0  0
   -0.0200    0.0482    0.0000 O   0  0  0  0  0  0  0  0  0  0  0  0
    1.5195    1.8896    0.0000 H   0  0  0  0  0  0  0  0  0  0  0  0
    0.3925    2.1916    0.0000 H   0  0  0  0  0  0  0  0  0  0  0  0
    0.0906    1.0646    0.0000 H   0  0  0  0  0  0  0  0  0  0  0  0
    1.6300    1.4771    0.0000 H   0  0  0  0  0  0  0  0  0  0  0  0
    1.8290   -0.0343    0.0000 H   0  0  0  0  0  0  0  0  0  0  0  0
    2.7570    0.3501    0.0000 H   0  0  0  0  0  0  0  0  0  0  0  0
    2.6259    1.3460    0.0000 H   0  0  0  0  0  0  0  0  0  0  0  0
  1  2  1  0  0  0  0
  2  3  1  0  0  0  0
  2  4  1  0  0  0  0
  4  5  2  0  0  0  0
  4  6  2  0  0  0  0
  1  7  1  0  0  0  0
  1  8  1  0  0  0  0
  1  9  1  0  0  0  0
  2 10  1  0  0  0  0
  3 11  1  0  0  0  0
  3 12  1  0  0  0  0
  3 13  1  0  0  0  0
M  END
>  <InChIKey>
InChI=1S/C3H7NO2/c1-3(2)4(5)6/h3H,1-2H3

>  <CASRN>
79-46-9

> <Outcome>
1

>  <Index>
1463

>  <StandardizerResult>
Clear Stereo (ID: ClearStereo)
Wedge Clean (ID: WedgeClean)
Mesomerize (ID: Mesomerize)
Tautomerize (ID: Tautomerize)
Add Explicit Hydrogens (ID: AddExplicitH)
Neutralize (ID: Neutralize)
Clean 2D (ID: Clean2D)

> <knn Distance>


> <CpId>
1463

$$$$
1464
  Mrv1532301301811342D          

 27 28  0  0  0  0            999 V2000
    2.8719   -0.0432    0.0000 O   0  0  0  0  0  0  0  0  0  0  0  0
    2.1574   -0.4557    0.0000 C   0  0  0  0  0  0  0  0  0  0  0  0
    1.4430   -0.0432    0.0000 O   0  0  0  0  0  0  0  0  0  0  0  0
    2.1574   -1.2807    0.0000 C   0  0  0  0  0  0  0  0  0  0  0  0
    1.4430   -1.6932    0.0000 C   0  0  0  0  0  0  0  0  0  0  0  0
    1.4430   -2.5182    0.0000 C   0  0  0  0  0  0  0  0  0  0  0  0
    2.1574   -2.9307    0.0000 C   0  0  0  0  0  0  0  0  0  0  0  0
    2.8719   -2.5182    0.0000 C   0  0  0  0  0  0  0  0  0  0  0  0
    2.8719   -1.6932    0.0000 C   0  0  0  0  0  0  0  0  0  0  0  0
    3.5864   -1.2807    0.0000 C   0  0  0  0  0  0  0  0  0  0  0  0
    3.5864   -0.4557    0.0000 O   0  0  0  0  0  0  0  0  0  0  0  0
    4.3009   -1.6932    0.0000 C   0  0  0  0  0  0  0  0  0  0  0  0
    5.0153   -1.2807    0.0000 C   0  0  0  0  0  0  0  0  0  0  0  0
    5.7298   -1.6932    0.0000 C   0  0  0  0  0  0  0  0  0  0  0  0
    5.7298   -2.5182    0.0000 C   0  0  0  0  0  0  0  0  0  0  0  0
    5.0153   -2.9307    0.0000 C   0  0  0  0  0  0  0  0  0  0  0  0
    4.3009   -2.5182    0.0000 C   0  0  0  0  0  0  0  0  0  0  0  0
    2.8719    0.7818    0.0000 H   0  0  0  0  0  0  0  0  0  0  0  0
    0.7285   -1.2807    0.0000 H   0  0  0  0  0  0  0  0  0  0  0  0
    0.7285   -2.9307    0.0000 H   0  0  0  0  0  0  0  0  0  0  0  0
    2.1574   -3.7557    0.0000 H   0  0  0  0  0  0  0  0  0  0  0  0
    3.5864   -2.9307    0.0000 H   0  0  0  0  0  0  0  0  0  0  0  0
    5.0153   -0.4557    0.0000 H   0  0  0  0  0  0  0  0  0  0  0  0
    6.4443   -1.2807    0.0000 H   0  0  0  0  0  0  0  0  0  0  0  0
    6.4443   -2.9307    0.0000 H   0  0  0  0  0  0  0  0  0  0  0  0
    5.0153   -3.7557    0.0000 H   0  0  0  0  0  0  0  0  0  0  0  0
    3.5864   -2.1057    0.0000 H   0  0  0  0  0  0  0  0  0  0  0  0
  1  2  1  0  0  0  0
  2  3  2  0  0  0  0
  2  4  1  0  0  0  0
  4  5  4  0  0  0  0
  5  6  4  0  0  0  0
  6  7  4  0  0  0  0
  7  8  4  0  0  0  0
  8  9  4  0  0  0  0
  4  9  4  0  0  0  0
  9 10  1  0  0  0  0
 10 11  2  0  0  0  0
 10 12  1  0  0  0  0
 12 13  4  0  0  0  0
 13 14  4  0  0  0  0
 14 15  4  0  0  0  0
 15 16  4  0  0  0  0
 16 17  4  0  0  0  0
 12 17  4  0  0  0  0
  1 18  1  0  0  0  0
  5 19  1  0  0  0  0
  6 20  1  0  0  0  0
  7 21  1  0  0  0  0
  8 22  1  0  0  0  0
 13 23  1  0  0  0  0
 14 24  1  0  0  0  0
 15 25  1  0  0  0  0
 16 26  1  0  0  0  0
 17 27  1  0  0  0  0
M  END
>  <InChIKey>
InChI=1S/C14H10O3/c15-13(10-6-2-1-3-7-10)11-8-4-5-9-12(11)14(16)17/h1-9H,(H,16,17)

>  <CASRN>
85-52-9

> <Outcome>
1

>  <Index>
1464

>  <StandardizerResult>
Dearomatize (ID: Dearomatize)
Clear Stereo (ID: ClearStereo)
Wedge Clean (ID: WedgeClean)
Mesomerize (ID: Mesomerize)
Tautomerize (ID: Tautomerize)
Aromatize (ID: Aromatize)
Add Explicit Hydrogens (ID: AddExplicitH)
Neutralize (ID: Neutralize)
Clean 2D (ID: Clean2D)

> <knn Distance>


> <CpId>
1464

$$$$
1467
  Mrv1532301301811342D          

 40 40  0  0  0  0            999 V2000
    2.8842    4.1219    0.0000 C   0  0  0  0  0  0  0  0  0  0  0  0
    2.1698    3.7094    0.0000 C   0  0  0  0  0  0  0  0  0  0  0  0
    2.1698    2.8844    0.0000 O   0  0  0  0  0  0  0  0  0  0  0  0
    1.4553    2.4719    0.0000 P   0  0  0  0  0  0  0  0  0  0  0  0
    1.0428    3.1864    0.0000 S   0  0  0  0  0  0  0  0  0  0  0  0
    1.8678    1.7574    0.0000 O   0  0  0  0  0  0  0  0  0  0  0  0
    2.6928    1.7574    0.0000 C   0  0  0  0  0  0  0  0  0  0  0  0
    3.1053    1.0430    0.0000 C   0  0  0  0  0  0  0  0  0  0  0  0
    0.7408    2.0594    0.0000 O   0  0  0  0  0  0  0  0  0  0  0  0
    0.7408    1.2344    0.0000 C   0  0  0  0  0  0  0  0  0  0  0  0
    1.4553    0.8219    0.0000 C   0  0  0  0  0  0  0  0  0  0  0  0
    1.4553   -0.0031    0.0000 C   0  0  0  0  0  0  0  0  0  0  0  0
    2.1698   -0.4156    0.0000 C   0  0  0  0  0  0  0  0  0  0  0  0
    0.7408   -0.4156    0.0000 N   0  0  0  0  0  0  0  0  0  0  0  0
    0.0263   -0.0031    0.0000 C   0  0  0  0  0  0  0  0  0  0  0  0
    0.0263    0.8219    0.0000 N   0  0  0  0  0  0  0  0  0  0  0  0
   -0.6881   -0.4156    0.0000 C   0  0  0  0  0  0  0  0  0  0  0  0
   -0.6881   -1.2406    0.0000 C   0  0  0  0  0  0  0  0  0  0  0  0
   -1.4026   -0.0031    0.0000 C   0  0  0  0  0  0  0  0  0  0  0  0
    3.2967    3.4074    0.0000 H   0  0  0  0  0  0  0  0  0  0  0  0
    3.5987    4.5344    0.0000 H   0  0  0  0  0  0  0  0  0  0  0  0
    2.4717    4.8364    0.0000 H   0  0  0  0  0  0  0  0  0  0  0  0
    1.7164    4.3987    0.0000 H   0  0  0  0  0  0  0  0  0  0  0  0
    1.3462    3.7574    0.0000 H   0  0  0  0  0  0  0  0  0  0  0  0
    3.3821    2.2108    0.0000 H   0  0  0  0  0  0  0  0  0  0  0  0
    2.7408    2.5810    0.0000 H   0  0  0  0  0  0  0  0  0  0  0  0
    2.3908    0.6305    0.0000 H   0  0  0  0  0  0  0  0  0  0  0  0
    3.5178    0.3285    0.0000 H   0  0  0  0  0  0  0  0  0  0  0  0
    3.8198    1.4555    0.0000 H   0  0  0  0  0  0  0  0  0  0  0  0
    1.7480    1.5932    0.0000 H   0  0  0  0  0  0  0  0  0  0  0  0
    1.7573   -1.1301    0.0000 H   0  0  0  0  0  0  0  0  0  0  0  0
    2.8842   -0.8281    0.0000 H   0  0  0  0  0  0  0  0  0  0  0  0
    2.5823    0.2989    0.0000 H   0  0  0  0  0  0  0  0  0  0  0  0
    0.0263   -0.8281    0.0000 H   0  0  0  0  0  0  0  0  0  0  0  0
   -1.4850   -1.0271    0.0000 H   0  0  0  0  0  0  0  0  0  0  0  0
   -1.1006   -1.9551    0.0000 H   0  0  0  0  0  0  0  0  0  0  0  0
   -0.1048   -1.8239    0.0000 H   0  0  0  0  0  0  0  0  0  0  0  0
   -0.9901    0.7114    0.0000 H   0  0  0  0  0  0  0  0  0  0  0  0
   -2.1171    0.4094    0.0000 H   0  0  0  0  0  0  0  0  0  0  0  0
   -1.8151   -0.7176    0.0000 H   0  0  0  0  0  0  0  0  0  0  0  0
  1  2  1  0  0  0  0
  2  3  1  0  0  0  0
  3  4  1  0  0  0  0
  4  5  2  0  0  0  0
  4  6  1  0  0  0  0
  6  7  1  0  0  0  0
  7  8  1  0  0  0  0
  4  9  1  0  0  0  0
  9 10  1  0  0  0  0
 10 11  4  0  0  0  0
 11 12  4  0  0  0  0
 12 13  1  0  0  0  0
 12 14  4  0  0  0  0
 14 15  4  0  0  0  0
 15 16  4  0  0  0  0
 10 16  4  0  0  0  0
 15 17  1  0  0  0  0
 17 18  1  0  0  0  0
 17 19  1  0  0  0  0
  1 20  1  0  0  0  0
  1 21  1  0  0  0  0
  1 22  1  0  0  0  0
  2 23  1  0  0  0  0
  2 24  1  0  0  0  0
  7 25  1  0  0  0  0
  7 26  1  0  0  0  0
  8 27  1  0  0  0  0
  8 28  1  0  0  0  0
  8 29  1  0  0  0  0
 11 30  1  0  0  0  0
 13 31  1  0  0  0  0
 13 32  1  0  0  0  0
 13 33  1  0  0  0  0
 17 34  1  0  0  0  0
 18 35  1  0  0  0  0
 18 36  1  0  0  0  0
 18 37  1  0  0  0  0
 19 38  1  0  0  0  0
 19 39  1  0  0  0  0
 19 40  1  0  0  0  0
M  END
>  <InChIKey>
InChI=1S/C12H21N2O3PS/c1-6-15-18(19,16-7-2)17-11-8-10(5)13-12(14-11)9(3)4/h8-9H,6-7H2,1-5H3

>  <CASRN>
333-41-5

> <Outcome>
1

>  <Index>
1467

>  <StandardizerResult>
Dearomatize (ID: Dearomatize)
Clear Stereo (ID: ClearStereo)
Wedge Clean (ID: WedgeClean)
Mesomerize (ID: Mesomerize)
Tautomerize (ID: Tautomerize)
Aromatize (ID: Aromatize)
Add Explicit Hydrogens (ID: AddExplicitH)
Neutralize (ID: Neutralize)
Clean 2D (ID: Clean2D)

> <knn Distance>


> <CpId>
1467

$$$$
1470
  Mrv1532301301811342D          

 34 33  0  0  0  0            999 V2000
    4.7586    3.5724    0.0000 C   0  0  0  0  0  0  0  0  0  0  0  0
    5.4730    3.9849    0.0000 C   0  0  0  0  0  0  0  0  0  0  0  0
    6.1875    3.5724    0.0000 C   0  0  0  0  0  0  0  0  0  0  0  0
    6.1875    2.7474    0.0000 O   0  0  0  0  0  0  0  0  0  0  0  0
    6.9020    3.9849    0.0000 O   0  0  0  0  0  0  0  0  0  0  0  0
    7.6164    3.5724    0.0000 C   0  0  0  0  0  0  0  0  0  0  0  0
    8.3309    3.9849    0.0000 C   0  0  0  0  0  0  0  0  0  0  0  0
    9.0454    3.5724    0.0000 C   0  0  0  0  0  0  0  0  0  0  0  0
    9.7599    3.9849    0.0000 C   0  0  0  0  0  0  0  0  0  0  0  0
   10.4743    3.5724    0.0000 C   0  0  0  0  0  0  0  0  0  0  0  0
   11.1888    3.9849    0.0000 C   0  0  0  0  0  0  0  0  0  0  0  0
   11.9033    3.5724    0.0000 O   0  0  0  0  0  0  0  0  0  0  0  0
   12.6177    3.9849    0.0000 C   0  0  0  0  0  0  0  0  0  0  0  0
   12.6177    4.8099    0.0000 O   0  0  0  0  0  0  0  0  0  0  0  0
   13.3322    3.5724    0.0000 C   0  0  0  0  0  0  0  0  0  0  0  0
   14.0467    3.9849    0.0000 C   0  0  0  0  0  0  0  0  0  0  0  0
    4.0441    3.9849    0.0000 H   0  0  0  0  0  0  0  0  0  0  0  0
    4.7586    2.7474    0.0000 H   0  0  0  0  0  0  0  0  0  0  0  0
    5.4730    4.8099    0.0000 H   0  0  0  0  0  0  0  0  0  0  0  0
    7.2462    2.8352    0.0000 H   0  0  0  0  0  0  0  0  0  0  0  0
    7.9867    2.8352    0.0000 H   0  0  0  0  0  0  0  0  0  0  0  0
    8.7012    4.7221    0.0000 H   0  0  0  0  0  0  0  0  0  0  0  0
    7.9607    4.7221    0.0000 H   0  0  0  0  0  0  0  0  0  0  0  0
    8.6751    2.8352    0.0000 H   0  0  0  0  0  0  0  0  0  0  0  0
    9.4156    2.8352    0.0000 H   0  0  0  0  0  0  0  0  0  0  0  0
   10.1301    4.7221    0.0000 H   0  0  0  0  0  0  0  0  0  0  0  0
    9.3896    4.7221    0.0000 H   0  0  0  0  0  0  0  0  0  0  0  0
   10.1041    2.8352    0.0000 H   0  0  0  0  0  0  0  0  0  0  0  0
   10.8446    2.8352    0.0000 H   0  0  0  0  0  0  0  0  0  0  0  0
   11.5591    4.7221    0.0000 H   0  0  0  0  0  0  0  0  0  0  0  0
   10.8185    4.7221    0.0000 H   0  0  0  0  0  0  0  0  0  0  0  0
   13.3322    2.7474    0.0000 H   0  0  0  0  0  0  0  0  0  0  0  0
   14.7612    3.5724    0.0000 H   0  0  0  0  0  0  0  0  0  0  0  0
   14.0467    4.8099    0.0000 H   0  0  0  0  0  0  0  0  0  0  0  0
  1  2  2  0  0  0  0
  2  3  1  0  0  0  0
  3  4  2  0  0  0  0
  3  5  1  0  0  0  0
  5  6  1  0  0  0  0
  6  7  1  0  0  0  0
  7  8  1  0  0  0  0
  8  9  1  0  0  0  0
  9 10  1  0  0  0  0
 10 11  1  0  0  0  0
 11 12  1  0  0  0  0
 12 13  1  0  0  0  0
 13 14  2  0  0  0  0
 13 15  1  0  0  0  0
 15 16  2  0  0  0  0
  1 17  1  0  0  0  0
  1 18  1  0  0  0  0
  2 19  1  0  0  0  0
  6 20  1  0  0  0  0
  6 21  1  0  0  0  0
  7 22  1  0  0  0  0
  7 23  1  0  0  0  0
  8 24  1  0  0  0  0
  8 25  1  0  0  0  0
  9 26  1  0  0  0  0
  9 27  1  0  0  0  0
 10 28  1  0  0  0  0
 10 29  1  0  0  0  0
 11 30  1  0  0  0  0
 11 31  1  0  0  0  0
 15 32  1  0  0  0  0
 16 33  1  0  0  0  0
 16 34  1  0  0  0  0
M  END
>  <InChIKey>
InChI=1S/C12H18O4/c1-3-11(13)15-9-7-5-6-8-10-16-12(14)4-2/h3-4H,1-2,5-10H2

>  <CASRN>
13048-33-4

> <Outcome>
1

>  <Index>
1470

>  <StandardizerResult>
Clear Stereo (ID: ClearStereo)
Wedge Clean (ID: WedgeClean)
Mesomerize (ID: Mesomerize)
Tautomerize (ID: Tautomerize)
Add Explicit Hydrogens (ID: AddExplicitH)
Neutralize (ID: Neutralize)
Clean 2D (ID: Clean2D)

> <knn Distance>


> <CpId>
1470

$$$$
1481
  Mrv1532301301811342D          

  5  4  0  0  0  0            999 V2000
    1.2375    0.7145    0.0000 Cl  0  0  0  0  0  0  0  0  0  0  0  0
    0.8250    0.0000    0.0000 C   0  0  0  0  0  0  0  0  0  0  0  0
    1.2375   -0.7145    0.0000 Cl  0  0  0  0  0  0  0  0  0  0  0  0
    0.0000    0.0000    0.0000 Br  0  0  0  0  0  0  0  0  0  0  0  0
    1.6500   -0.0000    0.0000 H   0  0  0  0  0  0  0  0  0  0  0  0
  1  2  1  0  0  0  0
  2  3  1  0  0  0  0
  2  4  1  0  0  0  0
  2  5  1  0  0  0  0
M  END
>  <InChIKey>
InChI=1S/CHBrCl2/c2-1(3)4/h1H

>  <CASRN>
75-27-4

> <Outcome>
1

>  <Index>
1481

>  <StandardizerResult>
Clear Stereo (ID: ClearStereo)
Wedge Clean (ID: WedgeClean)
Mesomerize (ID: Mesomerize)
Tautomerize (ID: Tautomerize)
Add Explicit Hydrogens (ID: AddExplicitH)
Neutralize (ID: Neutralize)
Clean 2D (ID: Clean2D)

> <knn Distance>


> <CpId>
1481

$$$$
1482
  Mrv1532301301811342D          

 22 21  0  0  0  0            999 V2000
    3.2368    1.3866    0.0000 C   0  0  0  0  0  0  0  0  0  0  0  0
    2.4118    1.3866    0.0000 C   0  0  0  0  0  0  0  0  0  0  0  0
    1.9993    0.6722    0.0000 O   0  0  0  0  0  0  0  0  0  0  0  0
    1.1743    0.6722    0.0000 C   0  0  0  0  0  0  0  0  0  0  0  0
    0.7618    1.3866    0.0000 O   0  0  0  0  0  0  0  0  0  0  0  0
    0.7618   -0.0423    0.0000 C   0  0  0  0  0  0  0  0  0  0  0  0
    1.1743   -0.7568    0.0000 C   0  0  0  0  0  0  0  0  0  0  0  0
   -0.0632   -0.0423    0.0000 C   0  0  0  0  0  0  0  0  0  0  0  0
   -0.4757   -0.7568    0.0000 C   0  0  0  0  0  0  0  0  0  0  0  0
   -0.4757    0.6722    0.0000 O   0  0  0  0  0  0  0  0  0  0  0  0
    3.2368    0.5616    0.0000 H   0  0  0  0  0  0  0  0  0  0  0  0
    4.0618    1.3866    0.0000 H   0  0  0  0  0  0  0  0  0  0  0  0
    3.2368    2.2116    0.0000 H   0  0  0  0  0  0  0  0  0  0  0  0
    2.3638    2.2102    0.0000 H   0  0  0  0  0  0  0  0  0  0  0  0
    1.7225    1.8400    0.0000 H   0  0  0  0  0  0  0  0  0  0  0  0
    0.4598   -1.1693    0.0000 H   0  0  0  0  0  0  0  0  0  0  0  0
    1.5868   -1.4712    0.0000 H   0  0  0  0  0  0  0  0  0  0  0  0
    1.8887   -0.3443    0.0000 H   0  0  0  0  0  0  0  0  0  0  0  0
   -1.1902   -0.3443    0.0000 H   0  0  0  0  0  0  0  0  0  0  0  0
   -0.8882   -1.4712    0.0000 H   0  0  0  0  0  0  0  0  0  0  0  0
    0.2387   -1.1693    0.0000 H   0  0  0  0  0  0  0  0  0  0  0  0
   -0.0632    1.3866    0.0000 H   0  0  0  0  0  0  0  0  0  0  0  0
  1  2  1  0  0  0  0
  2  3  1  0  0  0  0
  3  4  1  0  0  0  0
  4  5  2  0  0  0  0
  4  6  1  0  0  0  0
  6  7  1  4  0  0  0
  6  8  2  0  0  0  0
  8  9  1  0  0  0  0
  8 10  1  0  0  0  0
  1 11  1  0  0  0  0
  1 12  1  0  0  0  0
  1 13  1  0  0  0  0
  2 14  1  0  0  0  0
  2 15  1  0  0  0  0
  7 16  1  0  0  0  0
  7 17  1  0  0  0  0
  7 18  1  0  0  0  0
  9 19  1  0  0  0  0
  9 20  1  0  0  0  0
  9 21  1  0  0  0  0
 10 22  1  0  0  0  0
M  END
>  <InChIKey>
InChI=1S/C7H12O3/c1-4-10-7(9)5(2)6(3)8/h8H,4H2,1-3H3

>  <UN GHS>
2B

>  <CASRN>
609-14-3  609-14-3

> <Outcome>
1

>  <Index>
1482

>  <StandardizerResult>
Clear Stereo (ID: ClearStereo)
Wedge Clean (ID: WedgeClean)
Mesomerize (ID: Mesomerize)
Tautomerize (ID: Tautomerize)
Add Explicit Hydrogens (ID: AddExplicitH)
Neutralize (ID: Neutralize)
Clean 2D (ID: Clean2D)

> <knn Distance>


> <CpId>
1482

$$$$
1488
  Mrv1532301301811342D          

  8  7  0  0  0  0            999 V2000
    2.0614   -0.7164    0.0000 O   0  0  0  0  0  0  0  0  0  0  0  0
    1.2364   -0.7164    0.0000 C   0  0  0  0  0  0  0  0  0  0  0  0
    0.8239   -1.4309    0.0000 O   0  0  0  0  0  0  0  0  0  0  0  0
    0.8239   -0.0019    0.0000 C   0  0  0  0  0  0  0  0  0  0  0  0
   -0.0011   -0.0019    0.0000 Cl  0  0  0  0  0  0  0  0  0  0  0  0
    2.4739   -1.4309    0.0000 H   0  0  0  0  0  0  0  0  0  0  0  0
    1.5132    0.4514    0.0000 H   0  0  0  0  0  0  0  0  0  0  0  0
    0.8719    0.8217    0.0000 H   0  0  0  0  0  0  0  0  0  0  0  0
  1  2  1  0  0  0  0
  2  3  2  0  0  0  0
  2  4  1  0  0  0  0
  4  5  1  0  0  0  0
  1  6  1  0  0  0  0
  4  7  1  0  0  0  0
  4  8  1  0  0  0  0
M  END
>  <InChIKey>
InChI=1S/C2H3ClO2/c3-1-2(4)5/h1H2,(H,4,5)

>  <UN GHS>
2B

>  <CASRN>
79-11-8 3926-62-3

> <Outcome>
1

>  <Index>
1488

>  <StandardizerResult>
Clear Stereo (ID: ClearStereo)
Wedge Clean (ID: WedgeClean)
Mesomerize (ID: Mesomerize)
Tautomerize (ID: Tautomerize)
Add Explicit Hydrogens (ID: AddExplicitH)
Neutralize (ID: Neutralize)
Clean 2D (ID: Clean2D)

> <knn Distance>


> <CpId>
1488

$$$$
1495
  Mrv1532301301811342D          

 14 14  0  0  0  0            999 V2000
    0.7145    2.0625    0.0000 Cl  0  0  0  0  0  0  0  0  0  0  0  0
    0.7145    1.2375    0.0000 C   0  0  0  0  0  0  0  0  0  0  0  0
    1.4289    0.8250    0.0000 C   0  0  0  0  0  0  0  0  0  0  0  0
    1.4289   -0.0000    0.0000 C   0  0  0  0  0  0  0  0  0  0  0  0
    0.7145   -0.4125    0.0000 C   0  0  0  0  0  0  0  0  0  0  0  0
   -0.0000   -0.0000    0.0000 C   0  0  0  0  0  0  0  0  0  0  0  0
   -0.0000    0.8250    0.0000 C   0  0  0  0  0  0  0  0  0  0  0  0
   -0.7145    1.2375    0.0000 C   0  0  0  0  0  0  0  0  0  0  0  0
   -1.4289    0.8250    0.0000 O   0  0  0  0  0  0  0  0  0  0  0  0
    2.1434    1.2375    0.0000 H   0  0  0  0  0  0  0  0  0  0  0  0
    2.1434   -0.4125    0.0000 H   0  0  0  0  0  0  0  0  0  0  0  0
    0.7145   -1.2375    0.0000 H   0  0  0  0  0  0  0  0  0  0  0  0
   -0.7145   -0.4125    0.0000 H   0  0  0  0  0  0  0  0  0  0  0  0
   -0.7145    2.0625    0.0000 H   0  0  0  0  0  0  0  0  0  0  0  0
  1  2  1  0  0  0  0
  2  3  4  0  0  0  0
  3  4  4  0  0  0  0
  4  5  4  0  0  0  0
  5  6  4  0  0  0  0
  6  7  4  0  0  0  0
  2  7  4  0  0  0  0
  7  8  1  0  0  0  0
  8  9  2  0  0  0  0
  3 10  1  0  0  0  0
  4 11  1  0  0  0  0
  5 12  1  0  0  0  0
  6 13  1  0  0  0  0
  8 14  1  0  0  0  0
M  END
>  <InChIKey>
InChI=1S/C7H5ClO/c8-7-4-2-1-3-6(7)5-9/h1-5H

>  <CASRN>
89-98-5

> <Outcome>
1

>  <Index>
1495

>  <StandardizerResult>
Dearomatize (ID: Dearomatize)
Clear Stereo (ID: ClearStereo)
Wedge Clean (ID: WedgeClean)
Mesomerize (ID: Mesomerize)
Tautomerize (ID: Tautomerize)
Aromatize (ID: Aromatize)
Add Explicit Hydrogens (ID: AddExplicitH)
Neutralize (ID: Neutralize)
Clean 2D (ID: Clean2D)

> <knn Distance>


> <CpId>
1495

$$$$
1496
  Mrv1532301301811342D          

 12 11  0  0  0  0            999 V2000
    2.0647    0.7132    0.0000 Cl  0  0  0  0  0  0  0  0  0  0  0  0
    1.2397    0.7132    0.0000 C   0  0  0  0  0  0  0  0  0  0  0  0
    0.8272   -0.0013    0.0000 C   0  0  0  0  0  0  0  0  0  0  0  0
    0.0022   -0.0013    0.0000 C   0  0  0  0  0  0  0  0  0  0  0  0
   -0.4103   -0.7157    0.0000 C   0  0  0  0  0  0  0  0  0  0  0  0
    0.0022   -1.4302    0.0000 Cl  0  0  0  0  0  0  0  0  0  0  0  0
    1.1917    1.5368    0.0000 H   0  0  0  0  0  0  0  0  0  0  0  0
    0.5504    1.1665    0.0000 H   0  0  0  0  0  0  0  0  0  0  0  0
    1.2397   -0.7157    0.0000 H   0  0  0  0  0  0  0  0  0  0  0  0
   -0.4103    0.7132    0.0000 H   0  0  0  0  0  0  0  0  0  0  0  0
   -1.1475   -0.3455    0.0000 H   0  0  0  0  0  0  0  0  0  0  0  0
   -1.1475   -1.0860    0.0000 H   0  0  0  0  0  0  0  0  0  0  0  0
  1  2  1  0  0  0  0
  3  2  1  4  0  0  0
  3  4  2  0  0  0  0
  4  5  1  0  0  0  0
  5  6  1  0  0  0  0
  2  7  1  0  0  0  0
  2  8  1  0  0  0  0
  3  9  1  0  0  0  0
  4 10  1  0  0  0  0
  5 11  1  0  0  0  0
  5 12  1  0  0  0  0
M  END
>  <InChIKey>
InChI=1S/C4H6Cl2/c5-3-1-2-4-6/h1-2H,3-4H2

>  <CASRN>
1476-11-5 110-57-6

> <Outcome>
1

>  <Index>
1496

>  <StandardizerResult>
Clear Stereo (ID: ClearStereo)
Wedge Clean (ID: WedgeClean)
Mesomerize (ID: Mesomerize)
Tautomerize (ID: Tautomerize)
Add Explicit Hydrogens (ID: AddExplicitH)
Neutralize (ID: Neutralize)
Clean 2D (ID: Clean2D)

> <knn Distance>


> <CpId>
1496

$$$$
1499
  Mrv1532301301811342D          

 21 22  0  0  0  0            999 V2000
    1.4951   -1.6347    0.0000 C   0  0  0  0  0  0  0  0  0  0  0  0
    0.7807   -1.2222    0.0000 O   0  0  0  0  0  0  0  0  0  0  0  0
    0.7807   -0.3972    0.0000 C   0  0  0  0  0  0  0  0  0  0  0  0
    0.0662    0.0153    0.0000 C   0  0  0  0  0  0  0  0  0  0  0  0
    0.0662    0.8403    0.0000 C   0  0  0  0  0  0  0  0  0  0  0  0
    0.7807    1.2528    0.0000 C   0  0  0  0  0  0  0  0  0  0  0  0
    1.4951    0.8403    0.0000 C   0  0  0  0  0  0  0  0  0  0  0  0
    1.4951    0.0153    0.0000 C   0  0  0  0  0  0  0  0  0  0  0  0
    1.4951   -2.4597    0.0000 C   0  0  0  0  0  0  0  0  0  0  0  0
    1.9076   -3.1742    0.0000 C   0  0  0  0  0  0  0  0  0  0  0  0
    1.0826   -3.1742    0.0000 O   0  0  0  0  0  0  0  0  0  0  0  0
    2.3187   -1.5867    0.0000 H   0  0  0  0  0  0  0  0  0  0  0  0
    1.9485   -0.9454    0.0000 H   0  0  0  0  0  0  0  0  0  0  0  0
   -0.6483   -0.3972    0.0000 H   0  0  0  0  0  0  0  0  0  0  0  0
   -0.6483    1.2528    0.0000 H   0  0  0  0  0  0  0  0  0  0  0  0
    0.7807    2.0778    0.0000 H   0  0  0  0  0  0  0  0  0  0  0  0
    2.2096    1.2528    0.0000 H   0  0  0  0  0  0  0  0  0  0  0  0
    2.2096   -0.3972    0.0000 H   0  0  0  0  0  0  0  0  0  0  0  0
    0.6982   -2.2462    0.0000 H   0  0  0  0  0  0  0  0  0  0  0  0
    2.2779   -3.9114    0.0000 H   0  0  0  0  0  0  0  0  0  0  0  0
    2.7312   -3.1262    0.0000 H   0  0  0  0  0  0  0  0  0  0  0  0
  1  2  1  0  0  0  0
  2  3  1  0  0  0  0
  3  4  4  0  0  0  0
  4  5  4  0  0  0  0
  5  6  4  0  0  0  0
  6  7  4  0  0  0  0
  7  8  4  0  0  0  0
  3  8  4  0  0  0  0
  1  9  1  0  0  0  0
  9 10  1  0  0  0  0
 10 11  1  0  0  0  0
  9 11  1  0  0  0  0
  1 12  1  0  0  0  0
  1 13  1  0  0  0  0
  4 14  1  0  0  0  0
  5 15  1  0  0  0  0
  6 16  1  0  0  0  0
  7 17  1  0  0  0  0
  8 18  1  0  0  0  0
  9 19  1  0  0  0  0
 10 20  1  0  0  0  0
 10 21  1  0  0  0  0
M  END
>  <InChIKey>
InChI=1S/C9H10O2/c1-2-4-8(5-3-1)10-6-9-7-11-9/h1-5,9H,6-7H2

>  <CASRN>
122-60-1

> <Outcome>
1

>  <Index>
1499

>  <StandardizerResult>
Dearomatize (ID: Dearomatize)
Clear Stereo (ID: ClearStereo)
Wedge Clean (ID: WedgeClean)
Mesomerize (ID: Mesomerize)
Tautomerize (ID: Tautomerize)
Aromatize (ID: Aromatize)
Add Explicit Hydrogens (ID: AddExplicitH)
Neutralize (ID: Neutralize)
Clean 2D (ID: Clean2D)

> <knn Distance>


> <CpId>
1499

$$$$
1500
  Mrv1532301301811342D          

 22 24  0  0  0  0            999 V2000
    2.8965    2.1458    0.0000 Cl  0  0  0  0  0  0  0  0  0  0  0  0
    2.6627    1.2696    0.0000 C   0  0  0  0  0  0  0  0  0  0  0  0
    3.1421    0.5982    0.0000 C   0  0  0  0  0  0  0  0  0  0  0  0
    2.6518   -0.0652    0.0000 C   0  0  0  0  0  0  0  0  0  0  0  0
    1.7568    0.2272    0.0000 C   0  0  0  0  0  0  0  0  0  0  0  0
    1.7635    1.0522    0.0000 C   0  0  0  0  0  0  0  0  0  0  0  0
    1.1649    1.4394    0.0000 C   0  0  0  0  0  0  0  0  0  0  0  0
    1.1337    2.3105    0.0000 Cl  0  0  0  0  0  0  0  0  0  0  0  0
    0.4471    1.0327    0.0000 C   0  0  0  0  0  0  0  0  0  0  0  0
   -0.2986    1.4695    0.0000 Cl  0  0  0  0  0  0  0  0  0  0  0  0
    0.4404    0.2078    0.0000 C   0  0  0  0  0  0  0  0  0  0  0  0
   -0.3120   -0.2173    0.0000 Cl  0  0  0  0  0  0  0  0  0  0  0  0
    1.1515   -0.2106    0.0000 C   0  0  0  0  0  0  0  0  0  0  0  0
    1.1173   -1.0812    0.0000 Cl  0  0  0  0  0  0  0  0  0  0  0  0
    1.3644    0.6127    0.0000 C   0  0  0  0  0  0  0  0  0  0  0  0
    2.2918    0.2728    0.0000 Cl  0  0  0  0  0  0  0  0  0  0  0  0
    2.3113    0.9015    0.0000 Cl  0  0  0  0  0  0  0  0  0  0  0  0
    2.0862    1.8598    0.0000 H   0  0  0  0  0  0  0  0  0  0  0  0
    3.9671    0.5915    0.0000 H   0  0  0  0  0  0  0  0  0  0  0  0
    2.9029   -0.8511    0.0000 H   0  0  0  0  0  0  0  0  0  0  0  0
    1.8843   -0.5879    0.0000 H   0  0  0  0  0  0  0  0  0  0  0  0
    1.5132    1.8383    0.0000 H   0  0  0  0  0  0  0  0  0  0  0  0
  1  2  1  0  0  0  0
  2  3  1  0  0  0  0
  3  4  2  0  0  0  0
  4  5  1  0  0  0  0
  5  6  1  0  0  0  0
  2  6  1  0  0  0  0
  6  7  1  0  0  0  0
  7  8  1  0  0  0  0
  7  9  1  0  0  0  0
  9 10  1  0  0  0  0
  9 11  2  0  0  0  0
 11 12  1  0  0  0  0
 11 13  1  0  0  0  0
  5 13  1  0  0  0  0
 13 14  1  0  0  0  0
 13 15  1  0  0  0  0
  7 15  1  0  0  0  0
 15 16  1  0  0  0  0
 15 17  1  0  0  0  0
  2 18  1  0  0  0  0
  3 19  1  0  0  0  0
  4 20  1  0  0  0  0
  5 21  1  0  0  0  0
  6 22  1  0  0  0  0
M  END
>  <InChIKey>
InChI=1S/C10H5Cl7/c11-4-2-1-3-5(4)9(15)7(13)6(12)8(3,14)10(9,16)17/h1-5H

>  <CASRN>
76-44-8

> <Outcome>
1

>  <Index>
1500

>  <StandardizerResult>
Clear Stereo (ID: ClearStereo)
Wedge Clean (ID: WedgeClean)
Mesomerize (ID: Mesomerize)
Tautomerize (ID: Tautomerize)
Add Explicit Hydrogens (ID: AddExplicitH)
Neutralize (ID: Neutralize)
Clean 2D (ID: Clean2D)

> <knn Distance>


> <CpId>
1500

$$$$
1509
  Mrv1532301301811342D          

 15 15  0  0  0  0            999 V2000
    0.7145    2.0625    0.0000 C   0  0  0  0  0  0  0  0  0  0  0  0
    0.7145    1.2375    0.0000 C   0  0  0  0  0  0  0  0  0  0  0  0
    1.4289    0.8250    0.0000 C   0  0  0  0  0  0  0  0  0  0  0  0
    1.4289   -0.0000    0.0000 C   0  0  0  0  0  0  0  0  0  0  0  0
    0.7145   -0.4125    0.0000 C   0  0  0  0  0  0  0  0  0  0  0  0
    0.7145   -1.2375    0.0000 Cl  0  0  0  0  0  0  0  0  0  0  0  0
    0.0000   -0.0000    0.0000 C   0  0  0  0  0  0  0  0  0  0  0  0
    0.0000    0.8250    0.0000 C   0  0  0  0  0  0  0  0  0  0  0  0
   -0.7145    1.2375    0.0000 Cl  0  0  0  0  0  0  0  0  0  0  0  0
    1.5395    2.0625    0.0000 H   0  0  0  0  0  0  0  0  0  0  0  0
    0.7145    2.8875    0.0000 H   0  0  0  0  0  0  0  0  0  0  0  0
   -0.1105    2.0625    0.0000 H   0  0  0  0  0  0  0  0  0  0  0  0
    2.1434    1.2375    0.0000 H   0  0  0  0  0  0  0  0  0  0  0  0
    2.1434   -0.4125    0.0000 H   0  0  0  0  0  0  0  0  0  0  0  0
   -0.7145   -0.4125    0.0000 H   0  0  0  0  0  0  0  0  0  0  0  0
  1  2  1  0  0  0  0
  2  3  4  0  0  0  0
  3  4  4  0  0  0  0
  4  5  4  0  0  0  0
  5  6  1  0  0  0  0
  5  7  4  0  0  0  0
  7  8  4  0  0  0  0
  2  8  4  0  0  0  0
  8  9  1  0  0  0  0
  1 10  1  0  0  0  0
  1 11  1  0  0  0  0
  1 12  1  0  0  0  0
  3 13  1  0  0  0  0
  4 14  1  0  0  0  0
  7 15  1  0  0  0  0
M  END
>  <InChIKey>
InChI=1S/C7H6Cl2/c1-5-2-3-6(8)4-7(5)9/h2-4H,1H3

>  <CASRN>
95-73-8

> <Outcome>
1

>  <Index>
1509

>  <StandardizerResult>
Dearomatize (ID: Dearomatize)
Clear Stereo (ID: ClearStereo)
Wedge Clean (ID: WedgeClean)
Mesomerize (ID: Mesomerize)
Tautomerize (ID: Tautomerize)
Aromatize (ID: Aromatize)
Add Explicit Hydrogens (ID: AddExplicitH)
Neutralize (ID: Neutralize)
Clean 2D (ID: Clean2D)

> <knn Distance>


> <CpId>
1509

$$$$
1511
  Mrv1532301301811342D          

 11 10  0  0  0  0            999 V2000
    2.0625   -0.7145    0.0000 C   0  0  0  0  0  0  0  0  0  0  0  0
    1.2375   -0.7145    0.0000 C   0  0  0  0  0  0  0  0  0  0  0  0
    0.8250   -1.4290    0.0000 O   0  0  0  0  0  0  0  0  0  0  0  0
    0.8250   -0.0000    0.0000 C   0  0  0  0  0  0  0  0  0  0  0  0
    0.0000   -0.0000    0.0000 C   0  0  0  0  0  0  0  0  0  0  0  0
    2.0625   -1.5395    0.0000 H   0  0  0  0  0  0  0  0  0  0  0  0
    2.8875   -0.7145    0.0000 H   0  0  0  0  0  0  0  0  0  0  0  0
    2.0625    0.1105    0.0000 H   0  0  0  0  0  0  0  0  0  0  0  0
    1.2375    0.7145    0.0000 H   0  0  0  0  0  0  0  0  0  0  0  0
   -0.4125    0.7145    0.0000 H   0  0  0  0  0  0  0  0  0  0  0  0
   -0.4125   -0.7145    0.0000 H   0  0  0  0  0  0  0  0  0  0  0  0
  1  2  1  0  0  0  0
  2  3  2  0  0  0  0
  2  4  1  0  0  0  0
  4  5  2  0  0  0  0
  1  6  1  0  0  0  0
  1  7  1  0  0  0  0
  1  8  1  0  0  0  0
  4  9  1  0  0  0  0
  5 10  1  0  0  0  0
  5 11  1  0  0  0  0
M  END
>  <InChIKey>
InChI=1S/C4H6O/c1-3-4(2)5/h3H,1H2,2H3

>  <CASRN>
78-94-4

> <Outcome>
1

>  <Index>
1511

>  <StandardizerResult>
Clear Stereo (ID: ClearStereo)
Wedge Clean (ID: WedgeClean)
Mesomerize (ID: Mesomerize)
Tautomerize (ID: Tautomerize)
Add Explicit Hydrogens (ID: AddExplicitH)
Neutralize (ID: Neutralize)
Clean 2D (ID: Clean2D)

> <knn Distance>


> <CpId>
1511

$$$$
1512
  Mrv1532301301811342D          

  9  8  0  0  0  0            999 V2000
    2.0615   -0.7162    0.0000 C   0  0  0  0  0  0  0  0  0  0  0  0
    1.6490   -0.0017    0.0000 C   0  0  0  0  0  0  0  0  0  0  0  0
    0.8240   -0.0017    0.0000 C   0  0  0  0  0  0  0  0  0  0  0  0
   -0.0010   -0.0017    0.0000 N   0  0  0  0  0  0  0  0  0  0  0  0
    1.3470   -1.1287    0.0000 H   0  0  0  0  0  0  0  0  0  0  0  0
    2.4740   -1.4307    0.0000 H   0  0  0  0  0  0  0  0  0  0  0  0
    2.7760   -0.3037    0.0000 H   0  0  0  0  0  0  0  0  0  0  0  0
    2.3383    0.4516    0.0000 H   0  0  0  0  0  0  0  0  0  0  0  0
    1.6970    0.8219    0.0000 H   0  0  0  0  0  0  0  0  0  0  0  0
  1  2  1  0  0  0  0
  2  3  1  0  0  0  0
  3  4  3  0  0  0  0
  1  5  1  0  0  0  0
  1  6  1  0  0  0  0
  1  7  1  0  0  0  0
  2  8  1  0  0  0  0
  2  9  1  0  0  0  0
M  END
>  <InChIKey>
InChI=1S/C3H5N/c1-2-3-4/h2H2,1H3

>  <CASRN>
107-12-0

> <Outcome>
1

>  <Index>
1512

>  <StandardizerResult>
Clear Stereo (ID: ClearStereo)
Wedge Clean (ID: WedgeClean)
Mesomerize (ID: Mesomerize)
Tautomerize (ID: Tautomerize)
Add Explicit Hydrogens (ID: AddExplicitH)
Neutralize (ID: Neutralize)
Clean 2D (ID: Clean2D)

> <knn Distance>


> <CpId>
1512

$$$$
1514
  Mrv1532301301811342D          

 33 34  0  0  0  0            999 V2000
    4.3858    3.2330    0.0000 C   0  0  0  0  0  0  0  0  0  0  0  0
    4.6872    2.4650    0.0000 C   0  0  0  0  0  0  0  0  0  0  0  0
    5.5030    2.3421    0.0000 C   0  0  0  0  0  0  0  0  0  0  0  0
    4.1728    1.8200    0.0000 C   0  0  0  0  0  0  0  0  0  0  0  0
    4.5308    1.0767    0.0000 C   0  0  0  0  0  0  0  0  0  0  0  0
    4.1728    0.3334    0.0000 C   0  0  0  0  0  0  0  0  0  0  0  0
    3.3685    0.1498    0.0000 C   0  0  0  0  0  0  0  0  0  0  0  0
    3.1849   -0.6545    0.0000 C   0  0  0  0  0  0  0  0  0  0  0  0
    2.7235    0.6642    0.0000 C   0  0  0  0  0  0  0  0  0  0  0  0
    1.9388    0.4093    0.0000 C   0  0  0  0  0  0  0  0  0  0  0  0
    1.4539    1.0767    0.0000 C   0  0  0  0  0  0  0  0  0  0  0  0
    1.9388    1.7442    0.0000 C   0  0  0  0  0  0  0  0  0  0  0  0
    1.6839    2.5288    0.0000 C   0  0  0  0  0  0  0  0  0  0  0  0
    2.7235    1.4892    0.0000 C   0  0  0  0  0  0  0  0  0  0  0  0
    3.3685    2.0036    0.0000 C   0  0  0  0  0  0  0  0  0  0  0  0
    5.1537    3.5344    0.0000 H   0  0  0  0  0  0  0  0  0  0  0  0
    4.0844    4.0010    0.0000 H   0  0  0  0  0  0  0  0  0  0  0  0
    3.6178    2.9316    0.0000 H   0  0  0  0  0  0  0  0  0  0  0  0
    5.2016    3.1100    0.0000 H   0  0  0  0  0  0  0  0  0  0  0  0
    5.1731    1.5859    0.0000 H   0  0  0  0  0  0  0  0  0  0  0  0
    6.1480    1.8277    0.0000 H   0  0  0  0  0  0  0  0  0  0  0  0
    6.1668    2.8320    0.0000 H   0  0  0  0  0  0  0  0  0  0  0  0
    5.1750    0.5614    0.0000 H   0  0  0  0  0  0  0  0  0  0  0  0
    4.6872   -0.3116    0.0000 H   0  0  0  0  0  0  0  0  0  0  0  0
    2.3806   -0.4709    0.0000 H   0  0  0  0  0  0  0  0  0  0  0  0
    3.0013   -1.4588    0.0000 H   0  0  0  0  0  0  0  0  0  0  0  0
    3.9892   -0.8381    0.0000 H   0  0  0  0  0  0  0  0  0  0  0  0
    1.6839   -0.3753    0.0000 H   0  0  0  0  0  0  0  0  0  0  0  0
    0.6289    1.0767    0.0000 H   0  0  0  0  0  0  0  0  0  0  0  0
    2.4685    2.7837    0.0000 H   0  0  0  0  0  0  0  0  0  0  0  0
    1.4290    3.3134    0.0000 H   0  0  0  0  0  0  0  0  0  0  0  0
    0.8993    2.2738    0.0000 H   0  0  0  0  0  0  0  0  0  0  0  0
    2.6784    2.4557    0.0000 H   0  0  0  0  0  0  0  0  0  0  0  0
  1  2  1  0  0  0  0
  2  3  1  0  0  0  0
  2  4  1  0  0  0  0
  4  5  4  0  0  0  0
  5  6  4  0  0  0  0
  6  7  4  0  0  0  0
  7  8  1  0  0  0  0
  7  9  4  0  0  0  0
  9 10  4  0  0  0  0
 10 11  4  0  0  0  0
 11 12  4  0  0  0  0
 12 13  1  0  0  0  0
 12 14  4  0  0  0  0
  9 14  4  0  0  0  0
 14 15  4  0  0  0  0
  4 15  4  0  0  0  0
  1 16  1  0  0  0  0
  1 17  1  0  0  0  0
  1 18  1  0  0  0  0
  2 19  1  0  0  0  0
  3 20  1  0  0  0  0
  3 21  1  0  0  0  0
  3 22  1  0  0  0  0
  5 23  1  0  0  0  0
  6 24  1  0  0  0  0
  8 25  1  0  0  0  0
  8 26  1  0  0  0  0
  8 27  1  0  0  0  0
 10 28  1  0  0  0  0
 11 29  1  0  0  0  0
 13 30  1  0  0  0  0
 13 31  1  0  0  0  0
 13 32  1  0  0  0  0
 15 33  1  0  0  0  0
M  END
>  <InChIKey>
InChI=1S/C15H18/c1-10(2)13-7-5-11(3)14-8-6-12(4)15(14)9-13/h5-10H,1-4H3

>  <CASRN>
489-84-9

> <Outcome>
1

>  <Index>
1514

>  <StandardizerResult>
Dearomatize (ID: Dearomatize)
Clear Stereo (ID: ClearStereo)
Wedge Clean (ID: WedgeClean)
Mesomerize (ID: Mesomerize)
Tautomerize (ID: Tautomerize)
Aromatize (ID: Aromatize)
Add Explicit Hydrogens (ID: AddExplicitH)
Neutralize (ID: Neutralize)
Clean 2D (ID: Clean2D)

> <knn Distance>


> <CpId>
1514

$$$$
1515
  Mrv1532301301811342D          

 39 38  0  0  0  0            999 V2000
    4.7586    3.5719    0.0000 C   0  0  0  0  0  0  0  0  0  0  0  0
    5.4730    3.9844    0.0000 C   0  0  0  0  0  0  0  0  0  0  0  0
    6.1875    3.5719    0.0000 C   0  0  0  0  0  0  0  0  0  0  0  0
    6.9020    3.9844    0.0000 C   0  0  0  0  0  0  0  0  0  0  0  0
    7.6164    3.5719    0.0000 C   0  0  0  0  0  0  0  0  0  0  0  0
    8.3309    3.9844    0.0000 C   0  0  0  0  0  0  0  0  0  0  0  0
    9.0454    3.5719    0.0000 C   0  0  0  0  0  0  0  0  0  0  0  0
    9.7599    3.9844    0.0000 C   0  0  0  0  0  0  0  0  0  0  0  0
   10.4743    3.5719    0.0000 C   0  0  0  0  0  0  0  0  0  0  0  0
   11.1888    3.9844    0.0000 C   0  0  0  0  0  0  0  0  0  0  0  0
   11.9033    3.5719    0.0000 O   0  0  0  0  0  0  0  0  0  0  0  0
   12.6177    3.9844    0.0000 C   0  0  0  0  0  0  0  0  0  0  0  0
   12.6177    4.8094    0.0000 O   0  0  0  0  0  0  0  0  0  0  0  0
   13.3322    3.5719    0.0000 C   0  0  0  0  0  0  0  0  0  0  0  0
   14.0467    3.9844    0.0000 C   0  0  0  0  0  0  0  0  0  0  0  0
    4.3461    4.2864    0.0000 H   0  0  0  0  0  0  0  0  0  0  0  0
    4.0441    3.1594    0.0000 H   0  0  0  0  0  0  0  0  0  0  0  0
    5.1711    2.8575    0.0000 H   0  0  0  0  0  0  0  0  0  0  0  0
    5.8433    4.7217    0.0000 H   0  0  0  0  0  0  0  0  0  0  0  0
    5.1028    4.7217    0.0000 H   0  0  0  0  0  0  0  0  0  0  0  0
    5.8172    2.8347    0.0000 H   0  0  0  0  0  0  0  0  0  0  0  0
    6.5578    2.8347    0.0000 H   0  0  0  0  0  0  0  0  0  0  0  0
    7.2722    4.7217    0.0000 H   0  0  0  0  0  0  0  0  0  0  0  0
    6.5317    4.7217    0.0000 H   0  0  0  0  0  0  0  0  0  0  0  0
    7.2462    2.8347    0.0000 H   0  0  0  0  0  0  0  0  0  0  0  0
    7.9867    2.8347    0.0000 H   0  0  0  0  0  0  0  0  0  0  0  0
    8.7012    4.7217    0.0000 H   0  0  0  0  0  0  0  0  0  0  0  0
    7.9607    4.7217    0.0000 H   0  0  0  0  0  0  0  0  0  0  0  0
    8.6751    2.8347    0.0000 H   0  0  0  0  0  0  0  0  0  0  0  0
    9.4156    2.8347    0.0000 H   0  0  0  0  0  0  0  0  0  0  0  0
   10.1301    4.7217    0.0000 H   0  0  0  0  0  0  0  0  0  0  0  0
    9.3896    4.7217    0.0000 H   0  0  0  0  0  0  0  0  0  0  0  0
   10.1041    2.8347    0.0000 H   0  0  0  0  0  0  0  0  0  0  0  0
   10.8446    2.8347    0.0000 H   0  0  0  0  0  0  0  0  0  0  0  0
   11.5591    4.7217    0.0000 H   0  0  0  0  0  0  0  0  0  0  0  0
   10.8185    4.7217    0.0000 H   0  0  0  0  0  0  0  0  0  0  0  0
   13.3322    2.7469    0.0000 H   0  0  0  0  0  0  0  0  0  0  0  0
   14.7612    3.5719    0.0000 H   0  0  0  0  0  0  0  0  0  0  0  0
   14.0467    4.8094    0.0000 H   0  0  0  0  0  0  0  0  0  0  0  0
  1  2  1  0  0  0  0
  2  3  1  0  0  0  0
  3  4  1  0  0  0  0
  4  5  1  0  0  0  0
  5  6  1  0  0  0  0
  6  7  1  0  0  0  0
  7  8  1  0  0  0  0
  8  9  1  0  0  0  0
  9 10  1  0  0  0  0
 10 11  1  0  0  0  0
 11 12  1  0  0  0  0
 12 13  2  0  0  0  0
 12 14  1  0  0  0  0
 14 15  2  0  0  0  0
  1 16  1  0  0  0  0
  1 17  1  0  0  0  0
  1 18  1  0  0  0  0
  2 19  1  0  0  0  0
  2 20  1  0  0  0  0
  3 21  1  0  0  0  0
  3 22  1  0  0  0  0
  4 23  1  0  0  0  0
  4 24  1  0  0  0  0
  5 25  1  0  0  0  0
  5 26  1  0  0  0  0
  6 27  1  0  0  0  0
  6 28  1  0  0  0  0
  7 29  1  0  0  0  0
  7 30  1  0  0  0  0
  8 31  1  0  0  0  0
  8 32  1  0  0  0  0
  9 33  1  0  0  0  0
  9 34  1  0  0  0  0
 10 35  1  0  0  0  0
 10 36  1  0  0  0  0
 14 37  1  0  0  0  0
 15 38  1  0  0  0  0
 15 39  1  0  0  0  0
M  END
>  <InChIKey>
InChI=1S/C13H24O2/c1-3-5-6-7-8-9-10-11-12-15-13(14)4-2/h4H,2-3,5-12H2,1H3

>  <CASRN>
2156-96-9

> <Outcome>
1

>  <Index>
1515

>  <StandardizerResult>
Clear Stereo (ID: ClearStereo)
Wedge Clean (ID: WedgeClean)
Mesomerize (ID: Mesomerize)
Tautomerize (ID: Tautomerize)
Add Explicit Hydrogens (ID: AddExplicitH)
Neutralize (ID: Neutralize)
Clean 2D (ID: Clean2D)

> <knn Distance>


> <CpId>
1515

$$$$
1516
  Mrv1532301301811342D          

 15 14  0  0  0  0            999 V2000
   -0.1913    0.7134    0.0000 C   0  0  0  0  0  0  0  0  0  0  0  0
    0.5232    1.1259    0.0000 C   0  0  0  0  0  0  0  0  0  0  0  0
    0.5232    1.9509    0.0000 O   0  0  0  0  0  0  0  0  0  0  0  0
    1.2376    0.7134    0.0000 O   0  0  0  0  0  0  0  0  0  0  0  0
    1.9521    1.1259    0.0000 C   0  0  0  0  0  0  0  0  0  0  0  0
    2.6666    0.7134    0.0000 C   0  0  0  0  0  0  0  0  0  0  0  0
    3.3810    1.1259    0.0000 C   0  0  0  0  0  0  0  0  0  0  0  0
   -0.6038    1.4279    0.0000 H   0  0  0  0  0  0  0  0  0  0  0  0
   -0.9058    0.3009    0.0000 H   0  0  0  0  0  0  0  0  0  0  0  0
    0.2212   -0.0011    0.0000 H   0  0  0  0  0  0  0  0  0  0  0  0
    2.3224    1.8631    0.0000 H   0  0  0  0  0  0  0  0  0  0  0  0
    1.5818    1.8631    0.0000 H   0  0  0  0  0  0  0  0  0  0  0  0
    2.6666   -0.1116    0.0000 H   0  0  0  0  0  0  0  0  0  0  0  0
    4.0955    0.7134    0.0000 H   0  0  0  0  0  0  0  0  0  0  0  0
    3.3810    1.9509    0.0000 H   0  0  0  0  0  0  0  0  0  0  0  0
  1  2  1  0  0  0  0
  2  3  2  0  0  0  0
  2  4  1  0  0  0  0
  4  5  1  0  0  0  0
  5  6  1  0  0  0  0
  6  7  2  0  0  0  0
  1  8  1  0  0  0  0
  1  9  1  0  0  0  0
  1 10  1  0  0  0  0
  5 11  1  0  0  0  0
  5 12  1  0  0  0  0
  6 13  1  0  0  0  0
  7 14  1  0  0  0  0
  7 15  1  0  0  0  0
M  END
>  <InChIKey>
InChI=1S/C5H8O2/c1-3-4-7-5(2)6/h3H,1,4H2,2H3

>  <CASRN>
591-87-7

> <Outcome>
1

>  <Index>
1516

>  <StandardizerResult>
Clear Stereo (ID: ClearStereo)
Wedge Clean (ID: WedgeClean)
Mesomerize (ID: Mesomerize)
Tautomerize (ID: Tautomerize)
Add Explicit Hydrogens (ID: AddExplicitH)
Neutralize (ID: Neutralize)
Clean 2D (ID: Clean2D)

> <knn Distance>


> <CpId>
1516

$$$$
1520
  Mrv1532301301811342D          

 16 16  0  0  0  0            999 V2000
   -0.0000    2.4750    0.0000 O   0  0  0  0  0  0  0  0  0  0  0  0
    0.7145    2.0625    0.0000 N   0  0  0  0  0  0  0  0  0  0  0  0
    1.4289    2.4750    0.0000 O   0  0  0  0  0  0  0  0  0  0  0  0
    0.7145    1.2375    0.0000 C   0  0  0  0  0  0  0  0  0  0  0  0
    1.4289    0.8250    0.0000 C   0  0  0  0  0  0  0  0  0  0  0  0
    1.4289   -0.0000    0.0000 C   0  0  0  0  0  0  0  0  0  0  0  0
    0.7145   -0.4125    0.0000 C   0  0  0  0  0  0  0  0  0  0  0  0
   -0.0000    0.0000    0.0000 C   0  0  0  0  0  0  0  0  0  0  0  0
   -0.0000    0.8250    0.0000 C   0  0  0  0  0  0  0  0  0  0  0  0
    0.7145   -1.2375    0.0000 N   0  0  0  0  0  0  0  0  0  0  0  0
    1.4289   -1.6500    0.0000 O   0  0  0  0  0  0  0  0  0  0  0  0
   -0.0000   -1.6500    0.0000 O   0  0  0  0  0  0  0  0  0  0  0  0
    2.1434    1.2375    0.0000 H   0  0  0  0  0  0  0  0  0  0  0  0
    2.1434   -0.4125    0.0000 H   0  0  0  0  0  0  0  0  0  0  0  0
   -0.7145   -0.4125    0.0000 H   0  0  0  0  0  0  0  0  0  0  0  0
   -0.7145    1.2375    0.0000 H   0  0  0  0  0  0  0  0  0  0  0  0
  1  2  2  0  0  0  0
  2  3  2  0  0  0  0
  2  4  1  0  0  0  0
  4  5  4  0  0  0  0
  5  6  4  0  0  0  0
  6  7  4  0  0  0  0
  7  8  4  0  0  0  0
  8  9  4  0  0  0  0
  4  9  4  0  0  0  0
  7 10  1  0  0  0  0
 10 11  2  0  0  0  0
 10 12  2  0  0  0  0
  5 13  1  0  0  0  0
  6 14  1  0  0  0  0
  8 15  1  0  0  0  0
  9 16  1  0  0  0  0
M  END
>  <InChIKey>
InChI=1S/C6H4N2O4/c9-7(10)5-1-2-6(4-3-5)8(11)12/h1-4H

>  <CASRN>
100-25-4

> <Outcome>
1

>  <Index>
1520

>  <StandardizerResult>
Dearomatize (ID: Dearomatize)
Clear Stereo (ID: ClearStereo)
Wedge Clean (ID: WedgeClean)
Mesomerize (ID: Mesomerize)
Tautomerize (ID: Tautomerize)
Aromatize (ID: Aromatize)
Add Explicit Hydrogens (ID: AddExplicitH)
Neutralize (ID: Neutralize)
Clean 2D (ID: Clean2D)

> <knn Distance>


> <CpId>
1520

$$$$
1525
  Mrv1532301301811342D          

  9  8  0  0  0  0            999 V2000
    2.0635   -0.7128    0.0000 C   0  0  0  0  0  0  0  0  0  0  0  0
    1.2385   -0.7128    0.0000 C   0  0  0  0  0  0  0  0  0  0  0  0
    0.8260    0.0017    0.0000 N   0  0  0  0  0  0  0  0  0  0  0  0
    0.0010    0.0017    0.0000 O   0  0  0  0  0  0  0  0  0  0  0  0
    2.0635   -1.5378    0.0000 H   0  0  0  0  0  0  0  0  0  0  0  0
    2.8885   -0.7128    0.0000 H   0  0  0  0  0  0  0  0  0  0  0  0
    2.0635    0.1122    0.0000 H   0  0  0  0  0  0  0  0  0  0  0  0
    0.5492   -1.1661    0.0000 H   0  0  0  0  0  0  0  0  0  0  0  0
    1.1905   -1.5364    0.0000 H   0  0  0  0  0  0  0  0  0  0  0  0
  1  2  1  0  0  0  0
  2  3  1  0  0  0  0
  3  4  2  0  0  0  0
  1  5  1  0  0  0  0
  1  6  1  0  0  0  0
  1  7  1  0  0  0  0
  2  8  1  0  0  0  0
  2  9  1  0  0  0  0
M  END
>  <InChIKey>
InChI=1S/C2H5NO/c1-2-3-4/h2H2,1H3

>  <CASRN>
107-29-9

> <Outcome>
1

>  <Index>
1525

>  <StandardizerResult>
Clear Stereo (ID: ClearStereo)
Wedge Clean (ID: WedgeClean)
Mesomerize (ID: Mesomerize)
Tautomerize (ID: Tautomerize)
Add Explicit Hydrogens (ID: AddExplicitH)
Neutralize (ID: Neutralize)
Clean 2D (ID: Clean2D)

> <knn Distance>


> <CpId>
1525

$$$$
1527
  Mrv1532301301811342D          

 31 31  0  0  0  0            999 V2000
    1.4284    3.2440    0.0000 C   0  0  0  0  0  0  0  0  0  0  0  0
    1.4284    2.4190    0.0000 C   0  0  0  0  0  0  0  0  0  0  0  0
    0.7140    2.0065    0.0000 N   0  0  0  0  0  0  0  0  0  0  0  0
    0.7140    1.1815    0.0000 C   0  0  0  0  0  0  0  0  0  0  0  0
    1.4284    0.7690    0.0000 N   0  0  0  0  0  0  0  0  0  0  0  0
    1.4284   -0.0560    0.0000 C   0  0  0  0  0  0  0  0  0  0  0  0
    2.1429   -0.4685    0.0000 Cl  0  0  0  0  0  0  0  0  0  0  0  0
    0.7140   -0.4685    0.0000 N   0  0  0  0  0  0  0  0  0  0  0  0
   -0.0005   -0.0560    0.0000 C   0  0  0  0  0  0  0  0  0  0  0  0
   -0.7150   -0.4685    0.0000 N   0  0  0  0  0  0  0  0  0  0  0  0
   -0.7150   -1.2935    0.0000 C   0  0  0  0  0  0  0  0  0  0  0  0
   -0.7150   -2.1185    0.0000 C   0  0  0  0  0  0  0  0  0  0  0  0
   -1.5400   -1.2935    0.0000 C   0  0  0  0  0  0  0  0  0  0  0  0
    0.1100   -1.2935    0.0000 C   0  0  0  0  0  0  0  0  0  0  0  0
   -0.0005    0.7690    0.0000 N   0  0  0  0  0  0  0  0  0  0  0  0
    2.2534    3.2440    0.0000 H   0  0  0  0  0  0  0  0  0  0  0  0
    1.4284    4.0690    0.0000 H   0  0  0  0  0  0  0  0  0  0  0  0
    0.6034    3.2440    0.0000 H   0  0  0  0  0  0  0  0  0  0  0  0
    1.8818    1.7297    0.0000 H   0  0  0  0  0  0  0  0  0  0  0  0
    2.2520    2.3710    0.0000 H   0  0  0  0  0  0  0  0  0  0  0  0
   -0.0005    2.4190    0.0000 H   0  0  0  0  0  0  0  0  0  0  0  0
   -1.4295   -0.0560    0.0000 H   0  0  0  0  0  0  0  0  0  0  0  0
   -1.5400   -2.1185    0.0000 H   0  0  0  0  0  0  0  0  0  0  0  0
   -0.7150   -2.9435    0.0000 H   0  0  0  0  0  0  0  0  0  0  0  0
    0.1100   -2.1185    0.0000 H   0  0  0  0  0  0  0  0  0  0  0  0
   -1.2243   -0.5313    0.0000 H   0  0  0  0  0  0  0  0  0  0  0  0
   -2.1233   -0.7101    0.0000 H   0  0  0  0  0  0  0  0  0  0  0  0
   -2.3022   -1.6092    0.0000 H   0  0  0  0  0  0  0  0  0  0  0  0
    0.8722   -1.6092    0.0000 H   0  0  0  0  0  0  0  0  0  0  0  0
    0.6934   -0.7101    0.0000 H   0  0  0  0  0  0  0  0  0  0  0  0
   -0.2057   -0.5313    0.0000 H   0  0  0  0  0  0  0  0  0  0  0  0
  1  2  1  0  0  0  0
  2  3  1  0  0  0  0
  3  4  1  0  0  0  0
  4  5  4  0  0  0  0
  5  6  4  0  0  0  0
  6  7  1  0  0  0  0
  6  8  4  0  0  0  0
  8  9  4  0  0  0  0
  9 10  1  0  0  0  0
 10 11  1  0  0  0  0
 11 12  1  0  0  0  0
 11 13  1  0  0  0  0
 11 14  1  0  0  0  0
  9 15  4  0  0  0  0
  4 15  4  0  0  0  0
  1 16  1  0  0  0  0
  1 17  1  0  0  0  0
  1 18  1  0  0  0  0
  2 19  1  0  0  0  0
  2 20  1  0  0  0  0
  3 21  1  0  0  0  0
 10 22  1  0  0  0  0
 12 23  1  0  0  0  0
 12 24  1  0  0  0  0
 12 25  1  0  0  0  0
 13 26  1  0  0  0  0
 13 27  1  0  0  0  0
 13 28  1  0  0  0  0
 14 29  1  0  0  0  0
 14 30  1  0  0  0  0
 14 31  1  0  0  0  0
M  END
>  <InChIKey>
InChI=1S/C9H16ClN5/c1-5-11-7-12-6(10)13-8(14-7)15-9(2,3)4/h5H2,1-4H3,(H2,11,12,13,14,15)

>  <CASRN>
5915-41-3

> <Outcome>
1

>  <Index>
1527

>  <StandardizerResult>
Dearomatize (ID: Dearomatize)
Clear Stereo (ID: ClearStereo)
Wedge Clean (ID: WedgeClean)
Mesomerize (ID: Mesomerize)
Tautomerize (ID: Tautomerize)
Aromatize (ID: Aromatize)
Add Explicit Hydrogens (ID: AddExplicitH)
Neutralize (ID: Neutralize)
Clean 2D (ID: Clean2D)

> <knn Distance>


> <CpId>
1527

$$$$
1528
  Mrv1532301301811342D          

109113  0  0  0  0            999 V2000
   -1.8717   -1.5651    0.0000 C   0  0  0  0  0  0  0  0  0  0  0  0
   -2.4237   -0.9520    0.0000 C   0  0  0  0  0  0  0  0  0  0  0  0
   -2.1688   -0.1674    0.0000 C   0  0  0  0  0  0  0  0  0  0  0  0
   -2.0826    0.6531    0.0000 C   0  0  0  0  0  0  0  0  0  0  0  0
   -1.2756    0.8246    0.0000 C   0  0  0  0  0  0  0  0  0  0  0  0
   -0.8631    0.1102    0.0000 C   0  0  0  0  0  0  0  0  0  0  0  0
   -1.4151   -0.5029    0.0000 O   0  0  0  0  0  0  0  0  0  0  0  0
   -0.0426    0.0239    0.0000 C   0  0  0  0  0  0  0  0  0  0  0  0
   -0.2141   -0.7830    0.0000 C   0  0  0  0  0  0  0  0  0  0  0  0
   -0.0426    0.8489    0.0000 C   0  0  0  0  0  0  0  0  0  0  0  0
    0.7420    1.1039    0.0000 C   0  0  0  0  0  0  0  0  0  0  0  0
    1.2269    0.4364    0.0000 C   0  0  0  0  0  0  0  0  0  0  0  0
    1.6394    1.1509    0.0000 C   0  0  0  0  0  0  0  0  0  0  0  0
    2.4644    1.1509    0.0000 C   0  0  0  0  0  0  0  0  0  0  0  0
    2.8769    1.8654    0.0000 O   0  0  0  0  0  0  0  0  0  0  0  0
    2.8769    0.4364    0.0000 C   0  0  0  0  0  0  0  0  0  0  0  0
    3.7019    0.4364    0.0000 C   0  0  0  0  0  0  0  0  0  0  0  0
    2.4644   -0.2780    0.0000 C   0  0  0  0  0  0  0  0  0  0  0  0
    1.6394   -0.2780    0.0000 O   0  0  0  0  0  0  0  0  0  0  0  0
    2.8769   -0.9925    0.0000 C   0  0  0  0  0  0  0  0  0  0  0  0
    2.4644   -1.7070    0.0000 C   0  0  0  0  0  0  0  0  0  0  0  0
    3.7019   -0.9925    0.0000 C   0  0  0  0  0  0  0  0  0  0  0  0
    4.1144   -0.2780    0.0000 O   0  0  0  0  0  0  0  0  0  0  0  0
    4.9394   -0.2780    0.0000 C   0  0  0  0  0  0  0  0  0  0  0  0
    4.1144   -1.7070    0.0000 C   0  0  0  0  0  0  0  0  0  0  0  0
    3.7019   -2.4215    0.0000 C   0  0  0  0  0  0  0  0  0  0  0  0
    4.9394   -1.7070    0.0000 C   0  0  0  0  0  0  0  0  0  0  0  0
    5.3519   -2.4215    0.0000 O   0  0  0  0  0  0  0  0  0  0  0  0
    5.3519   -0.9925    0.0000 O   0  0  0  0  0  0  0  0  0  0  0  0
    0.7420   -0.2310    0.0000 O   0  0  0  0  0  0  0  0  0  0  0  0
   -2.9758    0.0042    0.0000 C   0  0  0  0  0  0  0  0  0  0  0  0
   -3.5889   -0.5479    0.0000 O   0  0  0  0  0  0  0  0  0  0  0  0
   -4.3033   -0.1354    0.0000 C   0  0  0  0  0  0  0  0  0  0  0  0
   -4.1318    0.6716    0.0000 C   0  0  0  0  0  0  0  0  0  0  0  0
   -3.3113    0.7578    0.0000 C   0  0  0  0  0  0  0  0  0  0  0  0
   -2.8988    1.4723    0.0000 C   0  0  0  0  0  0  0  0  0  0  0  0
   -5.0570   -0.4709    0.0000 C   0  0  0  0  0  0  0  0  0  0  0  0
   -5.1433   -1.2914    0.0000 O   0  0  0  0  0  0  0  0  0  0  0  0
   -5.8969   -1.6270    0.0000 C   0  0  0  0  0  0  0  0  0  0  0  0
   -5.4356   -2.3109    0.0000 O   0  0  0  0  0  0  0  0  0  0  0  0
   -6.4904   -2.2001    0.0000 C   0  0  0  0  0  0  0  0  0  0  0  0
   -6.2908   -3.0006    0.0000 O   0  0  0  0  0  0  0  0  0  0  0  0
   -6.5644   -1.1420    0.0000 C   0  0  0  0  0  0  0  0  0  0  0  0
   -7.3180   -1.4776    0.0000 C   0  0  0  0  0  0  0  0  0  0  0  0
   -6.4781   -0.3216    0.0000 C   0  0  0  0  0  0  0  0  0  0  0  0
   -5.7245    0.0140    0.0000 C   0  0  0  0  0  0  0  0  0  0  0  0
   -5.6382    0.8345    0.0000 C   0  0  0  0  0  0  0  0  0  0  0  0
   -2.4848   -2.1171    0.0000 H   0  0  0  0  0  0  0  0  0  0  0  0
   -1.3197   -2.1782    0.0000 H   0  0  0  0  0  0  0  0  0  0  0  0
   -1.2586   -1.0131    0.0000 H   0  0  0  0  0  0  0  0  0  0  0  0
   -3.2219   -0.7431    0.0000 H   0  0  0  0  0  0  0  0  0  0  0  0
   -3.0679   -1.4674    0.0000 H   0  0  0  0  0  0  0  0  0  0  0  0
   -2.3647    1.4284    0.0000 H   0  0  0  0  0  0  0  0  0  0  0  0
   -2.8831    0.8527    0.0000 H   0  0  0  0  0  0  0  0  0  0  0  0
   -0.6255    1.3326    0.0000 H   0  0  0  0  0  0  0  0  0  0  0  0
   -1.3332    1.6476    0.0000 H   0  0  0  0  0  0  0  0  0  0  0  0
   -0.5674   -0.6600    0.0000 H   0  0  0  0  0  0  0  0  0  0  0  0
   -0.7433   -1.4160    0.0000 H   0  0  0  0  0  0  0  0  0  0  0  0
    0.1909   -1.5018    0.0000 H   0  0  0  0  0  0  0  0  0  0  0  0
    0.6014   -0.6582    0.0000 H   0  0  0  0  0  0  0  0  0  0  0  0
   -0.7894    0.4982    0.0000 H   0  0  0  0  0  0  0  0  0  0  0  0
    0.1126    1.6592    0.0000 H   0  0  0  0  0  0  0  0  0  0  0  0
    1.0135    1.8829    0.0000 H   0  0  0  0  0  0  0  0  0  0  0  0
    0.4871    0.3192    0.0000 H   0  0  0  0  0  0  0  0  0  0  0  0
    1.9846    1.9002    0.0000 H   0  0  0  0  0  0  0  0  0  0  0  0
    2.0519    0.4364    0.0000 H   0  0  0  0  0  0  0  0  0  0  0  0
    3.2894    1.1509    0.0000 H   0  0  0  0  0  0  0  0  0  0  0  0
    3.3033    2.5717    0.0000 H   0  0  0  0  0  0  0  0  0  0  0  0
    3.2894   -0.2780    0.0000 H   0  0  0  0  0  0  0  0  0  0  0  0
    4.4988    0.2229    0.0000 H   0  0  0  0  0  0  0  0  0  0  0  0
    4.4164    0.8489    0.0000 H   0  0  0  0  0  0  0  0  0  0  0  0
    3.9154    1.2333    0.0000 H   0  0  0  0  0  0  0  0  0  0  0  0
    2.0519   -0.9925    0.0000 H   0  0  0  0  0  0  0  0  0  0  0  0
    3.2894   -1.7070    0.0000 H   0  0  0  0  0  0  0  0  0  0  0  0
    1.6394   -1.7070    0.0000 H   0  0  0  0  0  0  0  0  0  0  0  0
    2.0519   -2.4215    0.0000 H   0  0  0  0  0  0  0  0  0  0  0  0
    2.8769   -2.4215    0.0000 H   0  0  0  0  0  0  0  0  0  0  0  0
    4.5269   -0.9925    0.0000 H   0  0  0  0  0  0  0  0  0  0  0  0
    5.7459   -0.4519    0.0000 H   0  0  0  0  0  0  0  0  0  0  0  0
    5.6097    0.2030    0.0000 H   0  0  0  0  0  0  0  0  0  0  0  0
    5.0328    0.5417    0.0000 H   0  0  0  0  0  0  0  0  0  0  0  0
    4.5269   -2.4215    0.0000 H   0  0  0  0  0  0  0  0  0  0  0  0
    3.1186   -3.0048    0.0000 H   0  0  0  0  0  0  0  0  0  0  0  0
    3.7019   -3.2465    0.0000 H   0  0  0  0  0  0  0  0  0  0  0  0
    4.2853   -3.0048    0.0000 H   0  0  0  0  0  0  0  0  0  0  0  0
    6.0664   -2.8340    0.0000 H   0  0  0  0  0  0  0  0  0  0  0  0
   -2.3073    0.4877    0.0000 H   0  0  0  0  0  0  0  0  0  0  0  0
   -4.9445    0.3838    0.0000 H   0  0  0  0  0  0  0  0  0  0  0  0
   -4.0063    1.4870    0.0000 H   0  0  0  0  0  0  0  0  0  0  0  0
   -4.5961    1.3535    0.0000 H   0  0  0  0  0  0  0  0  0  0  0  0
   -3.7607    1.4497    0.0000 H   0  0  0  0  0  0  0  0  0  0  0  0
   -2.2843    2.0227    0.0000 H   0  0  0  0  0  0  0  0  0  0  0  0
   -2.8758    2.2970    0.0000 H   0  0  0  0  0  0  0  0  0  0  0  0
   -3.4817    2.0562    0.0000 H   0  0  0  0  0  0  0  0  0  0  0  0
   -4.3896   -0.9559    0.0000 H   0  0  0  0  0  0  0  0  0  0  0  0
   -5.7973   -3.0524    0.0000 H   0  0  0  0  0  0  0  0  0  0  0  0
   -7.0970   -1.6409    0.0000 H   0  0  0  0  0  0  0  0  0  0  0  0
   -7.3011   -2.3528    0.0000 H   0  0  0  0  0  0  0  0  0  0  0  0
   -6.8321   -3.6232    0.0000 H   0  0  0  0  0  0  0  0  0  0  0  0
   -7.2318   -0.6571    0.0000 H   0  0  0  0  0  0  0  0  0  0  0  0
   -7.8569   -0.8529    0.0000 H   0  0  0  0  0  0  0  0  0  0  0  0
   -8.1423   -1.4424    0.0000 H   0  0  0  0  0  0  0  0  0  0  0  0
   -7.9082   -2.0541    0.0000 H   0  0  0  0  0  0  0  0  0  0  0  0
   -6.5357    0.5014    0.0000 H   0  0  0  0  0  0  0  0  0  0  0  0
   -7.0512    0.2719    0.0000 H   0  0  0  0  0  0  0  0  0  0  0  0
   -5.8107   -0.8065    0.0000 H   0  0  0  0  0  0  0  0  0  0  0  0
   -4.8926    1.1875    0.0000 H   0  0  0  0  0  0  0  0  0  0  0  0
   -5.5473    1.6545    0.0000 H   0  0  0  0  0  0  0  0  0  0  0  0
   -6.2885    1.3422    0.0000 H   0  0  0  0  0  0  0  0  0  0  0  0
  1  2  1  0  0  0  0
  2  3  1  0  0  0  0
  3  4  1  0  0  0  0
  4  5  1  0  0  0  0
  5  6  1  0  0  0  0
  6  7  1  0  0  0  0
  3  7  1  0  0  0  0
  6  8  1  0  0  0  0
  8  9  1  0  0  0  0
  8 10  1  0  0  0  0
 10 11  1  0  0  0  0
 11 12  1  0  0  0  0
 12 13  1  0  0  0  0
 13 14  1  0  0  0  0
 14 15  1  0  0  0  0
 14 16  1  0  0  0  0
 16 17  1  0  0  0  0
 16 18  1  0  0  0  0
 18 19  1  0  0  0  0
 12 19  1  0  0  0  0
 18 20  1  0  0  0  0
 20 21  1  0  0  0  0
 20 22  1  0  0  0  0
 22 23  1  0  0  0  0
 23 24  1  0  0  0  0
 22 25  1  0  0  0  0
 25 26  1  0  0  0  0
 25 27  1  0  0  0  0
 27 28  1  0  0  0  0
 27 29  2  0  0  0  0
 12 30  1  0  0  0  0
  8 30  1  0  0  0  0
  3 31  1  0  0  0  0
 31 32  1  0  0  0  0
 32 33  1  0  0  0  0
 33 34  1  0  0  0  0
 34 35  1  0  0  0  0
 31 35  1  0  0  0  0
 35 36  1  0  0  0  0
 33 37  1  0  0  0  0
 37 38  1  0  0  0  0
 38 39  1  0  0  0  0
 39 40  1  0  0  0  0
 39 41  1  0  0  0  0
 41 42  1  0  0  0  0
 39 43  1  0  0  0  0
 43 44  1  0  0  0  0
 43 45  1  0  0  0  0
 45 46  1  0  0  0  0
 37 46  1  0  0  0  0
 46 47  1  0  0  0  0
  1 48  1  0  0  0  0
  1 49  1  0  0  0  0
  1 50  1  0  0  0  0
  2 51  1  0  0  0  0
  2 52  1  0  0  0  0
  4 53  1  0  0  0  0
  4 54  1  0  0  0  0
  5 55  1  0  0  0  0
  5 56  1  0  0  0  0
  6 57  1  0  0  0  0
  9 58  1  0  0  0  0
  9 59  1  0  0  0  0
  9 60  1  0  0  0  0
 10 61  1  0  0  0  0
 10 62  1  0  0  0  0
 11 63  1  0  0  0  0
 11 64  1  0  0  0  0
 13 65  1  0  0  0  0
 13 66  1  0  0  0  0
 14 67  1  0  0  0  0
 15 68  1  0  0  0  0
 16 69  1  0  0  0  0
 17 70  1  0  0  0  0
 17 71  1  0  0  0  0
 17 72  1  0  0  0  0
 18 73  1  0  0  0  0
 20 74  1  0  0  0  0
 21 75  1  0  0  0  0
 21 76  1  0  0  0  0
 21 77  1  0  0  0  0
 22 78  1  0  0  0  0
 24 79  1  0  0  0  0
 24 80  1  0  0  0  0
 24 81  1  0  0  0  0
 25 82  1  0  0  0  0
 26 83  1  0  0  0  0
 26 84  1  0  0  0  0
 26 85  1  0  0  0  0
 28 86  1  0  0  0  0
 31 87  1  0  0  0  0
 33 88  1  0  0  0  0
 34 89  1  0  0  0  0
 34 90  1  0  0  0  0
 35 91  1  0  0  0  0
 36 92  1  0  0  0  0
 36 93  1  0  0  0  0
 36 94  1  0  0  0  0
 37 95  1  0  0  0  0
 40 96  1  0  0  0  0
 41 97  1  0  0  0  0
 41 98  1  0  0  0  0
 42 99  1  0  0  0  0
 43100  1  0  0  0  0
 44101  1  0  0  0  0
 44102  1  0  0  0  0
 44103  1  0  0  0  0
 45104  1  0  0  0  0
 45105  1  0  0  0  0
 46106  1  0  0  0  0
 47107  1  0  0  0  0
 47108  1  0  0  0  0
 47109  1  0  0  0  0
M  END
>  <InChIKey>
InChI=1S/C36H62O11/c1-10-34(31-20(3)16-26(43-31)28-19(2)15-21(4)36(41,18-37)46-28)12-11-27(44-34)33(8)13-14-35(47-33)17-25(38)22(5)30(45-35)23(6)29(42-9)24(7)32(39)40/h19-31,37-38,41H,10-18H2,1-9H3,(H,39,40)

>  <CASRN>
17090-79-8

> <Outcome>
1

>  <Index>
1528

>  <StandardizerResult>
Clear Stereo (ID: ClearStereo)
Wedge Clean (ID: WedgeClean)
Mesomerize (ID: Mesomerize)
Tautomerize (ID: Tautomerize)
Add Explicit Hydrogens (ID: AddExplicitH)
Neutralize (ID: Neutralize)
Clean 2D (ID: Clean2D)

> <knn Distance>


> <CpId>
1528

$$$$
1531
  Mrv1532301301811342D          

 15 14  0  0  0  0            999 V2000
   -0.1913    0.7134    0.0000 C   0  0  0  0  0  0  0  0  0  0  0  0
    0.5231    1.1259    0.0000 C   0  0  0  0  0  0  0  0  0  0  0  0
    1.2376    0.7134    0.0000 S   0  0  0  0  0  0  0  0  0  0  0  0
    1.9521    1.1259    0.0000 C   0  0  0  0  0  0  0  0  0  0  0  0
    2.6665    0.7134    0.0000 C   0  0  0  0  0  0  0  0  0  0  0  0
    3.3810    1.1259    0.0000 Cl  0  0  0  0  0  0  0  0  0  0  0  0
   -0.6038    1.4279    0.0000 H   0  0  0  0  0  0  0  0  0  0  0  0
   -0.9058    0.3009    0.0000 H   0  0  0  0  0  0  0  0  0  0  0  0
    0.2212   -0.0011    0.0000 H   0  0  0  0  0  0  0  0  0  0  0  0
    0.8934    1.8631    0.0000 H   0  0  0  0  0  0  0  0  0  0  0  0
    0.1529    1.8631    0.0000 H   0  0  0  0  0  0  0  0  0  0  0  0
    2.3223    1.8631    0.0000 H   0  0  0  0  0  0  0  0  0  0  0  0
    1.5818    1.8631    0.0000 H   0  0  0  0  0  0  0  0  0  0  0  0
    2.2963   -0.0239    0.0000 H   0  0  0  0  0  0  0  0  0  0  0  0
    3.0368   -0.0239    0.0000 H   0  0  0  0  0  0  0  0  0  0  0  0
  1  2  1  0  0  0  0
  2  3  1  0  0  0  0
  3  4  1  0  0  0  0
  4  5  1  0  0  0  0
  5  6  1  0  0  0  0
  1  7  1  0  0  0  0
  1  8  1  0  0  0  0
  1  9  1  0  0  0  0
  2 10  1  0  0  0  0
  2 11  1  0  0  0  0
  4 12  1  0  0  0  0
  4 13  1  0  0  0  0
  5 14  1  0  0  0  0
  5 15  1  0  0  0  0
M  END
>  <InChIKey>
InChI=1S/C4H9ClS/c1-2-6-4-3-5/h2-4H2,1H3

>  <CASRN>
693-07-2

> <Outcome>
1

>  <Index>
1531

>  <StandardizerResult>
Clear Stereo (ID: ClearStereo)
Wedge Clean (ID: WedgeClean)
Mesomerize (ID: Mesomerize)
Tautomerize (ID: Tautomerize)
Add Explicit Hydrogens (ID: AddExplicitH)
Neutralize (ID: Neutralize)
Clean 2D (ID: Clean2D)

> <knn Distance>


> <CpId>
1531

$$$$
1547
  Mrv1532301301811342D          

 21 20  0  0  0  0            999 V2000
   -0.5832   -2.4393    0.0000 C   0  0  0  0  0  0  0  0  0  0  0  0
    0.1313   -2.0268    0.0000 C   0  0  0  0  0  0  0  0  0  0  0  0
    0.1313   -1.2018    0.0000 O   0  0  0  0  0  0  0  0  0  0  0  0
    0.8458   -0.7893    0.0000 C   0  0  0  0  0  0  0  0  0  0  0  0
    1.5602   -1.2018    0.0000 O   0  0  0  0  0  0  0  0  0  0  0  0
    0.8458    0.0357    0.0000 C   0  0  0  0  0  0  0  0  0  0  0  0
    0.8458    0.8607    0.0000 C   0  0  0  0  0  0  0  0  0  0  0  0
    1.6708    0.0357    0.0000 C   0  0  0  0  0  0  0  0  0  0  0  0
    0.0208    0.0357    0.0000 O   0  0  0  0  0  0  0  0  0  0  0  0
   -0.9957   -1.7248    0.0000 H   0  0  0  0  0  0  0  0  0  0  0  0
   -1.2977   -2.8518    0.0000 H   0  0  0  0  0  0  0  0  0  0  0  0
   -0.1707   -3.1538    0.0000 H   0  0  0  0  0  0  0  0  0  0  0  0
    0.5846   -2.7161    0.0000 H   0  0  0  0  0  0  0  0  0  0  0  0
    0.9549   -2.0748    0.0000 H   0  0  0  0  0  0  0  0  0  0  0  0
    1.6708    0.8607    0.0000 H   0  0  0  0  0  0  0  0  0  0  0  0
    0.8458    1.6857    0.0000 H   0  0  0  0  0  0  0  0  0  0  0  0
    0.0208    0.8607    0.0000 H   0  0  0  0  0  0  0  0  0  0  0  0
    1.3550   -0.7265    0.0000 H   0  0  0  0  0  0  0  0  0  0  0  0
    2.2541   -0.5476    0.0000 H   0  0  0  0  0  0  0  0  0  0  0  0
    2.4330    0.3514    0.0000 H   0  0  0  0  0  0  0  0  0  0  0  0
   -0.5626   -0.5476    0.0000 H   0  0  0  0  0  0  0  0  0  0  0  0
  1  2  1  0  0  0  0
  2  3  1  0  0  0  0
  3  4  1  0  0  0  0
  4  5  2  0  0  0  0
  4  6  1  0  0  0  0
  6  7  1  0  0  0  0
  6  8  1  0  0  0  0
  6  9  1  0  0  0  0
  1 10  1  0  0  0  0
  1 11  1  0  0  0  0
  1 12  1  0  0  0  0
  2 13  1  0  0  0  0
  2 14  1  0  0  0  0
  7 15  1  0  0  0  0
  7 16  1  0  0  0  0
  7 17  1  0  0  0  0
  8 18  1  0  0  0  0
  8 19  1  0  0  0  0
  8 20  1  0  0  0  0
  9 21  1  0  0  0  0
M  END
>  <InChIKey>
InChI=1S/C6H12O3/c1-4-9-5(7)6(2,3)8/h8H,4H2,1-3H3

>  <UN GHS>
1

>  <CASRN>
80-55-7

> <Outcome>
1

>  <Index>
1547

>  <StandardizerResult>
Clear Stereo (ID: ClearStereo)
Wedge Clean (ID: WedgeClean)
Mesomerize (ID: Mesomerize)
Tautomerize (ID: Tautomerize)
Add Explicit Hydrogens (ID: AddExplicitH)
Neutralize (ID: Neutralize)
Clean 2D (ID: Clean2D)

> <knn Distance>


> <CpId>
1547

$$$$
1551
  Mrv1532301301811342D          

 19 19  0  0  0  0            999 V2000
   -0.0000    3.3000    0.0000 C   0  0  0  0  0  0  0  0  0  0  0  0
   -0.0000    2.4750    0.0000 C   0  0  0  0  0  0  0  0  0  0  0  0
   -0.7145    2.0625    0.0000 O   0  0  0  0  0  0  0  0  0  0  0  0
    0.7145    2.0625    0.0000 N   0  0  0  0  0  0  0  0  0  0  0  0
    0.7145    1.2375    0.0000 C   0  0  0  0  0  0  0  0  0  0  0  0
    1.4289    0.8250    0.0000 C   0  0  0  0  0  0  0  0  0  0  0  0
    1.4289    0.0000    0.0000 C   0  0  0  0  0  0  0  0  0  0  0  0
    0.7145   -0.4125    0.0000 C   0  0  0  0  0  0  0  0  0  0  0  0
    0.7145   -1.2375    0.0000 Cl  0  0  0  0  0  0  0  0  0  0  0  0
   -0.0000    0.0000    0.0000 C   0  0  0  0  0  0  0  0  0  0  0  0
   -0.0000    0.8250    0.0000 C   0  0  0  0  0  0  0  0  0  0  0  0
    0.8250    3.3000    0.0000 H   0  0  0  0  0  0  0  0  0  0  0  0
   -0.0000    4.1250    0.0000 H   0  0  0  0  0  0  0  0  0  0  0  0
   -0.8250    3.3000    0.0000 H   0  0  0  0  0  0  0  0  0  0  0  0
    1.4289    2.4750    0.0000 H   0  0  0  0  0  0  0  0  0  0  0  0
    2.1434    1.2375    0.0000 H   0  0  0  0  0  0  0  0  0  0  0  0
    2.1434   -0.4125    0.0000 H   0  0  0  0  0  0  0  0  0  0  0  0
   -0.7145   -0.4125    0.0000 H   0  0  0  0  0  0  0  0  0  0  0  0
   -0.7145    1.2375    0.0000 H   0  0  0  0  0  0  0  0  0  0  0  0
  1  2  1  0  0  0  0
  2  3  2  0  0  0  0
  2  4  1  0  0  0  0
  4  5  1  0  0  0  0
  5  6  4  0  0  0  0
  6  7  4  0  0  0  0
  7  8  4  0  0  0  0
  8  9  1  0  0  0  0
  8 10  4  0  0  0  0
 10 11  4  0  0  0  0
  5 11  4  0  0  0  0
  1 12  1  0  0  0  0
  1 13  1  0  0  0  0
  1 14  1  0  0  0  0
  4 15  1  0  0  0  0
  6 16  1  0  0  0  0
  7 17  1  0  0  0  0
 10 18  1  0  0  0  0
 11 19  1  0  0  0  0
M  END
>  <InChIKey>
InChI=1S/C8H8ClNO/c1-6(11)10-8-4-2-7(9)3-5-8/h2-5H,1H3,(H,10,11)

>  <CASRN>
539-03-7

> <Outcome>
1

>  <Index>
1551

>  <StandardizerResult>
Dearomatize (ID: Dearomatize)
Clear Stereo (ID: ClearStereo)
Wedge Clean (ID: WedgeClean)
Mesomerize (ID: Mesomerize)
Tautomerize (ID: Tautomerize)
Aromatize (ID: Aromatize)
Add Explicit Hydrogens (ID: AddExplicitH)
Neutralize (ID: Neutralize)
Clean 2D (ID: Clean2D)

> <knn Distance>


> <CpId>
1551

$$$$
1557
  Mrv1532301301811342D          

 14 15  0  0  0  0            999 V2000
    1.8242    1.1790    0.0000 C   0  0  0  0  0  0  0  0  0  0  0  0
    1.3393    0.5115    0.0000 C   0  0  0  0  0  0  0  0  0  0  0  0
    0.5546    0.7665    0.0000 C   0  0  0  0  0  0  0  0  0  0  0  0
   -0.1598    1.1790    0.0000 O   0  0  0  0  0  0  0  0  0  0  0  0
    0.5546    1.5915    0.0000 C   0  0  0  0  0  0  0  0  0  0  0  0
    1.3393    1.8464    0.0000 C   0  0  0  0  0  0  0  0  0  0  0  0
    2.5526    0.7917    0.0000 H   0  0  0  0  0  0  0  0  0  0  0  0
    2.5526    1.5663    0.0000 H   0  0  0  0  0  0  0  0  0  0  0  0
    1.1960   -0.3009    0.0000 H   0  0  0  0  0  0  0  0  0  0  0  0
    1.9327   -0.0615    0.0000 H   0  0  0  0  0  0  0  0  0  0  0  0
    0.2191    0.0128    0.0000 H   0  0  0  0  0  0  0  0  0  0  0  0
    0.2191    2.3452    0.0000 H   0  0  0  0  0  0  0  0  0  0  0  0
    1.9327    2.4195    0.0000 H   0  0  0  0  0  0  0  0  0  0  0  0
    1.1960    2.6589    0.0000 H   0  0  0  0  0  0  0  0  0  0  0  0
  1  2  1  0  0  0  0
  2  3  1  0  0  0  0
  3  4  1  0  0  0  0
  4  5  1  0  0  0  0
  3  5  1  0  0  0  0
  5  6  1  0  0  0  0
  1  6  1  0  0  0  0
  1  7  1  0  0  0  0
  1  8  1  0  0  0  0
  2  9  1  0  0  0  0
  2 10  1  0  0  0  0
  3 11  1  0  0  0  0
  5 12  1  0  0  0  0
  6 13  1  0  0  0  0
  6 14  1  0  0  0  0
M  END
>  <InChIKey>
InChI=1S/C5H8O/c1-2-4-5(3-1)6-4/h4-5H,1-3H2

>  <CASRN>
285-67-6

> <Outcome>
1

>  <Index>
1557

>  <StandardizerResult>
Clear Stereo (ID: ClearStereo)
Wedge Clean (ID: WedgeClean)
Mesomerize (ID: Mesomerize)
Tautomerize (ID: Tautomerize)
Add Explicit Hydrogens (ID: AddExplicitH)
Neutralize (ID: Neutralize)
Clean 2D (ID: Clean2D)

> <knn Distance>


> <CpId>
1557

$$$$
1559
  Mrv1532301301811342D          

 26 27  0  0  0  0            999 V2000
    1.4289   -1.6500    0.0000 O   0  0  0  0  0  0  0  0  0  0  0  0
    1.4289   -2.4750    0.0000 C   0  0  0  0  0  0  0  0  0  0  0  0
    2.1434   -2.8875    0.0000 C   0  0  0  0  0  0  0  0  0  0  0  0
    2.1434   -3.7125    0.0000 C   0  0  0  0  0  0  0  0  0  0  0  0
    1.4289   -4.1250    0.0000 C   0  0  0  0  0  0  0  0  0  0  0  0
    0.7145   -3.7125    0.0000 C   0  0  0  0  0  0  0  0  0  0  0  0
    0.7145   -2.8875    0.0000 C   0  0  0  0  0  0  0  0  0  0  0  0
    1.4289   -4.9500    0.0000 C   0  0  0  0  0  0  0  0  0  0  0  0
    0.7145   -5.3625    0.0000 O   0  0  0  0  0  0  0  0  0  0  0  0
    2.1434   -5.3625    0.0000 O   0  0  0  0  0  0  0  0  0  0  0  0
    2.1434   -6.1875    0.0000 C   0  0  0  0  0  0  0  0  0  0  0  0
    2.8579   -6.6000    0.0000 C   0  0  0  0  0  0  0  0  0  0  0  0
    2.8579   -7.4250    0.0000 C   0  0  0  0  0  0  0  0  0  0  0  0
    2.1434   -7.8375    0.0000 C   0  0  0  0  0  0  0  0  0  0  0  0
    1.4289   -7.4250    0.0000 C   0  0  0  0  0  0  0  0  0  0  0  0
    1.4289   -6.6000    0.0000 C   0  0  0  0  0  0  0  0  0  0  0  0
    2.1434   -1.2375    0.0000 H   0  0  0  0  0  0  0  0  0  0  0  0
    2.8579   -2.4750    0.0000 H   0  0  0  0  0  0  0  0  0  0  0  0
    2.8579   -4.1250    0.0000 H   0  0  0  0  0  0  0  0  0  0  0  0
   -0.0000   -4.1250    0.0000 H   0  0  0  0  0  0  0  0  0  0  0  0
   -0.0000   -2.4750    0.0000 H   0  0  0  0  0  0  0  0  0  0  0  0
    3.5723   -6.1875    0.0000 H   0  0  0  0  0  0  0  0  0  0  0  0
    3.5723   -7.8375    0.0000 H   0  0  0  0  0  0  0  0  0  0  0  0
    2.1434   -8.6625    0.0000 H   0  0  0  0  0  0  0  0  0  0  0  0
    0.7145   -7.8375    0.0000 H   0  0  0  0  0  0  0  0  0  0  0  0
    0.7145   -6.1875    0.0000 H   0  0  0  0  0  0  0  0  0  0  0  0
  1  2  1  0  0  0  0
  2  3  4  0  0  0  0
  3  4  4  0  0  0  0
  4  5  4  0  0  0  0
  5  6  4  0  0  0  0
  6  7  4  0  0  0  0
  2  7  4  0  0  0  0
  5  8  1  0  0  0  0
  8  9  2  0  0  0  0
  8 10  1  0  0  0  0
 10 11  1  0  0  0  0
 11 12  4  0  0  0  0
 12 13  4  0  0  0  0
 13 14  4  0  0  0  0
 14 15  4  0  0  0  0
 15 16  4  0  0  0  0
 11 16  4  0  0  0  0
  1 17  1  0  0  0  0
  3 18  1  0  0  0  0
  4 19  1  0  0  0  0
  6 20  1  0  0  0  0
  7 21  1  0  0  0  0
 12 22  1  0  0  0  0
 13 23  1  0  0  0  0
 14 24  1  0  0  0  0
 15 25  1  0  0  0  0
 16 26  1  0  0  0  0
M  END
>  <InChIKey>
InChI=1S/C13H10O3/c14-11-8-6-10(7-9-11)13(15)16-12-4-2-1-3-5-12/h1-9,14H

>  <CASRN>
17696-62-7

> <Outcome>
1

>  <Index>
1559

>  <StandardizerResult>
Dearomatize (ID: Dearomatize)
Clear Stereo (ID: ClearStereo)
Wedge Clean (ID: WedgeClean)
Mesomerize (ID: Mesomerize)
Tautomerize (ID: Tautomerize)
Aromatize (ID: Aromatize)
Add Explicit Hydrogens (ID: AddExplicitH)
Neutralize (ID: Neutralize)
Clean 2D (ID: Clean2D)

> <knn Distance>


> <CpId>
1559

$$$$
1564
  Mrv1532301301811342D          

 28 28  0  0  0  0            999 V2000
    0.9959    2.3154    0.0000 C   0  0  0  0  0  0  0  0  0  0  0  0
    0.9959    1.4904    0.0000 C   0  0  0  0  0  0  0  0  0  0  0  0
    1.7581    1.1747    0.0000 O   0  0  0  0  0  0  0  0  0  0  0  0
    2.0738    0.4125    0.0000 C   0  0  0  0  0  0  0  0  0  0  0  0
    2.8988    0.4125    0.0000 C   0  0  0  0  0  0  0  0  0  0  0  0
    1.7581   -0.3497    0.0000 O   0  0  0  0  0  0  0  0  0  0  0  0
    0.9959   -0.6654    0.0000 C   0  0  0  0  0  0  0  0  0  0  0  0
    0.9959   -1.4904    0.0000 C   0  0  0  0  0  0  0  0  0  0  0  0
    0.2337   -0.3497    0.0000 O   0  0  0  0  0  0  0  0  0  0  0  0
   -0.0820    0.4125    0.0000 C   0  0  0  0  0  0  0  0  0  0  0  0
   -0.9070    0.4125    0.0000 C   0  0  0  0  0  0  0  0  0  0  0  0
    0.2337    1.1747    0.0000 O   0  0  0  0  0  0  0  0  0  0  0  0
    1.8209    2.3154    0.0000 H   0  0  0  0  0  0  0  0  0  0  0  0
    0.9959    3.1404    0.0000 H   0  0  0  0  0  0  0  0  0  0  0  0
    0.1709    2.3154    0.0000 H   0  0  0  0  0  0  0  0  0  0  0  0
    0.9959    0.6654    0.0000 H   0  0  0  0  0  0  0  0  0  0  0  0
    1.2488    0.4125    0.0000 H   0  0  0  0  0  0  0  0  0  0  0  0
    2.8988   -0.4125    0.0000 H   0  0  0  0  0  0  0  0  0  0  0  0
    3.7238    0.4125    0.0000 H   0  0  0  0  0  0  0  0  0  0  0  0
    2.8988    1.2375    0.0000 H   0  0  0  0  0  0  0  0  0  0  0  0
    0.9959    0.1596    0.0000 H   0  0  0  0  0  0  0  0  0  0  0  0
    0.1709   -1.4904    0.0000 H   0  0  0  0  0  0  0  0  0  0  0  0
    0.9959   -2.3154    0.0000 H   0  0  0  0  0  0  0  0  0  0  0  0
    1.8209   -1.4904    0.0000 H   0  0  0  0  0  0  0  0  0  0  0  0
    0.7430    0.4125    0.0000 H   0  0  0  0  0  0  0  0  0  0  0  0
   -0.9070    1.2375    0.0000 H   0  0  0  0  0  0  0  0  0  0  0  0
   -1.7320    0.4125    0.0000 H   0  0  0  0  0  0  0  0  0  0  0  0
   -0.9070   -0.4125    0.0000 H   0  0  0  0  0  0  0  0  0  0  0  0
  1  2  1  0  0  0  0
  2  3  1  0  0  0  0
  3  4  1  0  0  0  0
  4  5  1  0  0  0  0
  4  6  1  0  0  0  0
  6  7  1  0  0  0  0
  7  8  1  0  0  0  0
  7  9  1  0  0  0  0
  9 10  1  0  0  0  0
 10 11  1  0  0  0  0
 10 12  1  0  0  0  0
  2 12  1  0  0  0  0
  1 13  1  0  0  0  0
  1 14  1  0  0  0  0
  1 15  1  0  0  0  0
  2 16  1  0  0  0  0
  4 17  1  0  0  0  0
  5 18  1  0  0  0  0
  5 19  1  0  0  0  0
  5 20  1  0  0  0  0
  7 21  1  0  0  0  0
  8 22  1  0  0  0  0
  8 23  1  0  0  0  0
  8 24  1  0  0  0  0
 10 25  1  0  0  0  0
 11 26  1  0  0  0  0
 11 27  1  0  0  0  0
 11 28  1  0  0  0  0
M  END
>  <InChIKey>
InChI=1S/C8H16O4/c1-5-9-6(2)11-8(4)12-7(3)10-5/h5-8H,1-4H3

>  <CASRN>
108-62-3

> <Outcome>
1

>  <Index>
1564

>  <StandardizerResult>
Clear Stereo (ID: ClearStereo)
Wedge Clean (ID: WedgeClean)
Mesomerize (ID: Mesomerize)
Tautomerize (ID: Tautomerize)
Add Explicit Hydrogens (ID: AddExplicitH)
Neutralize (ID: Neutralize)
Clean 2D (ID: Clean2D)

> <knn Distance>


> <CpId>
1564

$$$$
1567
  Mrv1532301301811342D          

 38 38  0  0  0  0            999 V2000
    2.1434   -6.1866    0.0000 C   0  0  0  0  0  0  0  0  0  0  0  0
    2.8579   -6.5991    0.0000 C   0  0  0  0  0  0  0  0  0  0  0  0
    3.5724   -6.1866    0.0000 C   0  0  0  0  0  0  0  0  0  0  0  0
    4.2868   -6.5991    0.0000 C   0  0  0  0  0  0  0  0  0  0  0  0
    5.0013   -6.1866    0.0000 O   0  0  0  0  0  0  0  0  0  0  0  0
    5.7158   -6.5991    0.0000 C   0  0  0  0  0  0  0  0  0  0  0  0
    6.4302   -6.1866    0.0000 C   0  0  0  0  0  0  0  0  0  0  0  0
    7.1447   -6.5991    0.0000 O   0  0  0  0  0  0  0  0  0  0  0  0
    7.8592   -6.1866    0.0000 C   0  0  0  0  0  0  0  0  0  0  0  0
    7.8592   -5.3616    0.0000 O   0  0  0  0  0  0  0  0  0  0  0  0
    8.5737   -6.5991    0.0000 C   0  0  0  0  0  0  0  0  0  0  0  0
    9.2881   -6.1866    0.0000 O   0  0  0  0  0  0  0  0  0  0  0  0
   10.0026   -6.5991    0.0000 C   0  0  0  0  0  0  0  0  0  0  0  0
   10.7171   -6.1866    0.0000 C   0  0  0  0  0  0  0  0  0  0  0  0
   11.4315   -6.5991    0.0000 C   0  0  0  0  0  0  0  0  0  0  0  0
   12.1460   -6.1866    0.0000 Cl  0  0  0  0  0  0  0  0  0  0  0  0
   11.4315   -7.4241    0.0000 C   0  0  0  0  0  0  0  0  0  0  0  0
   12.1460   -7.8366    0.0000 Cl  0  0  0  0  0  0  0  0  0  0  0  0
   10.7171   -7.8366    0.0000 C   0  0  0  0  0  0  0  0  0  0  0  0
   10.0026   -7.4241    0.0000 C   0  0  0  0  0  0  0  0  0  0  0  0
    9.2881   -7.8366    0.0000 Cl  0  0  0  0  0  0  0  0  0  0  0  0
    2.5559   -5.4721    0.0000 H   0  0  0  0  0  0  0  0  0  0  0  0
    1.4290   -5.7741    0.0000 H   0  0  0  0  0  0  0  0  0  0  0  0
    1.7309   -6.9010    0.0000 H   0  0  0  0  0  0  0  0  0  0  0  0
    2.4876   -7.3363    0.0000 H   0  0  0  0  0  0  0  0  0  0  0  0
    3.2282   -7.3363    0.0000 H   0  0  0  0  0  0  0  0  0  0  0  0
    3.9426   -5.4493    0.0000 H   0  0  0  0  0  0  0  0  0  0  0  0
    3.2021   -5.4493    0.0000 H   0  0  0  0  0  0  0  0  0  0  0  0
    3.9166   -7.3363    0.0000 H   0  0  0  0  0  0  0  0  0  0  0  0
    4.6571   -7.3363    0.0000 H   0  0  0  0  0  0  0  0  0  0  0  0
    5.3455   -7.3363    0.0000 H   0  0  0  0  0  0  0  0  0  0  0  0
    6.0860   -7.3363    0.0000 H   0  0  0  0  0  0  0  0  0  0  0  0
    6.8005   -5.4493    0.0000 H   0  0  0  0  0  0  0  0  0  0  0  0
    6.0600   -5.4493    0.0000 H   0  0  0  0  0  0  0  0  0  0  0  0
    8.2034   -7.3363    0.0000 H   0  0  0  0  0  0  0  0  0  0  0  0
    8.9439   -7.3363    0.0000 H   0  0  0  0  0  0  0  0  0  0  0  0
   10.7171   -5.3616    0.0000 H   0  0  0  0  0  0  0  0  0  0  0  0
   10.7171   -8.6616    0.0000 H   0  0  0  0  0  0  0  0  0  0  0  0
  1  2  1  0  0  0  0
  2  3  1  0  0  0  0
  3  4  1  0  0  0  0
  4  5  1  0  0  0  0
  5  6  1  0  0  0  0
  6  7  1  0  0  0  0
  7  8  1  0  0  0  0
  8  9  1  0  0  0  0
  9 10  2  0  0  0  0
  9 11  1  0  0  0  0
 11 12  1  0  0  0  0
 12 13  1  0  0  0  0
 13 14  4  0  0  0  0
 14 15  4  0  0  0  0
 15 16  1  0  0  0  0
 15 17  4  0  0  0  0
 17 18  1  0  0  0  0
 17 19  4  0  0  0  0
 19 20  4  0  0  0  0
 13 20  4  0  0  0  0
 20 21  1  0  0  0  0
  1 22  1  0  0  0  0
  1 23  1  0  0  0  0
  1 24  1  0  0  0  0
  2 25  1  0  0  0  0
  2 26  1  0  0  0  0
  3 27  1  0  0  0  0
  3 28  1  0  0  0  0
  4 29  1  0  0  0  0
  4 30  1  0  0  0  0
  6 31  1  0  0  0  0
  6 32  1  0  0  0  0
  7 33  1  0  0  0  0
  7 34  1  0  0  0  0
 11 35  1  0  0  0  0
 11 36  1  0  0  0  0
 14 37  1  0  0  0  0
 19 38  1  0  0  0  0
M  END
>  <InChIKey>
InChI=1S/C14H17Cl3O4/c1-2-3-4-19-5-6-20-14(18)9-21-13-8-11(16)10(15)7-12(13)17/h7-8H,2-6,9H2,1H3

>  <CASRN>
2545-59-7

> <Outcome>
1

>  <Index>
1567

>  <StandardizerResult>
Dearomatize (ID: Dearomatize)
Clear Stereo (ID: ClearStereo)
Wedge Clean (ID: WedgeClean)
Mesomerize (ID: Mesomerize)
Tautomerize (ID: Tautomerize)
Aromatize (ID: Aromatize)
Add Explicit Hydrogens (ID: AddExplicitH)
Neutralize (ID: Neutralize)
Clean 2D (ID: Clean2D)

> <knn Distance>


> <CpId>
1567

$$$$
1571
  Mrv1532301301811342D          

 48 47  0  0  0  0            999 V2000
    5.9961    4.2864    0.0000 C   0  0  0  0  0  0  0  0  0  0  0  0
    6.7105    4.6989    0.0000 C   0  0  0  0  0  0  0  0  0  0  0  0
    7.4250    4.2864    0.0000 C   0  0  0  0  0  0  0  0  0  0  0  0
    8.1395    4.6989    0.0000 C   0  0  0  0  0  0  0  0  0  0  0  0
    8.8539    4.2864    0.0000 C   0  0  0  0  0  0  0  0  0  0  0  0
    9.5684    4.6989    0.0000 C   0  0  0  0  0  0  0  0  0  0  0  0
   10.2829    4.2864    0.0000 C   0  0  0  0  0  0  0  0  0  0  0  0
   10.9974    4.6989    0.0000 C   0  0  0  0  0  0  0  0  0  0  0  0
   11.7118    4.2864    0.0000 C   0  0  0  0  0  0  0  0  0  0  0  0
   12.4263    4.6989    0.0000 C   0  0  0  0  0  0  0  0  0  0  0  0
   13.1408    4.2864    0.0000 C   0  0  0  0  0  0  0  0  0  0  0  0
   13.8552    4.6989    0.0000 C   0  0  0  0  0  0  0  0  0  0  0  0
   14.5697    4.2864    0.0000 O   0  0  0  0  0  0  0  0  0  0  0  0
   15.2842    4.6989    0.0000 C   0  0  0  0  0  0  0  0  0  0  0  0
   15.2842    5.5239    0.0000 O   0  0  0  0  0  0  0  0  0  0  0  0
   15.9987    4.2864    0.0000 C   0  0  0  0  0  0  0  0  0  0  0  0
   16.7131    4.6989    0.0000 C   0  0  0  0  0  0  0  0  0  0  0  0
   15.9987    3.4614    0.0000 C   0  0  0  0  0  0  0  0  0  0  0  0
    5.5836    5.0009    0.0000 H   0  0  0  0  0  0  0  0  0  0  0  0
    5.2816    3.8739    0.0000 H   0  0  0  0  0  0  0  0  0  0  0  0
    6.4086    3.5720    0.0000 H   0  0  0  0  0  0  0  0  0  0  0  0
    7.0808    5.4362    0.0000 H   0  0  0  0  0  0  0  0  0  0  0  0
    6.3403    5.4362    0.0000 H   0  0  0  0  0  0  0  0  0  0  0  0
    7.0547    3.5492    0.0000 H   0  0  0  0  0  0  0  0  0  0  0  0
    7.7953    3.5492    0.0000 H   0  0  0  0  0  0  0  0  0  0  0  0
    8.5097    5.4362    0.0000 H   0  0  0  0  0  0  0  0  0  0  0  0
    7.7692    5.4362    0.0000 H   0  0  0  0  0  0  0  0  0  0  0  0
    8.4837    3.5492    0.0000 H   0  0  0  0  0  0  0  0  0  0  0  0
    9.2242    3.5492    0.0000 H   0  0  0  0  0  0  0  0  0  0  0  0
    9.9387    5.4362    0.0000 H   0  0  0  0  0  0  0  0  0  0  0  0
    9.1982    5.4362    0.0000 H   0  0  0  0  0  0  0  0  0  0  0  0
    9.9126    3.5492    0.0000 H   0  0  0  0  0  0  0  0  0  0  0  0
   10.6531    3.5492    0.0000 H   0  0  0  0  0  0  0  0  0  0  0  0
   11.3676    5.4362    0.0000 H   0  0  0  0  0  0  0  0  0  0  0  0
   10.6271    5.4362    0.0000 H   0  0  0  0  0  0  0  0  0  0  0  0
   11.3416    3.5492    0.0000 H   0  0  0  0  0  0  0  0  0  0  0  0
   12.0821    3.5492    0.0000 H   0  0  0  0  0  0  0  0  0  0  0  0
   12.7966    5.4362    0.0000 H   0  0  0  0  0  0  0  0  0  0  0  0
   12.0560    5.4362    0.0000 H   0  0  0  0  0  0  0  0  0  0  0  0
   12.7705    3.5492    0.0000 H   0  0  0  0  0  0  0  0  0  0  0  0
   13.5110    3.5492    0.0000 H   0  0  0  0  0  0  0  0  0  0  0  0
   14.2255    5.4362    0.0000 H   0  0  0  0  0  0  0  0  0  0  0  0
   13.4850    5.4362    0.0000 H   0  0  0  0  0  0  0  0  0  0  0  0
   17.1256    3.9845    0.0000 H   0  0  0  0  0  0  0  0  0  0  0  0
   17.4276    5.1114    0.0000 H   0  0  0  0  0  0  0  0  0  0  0  0
   16.3006    5.4134    0.0000 H   0  0  0  0  0  0  0  0  0  0  0  0
   15.2842    3.0489    0.0000 H   0  0  0  0  0  0  0  0  0  0  0  0
   16.7131    3.0489    0.0000 H   0  0  0  0  0  0  0  0  0  0  0  0
  1  2  1  0  0  0  0
  2  3  1  0  0  0  0
  3  4  1  0  0  0  0
  4  5  1  0  0  0  0
  5  6  1  0  0  0  0
  6  7  1  0  0  0  0
  7  8  1  0  0  0  0
  8  9  1  0  0  0  0
  9 10  1  0  0  0  0
 10 11  1  0  0  0  0
 11 12  1  0  0  0  0
 12 13  1  0  0  0  0
 13 14  1  0  0  0  0
 14 15  2  0  0  0  0
 14 16  1  0  0  0  0
 16 17  1  0  0  0  0
 16 18  2  0  0  0  0
  1 19  1  0  0  0  0
  1 20  1  0  0  0  0
  1 21  1  0  0  0  0
  2 22  1  0  0  0  0
  2 23  1  0  0  0  0
  3 24  1  0  0  0  0
  3 25  1  0  0  0  0
  4 26  1  0  0  0  0
  4 27  1  0  0  0  0
  5 28  1  0  0  0  0
  5 29  1  0  0  0  0
  6 30  1  0  0  0  0
  6 31  1  0  0  0  0
  7 32  1  0  0  0  0
  7 33  1  0  0  0  0
  8 34  1  0  0  0  0
  8 35  1  0  0  0  0
  9 36  1  0  0  0  0
  9 37  1  0  0  0  0
 10 38  1  0  0  0  0
 10 39  1  0  0  0  0
 11 40  1  0  0  0  0
 11 41  1  0  0  0  0
 12 42  1  0  0  0  0
 12 43  1  0  0  0  0
 17 44  1  0  0  0  0
 17 45  1  0  0  0  0
 17 46  1  0  0  0  0
 18 47  1  0  0  0  0
 18 48  1  0  0  0  0
M  END
>  <InChIKey>
InChI=1S/C16H30O2/c1-4-5-6-7-8-9-10-11-12-13-14-18-16(17)15(2)3/h2,4-14H2,1,3H3

>  <CASRN>
142-90-5

> <Outcome>
1

>  <Index>
1571

>  <StandardizerResult>
Clear Stereo (ID: ClearStereo)
Wedge Clean (ID: WedgeClean)
Mesomerize (ID: Mesomerize)
Tautomerize (ID: Tautomerize)
Add Explicit Hydrogens (ID: AddExplicitH)
Neutralize (ID: Neutralize)
Clean 2D (ID: Clean2D)

> <knn Distance>


> <CpId>
1571

$$$$
1574
  Mrv1532301301811342D          

  9  8  0  0  0  0            999 V2000
    2.8875   -0.7145    0.0000 Cl  0  0  0  0  0  0  0  0  0  0  0  0
    2.0625   -0.7145    0.0000 C   0  0  0  0  0  0  0  0  0  0  0  0
    1.6500   -0.0000    0.0000 C   0  0  0  0  0  0  0  0  0  0  0  0
    0.8250   -0.0000    0.0000 C   0  0  0  0  0  0  0  0  0  0  0  0
    0.0000   -0.0000    0.0000 N   0  0  0  0  0  0  0  0  0  0  0  0
    1.3732   -1.1678    0.0000 H   0  0  0  0  0  0  0  0  0  0  0  0
    2.0145   -1.5381    0.0000 H   0  0  0  0  0  0  0  0  0  0  0  0
    2.3393    0.4533    0.0000 H   0  0  0  0  0  0  0  0  0  0  0  0
    1.6980    0.8236    0.0000 H   0  0  0  0  0  0  0  0  0  0  0  0
  1  2  1  0  0  0  0
  2  3  1  0  0  0  0
  3  4  1  0  0  0  0
  4  5  3  0  0  0  0
  2  6  1  0  0  0  0
  2  7  1  0  0  0  0
  3  8  1  0  0  0  0
  3  9  1  0  0  0  0
M  END
>  <InChIKey>
InChI=1S/C3H4ClN/c4-2-1-3-5/h1-2H2

>  <UN GHS>
2B

>  <CASRN>
542-76-7

> <Outcome>
1

>  <Index>
1574

>  <StandardizerResult>
Clear Stereo (ID: ClearStereo)
Wedge Clean (ID: WedgeClean)
Mesomerize (ID: Mesomerize)
Tautomerize (ID: Tautomerize)
Add Explicit Hydrogens (ID: AddExplicitH)
Neutralize (ID: Neutralize)
Clean 2D (ID: Clean2D)

> <knn Distance>


> <CpId>
1574

$$$$
1578
  Mrv1532301301811342D          

 10 10  0  0  0  0            999 V2000
    0.3788    1.7468    0.0000 C   0  0  0  0  0  0  0  0  0  0  0  0
    0.3788    0.9218    0.0000 C   0  0  0  0  0  0  0  0  0  0  0  0
    0.7913    0.2073    0.0000 C   0  0  0  0  0  0  0  0  0  0  0  0
   -0.0337    0.2073    0.0000 O   0  0  0  0  0  0  0  0  0  0  0  0
    1.2038    1.7468    0.0000 H   0  0  0  0  0  0  0  0  0  0  0  0
    0.3788    2.5718    0.0000 H   0  0  0  0  0  0  0  0  0  0  0  0
   -0.4462    1.7468    0.0000 H   0  0  0  0  0  0  0  0  0  0  0  0
   -0.4181    1.1353    0.0000 H   0  0  0  0  0  0  0  0  0  0  0  0
    1.1615   -0.5299    0.0000 H   0  0  0  0  0  0  0  0  0  0  0  0
    1.6149    0.2553    0.0000 H   0  0  0  0  0  0  0  0  0  0  0  0
  1  2  1  0  0  0  0
  2  3  1  0  0  0  0
  3  4  1  0  0  0  0
  2  4  1  0  0  0  0
  1  5  1  0  0  0  0
  1  6  1  0  0  0  0
  1  7  1  0  0  0  0
  2  8  1  0  0  0  0
  3  9  1  0  0  0  0
  3 10  1  0  0  0  0
M  END
>  <InChIKey>
InChI=1S/C3H6O/c1-3-2-4-3/h3H,2H2,1H3

>  <CASRN>
75-56-9

> <Outcome>
1

>  <Index>
1578

>  <StandardizerResult>
Clear Stereo (ID: ClearStereo)
Wedge Clean (ID: WedgeClean)
Mesomerize (ID: Mesomerize)
Tautomerize (ID: Tautomerize)
Add Explicit Hydrogens (ID: AddExplicitH)
Neutralize (ID: Neutralize)
Clean 2D (ID: Clean2D)

> <knn Distance>


> <CpId>
1578

$$$$
1580
  Mrv1532301301811342D          

 17 17  0  0  0  0            999 V2000
   -0.0000    2.4750    0.0000 O   0  0  0  0  0  0  0  0  0  0  0  0
    0.7145    2.0625    0.0000 C   0  0  0  0  0  0  0  0  0  0  0  0
    1.4289    2.4750    0.0000 O   0  0  0  0  0  0  0  0  0  0  0  0
    0.7145    1.2375    0.0000 C   0  0  0  0  0  0  0  0  0  0  0  0
    1.4289    0.8250    0.0000 C   0  0  0  0  0  0  0  0  0  0  0  0
    1.4289    0.0000    0.0000 C   0  0  0  0  0  0  0  0  0  0  0  0
    0.7145   -0.4125    0.0000 C   0  0  0  0  0  0  0  0  0  0  0  0
    0.7145   -1.2375    0.0000 C   0  0  0  0  0  0  0  0  0  0  0  0
    1.4289   -1.6500    0.0000 O   0  0  0  0  0  0  0  0  0  0  0  0
   -0.0000    0.0000    0.0000 C   0  0  0  0  0  0  0  0  0  0  0  0
   -0.0000    0.8250    0.0000 C   0  0  0  0  0  0  0  0  0  0  0  0
   -0.0000    3.3000    0.0000 H   0  0  0  0  0  0  0  0  0  0  0  0
    2.1434    1.2375    0.0000 H   0  0  0  0  0  0  0  0  0  0  0  0
    2.1434   -0.4125    0.0000 H   0  0  0  0  0  0  0  0  0  0  0  0
   -0.0000   -1.6500    0.0000 H   0  0  0  0  0  0  0  0  0  0  0  0
   -0.7145   -0.4125    0.0000 H   0  0  0  0  0  0  0  0  0  0  0  0
   -0.7145    1.2375    0.0000 H   0  0  0  0  0  0  0  0  0  0  0  0
  1  2  1  0  0  0  0
  2  3  2  0  0  0  0
  2  4  1  0  0  0  0
  4  5  4  0  0  0  0
  5  6  4  0  0  0  0
  6  7  4  0  0  0  0
  7  8  1  0  0  0  0
  8  9  2  0  0  0  0
  7 10  4  0  0  0  0
 10 11  4  0  0  0  0
  4 11  4  0  0  0  0
  1 12  1  0  0  0  0
  5 13  1  0  0  0  0
  6 14  1  0  0  0  0
  8 15  1  0  0  0  0
 10 16  1  0  0  0  0
 11 17  1  0  0  0  0
M  END
>  <InChIKey>
InChI=1S/C8H6O3/c9-5-6-1-3-7(4-2-6)8(10)11/h1-5H,(H,10,11)

>  <UN GHS>
2A

>  <CASRN>
619-66-9  619-66-9

> <Outcome>
1

>  <Index>
1580

>  <StandardizerResult>
Dearomatize (ID: Dearomatize)
Clear Stereo (ID: ClearStereo)
Wedge Clean (ID: WedgeClean)
Mesomerize (ID: Mesomerize)
Tautomerize (ID: Tautomerize)
Aromatize (ID: Aromatize)
Add Explicit Hydrogens (ID: AddExplicitH)
Neutralize (ID: Neutralize)
Clean 2D (ID: Clean2D)

> <knn Distance>


> <CpId>
1580

$$$$
1581
  Mrv1532301301811342D          

 33 32  0  0  0  0            999 V2000
    2.2551    2.1424    0.0000 C   0  0  0  0  0  0  0  0  0  0  0  0
    2.9696    2.5549    0.0000 C   0  0  0  0  0  0  0  0  0  0  0  0
    3.6841    2.1424    0.0000 C   0  0  0  0  0  0  0  0  0  0  0  0
    4.3985    2.5549    0.0000 C   0  0  0  0  0  0  0  0  0  0  0  0
    5.1130    2.1424    0.0000 C   0  0  0  0  0  0  0  0  0  0  0  0
    5.1130    1.3174    0.0000 C   0  0  0  0  0  0  0  0  0  0  0  0
    5.8275    0.9049    0.0000 C   0  0  0  0  0  0  0  0  0  0  0  0
    5.8275    2.5549    0.0000 C   0  0  0  0  0  0  0  0  0  0  0  0
    6.5419    2.1424    0.0000 O   0  0  0  0  0  0  0  0  0  0  0  0
    7.2564    2.5549    0.0000 C   0  0  0  0  0  0  0  0  0  0  0  0
    7.2564    3.3799    0.0000 O   0  0  0  0  0  0  0  0  0  0  0  0
    7.9709    2.1424    0.0000 C   0  0  0  0  0  0  0  0  0  0  0  0
    8.6853    2.5549    0.0000 C   0  0  0  0  0  0  0  0  0  0  0  0
    1.8426    2.8568    0.0000 H   0  0  0  0  0  0  0  0  0  0  0  0
    1.5406    1.7299    0.0000 H   0  0  0  0  0  0  0  0  0  0  0  0
    2.6676    1.4279    0.0000 H   0  0  0  0  0  0  0  0  0  0  0  0
    3.3398    3.2921    0.0000 H   0  0  0  0  0  0  0  0  0  0  0  0
    2.5993    3.2921    0.0000 H   0  0  0  0  0  0  0  0  0  0  0  0
    3.3138    1.4051    0.0000 H   0  0  0  0  0  0  0  0  0  0  0  0
    4.0543    1.4051    0.0000 H   0  0  0  0  0  0  0  0  0  0  0  0
    4.7688    3.2921    0.0000 H   0  0  0  0  0  0  0  0  0  0  0  0
    4.0283    3.2921    0.0000 H   0  0  0  0  0  0  0  0  0  0  0  0
    4.3985    1.7299    0.0000 H   0  0  0  0  0  0  0  0  0  0  0  0
    4.4810    0.7871    0.0000 H   0  0  0  0  0  0  0  0  0  0  0  0
    4.9697    0.5049    0.0000 H   0  0  0  0  0  0  0  0  0  0  0  0
    5.9884    0.0957    0.0000 H   0  0  0  0  0  0  0  0  0  0  0  0
    6.6517    0.8689    0.0000 H   0  0  0  0  0  0  0  0  0  0  0  0
    6.0583    1.6969    0.0000 H   0  0  0  0  0  0  0  0  0  0  0  0
    6.1977    3.2921    0.0000 H   0  0  0  0  0  0  0  0  0  0  0  0
    5.4572    3.2921    0.0000 H   0  0  0  0  0  0  0  0  0  0  0  0
    7.9709    1.3174    0.0000 H   0  0  0  0  0  0  0  0  0  0  0  0
    9.3998    2.1424    0.0000 H   0  0  0  0  0  0  0  0  0  0  0  0
    8.6853    3.3799    0.0000 H   0  0  0  0  0  0  0  0  0  0  0  0
  1  2  1  0  0  0  0
  2  3  1  0  0  0  0
  3  4  1  0  0  0  0
  4  5  1  0  0  0  0
  5  6  1  0  0  0  0
  6  7  1  0  0  0  0
  5  8  1  0  0  0  0
  8  9  1  0  0  0  0
  9 10  1  0  0  0  0
 10 11  2  0  0  0  0
 10 12  1  0  0  0  0
 12 13  2  0  0  0  0
  1 14  1  0  0  0  0
  1 15  1  0  0  0  0
  1 16  1  0  0  0  0
  2 17  1  0  0  0  0
  2 18  1  0  0  0  0
  3 19  1  0  0  0  0
  3 20  1  0  0  0  0
  4 21  1  0  0  0  0
  4 22  1  0  0  0  0
  5 23  1  0  0  0  0
  6 24  1  0  0  0  0
  6 25  1  0  0  0  0
  7 26  1  0  0  0  0
  7 27  1  0  0  0  0
  7 28  1  0  0  0  0
  8 29  1  0  0  0  0
  8 30  1  0  0  0  0
 12 31  1  0  0  0  0
 13 32  1  0  0  0  0
 13 33  1  0  0  0  0
M  END
>  <InChIKey>
InChI=1S/C11H20O2/c1-4-7-8-10(5-2)9-13-11(12)6-3/h6,10H,3-5,7-9H2,1-2H3

>  <CASRN>
103-11-7

> <Outcome>
1

>  <Index>
1581

>  <StandardizerResult>
Clear Stereo (ID: ClearStereo)
Wedge Clean (ID: WedgeClean)
Mesomerize (ID: Mesomerize)
Tautomerize (ID: Tautomerize)
Add Explicit Hydrogens (ID: AddExplicitH)
Neutralize (ID: Neutralize)
Clean 2D (ID: Clean2D)

> <knn Distance>


> <CpId>
1581

$$$$
1582
  Mrv1532301301811342D          

 63 64  0  0  0  0            999 V2000
    2.8959    0.0335    0.0000 C   0  0  0  0  0  0  0  0  0  0  0  0
    2.1814   -0.3790    0.0000 C   0  0  0  0  0  0  0  0  0  0  0  0
    2.1814   -1.2040    0.0000 C   0  0  0  0  0  0  0  0  0  0  0  0
    1.4670   -1.6165    0.0000 C   0  0  0  0  0  0  0  0  0  0  0  0
    1.4670   -2.4415    0.0000 C   0  0  0  0  0  0  0  0  0  0  0  0
    0.7525   -2.8540    0.0000 C   0  0  0  0  0  0  0  0  0  0  0  0
    0.0380   -2.4415    0.0000 C   0  0  0  0  0  0  0  0  0  0  0  0
   -0.6764   -2.8540    0.0000 C   0  0  0  0  0  0  0  0  0  0  0  0
   -1.3909   -2.4415    0.0000 C   0  0  0  0  0  0  0  0  0  0  0  0
   -2.1054   -2.8540    0.0000 C   0  0  0  0  0  0  0  0  0  0  0  0
   -2.1054   -3.6790    0.0000 C   0  0  0  0  0  0  0  0  0  0  0  0
   -1.3909   -1.6165    0.0000 C   0  0  0  0  0  0  0  0  0  0  0  0
   -0.6764   -1.2040    0.0000 C   0  0  0  0  0  0  0  0  0  0  0  0
    0.0380   -1.6165    0.0000 C   0  0  0  0  0  0  0  0  0  0  0  0
    0.7525   -1.2040    0.0000 O   0  0  0  0  0  0  0  0  0  0  0  0
   -0.6764   -0.3790    0.0000 C   0  0  0  0  0  0  0  0  0  0  0  0
   -0.6764    0.4460    0.0000 C   0  0  0  0  0  0  0  0  0  0  0  0
    0.1486   -0.3790    0.0000 C   0  0  0  0  0  0  0  0  0  0  0  0
   -1.5014   -0.3790    0.0000 C   0  0  0  0  0  0  0  0  0  0  0  0
    2.1814   -2.8540    0.0000 C   0  0  0  0  0  0  0  0  0  0  0  0
    2.1814   -3.6790    0.0000 O   0  0  0  0  0  0  0  0  0  0  0  0
    2.8959   -2.4415    0.0000 C   0  0  0  0  0  0  0  0  0  0  0  0
    2.8959   -1.6165    0.0000 C   0  0  0  0  0  0  0  0  0  0  0  0
    3.6104   -2.8540    0.0000 C   0  0  0  0  0  0  0  0  0  0  0  0
    4.3249   -3.2665    0.0000 C   0  0  0  0  0  0  0  0  0  0  0  0
    4.0229   -2.1395    0.0000 C   0  0  0  0  0  0  0  0  0  0  0  0
    3.1979   -3.5684    0.0000 C   0  0  0  0  0  0  0  0  0  0  0  0
    3.3084   -0.6809    0.0000 H   0  0  0  0  0  0  0  0  0  0  0  0
    3.6104    0.4460    0.0000 H   0  0  0  0  0  0  0  0  0  0  0  0
    2.4834    0.7480    0.0000 H   0  0  0  0  0  0  0  0  0  0  0  0
    1.7281    0.3103    0.0000 H   0  0  0  0  0  0  0  0  0  0  0  0
    1.3578   -0.3310    0.0000 H   0  0  0  0  0  0  0  0  0  0  0  0
    1.4670   -0.7915    0.0000 H   0  0  0  0  0  0  0  0  0  0  0  0
    0.3822   -3.5912    0.0000 H   0  0  0  0  0  0  0  0  0  0  0  0
    1.1228   -3.5912    0.0000 H   0  0  0  0  0  0  0  0  0  0  0  0
   -0.6764   -3.6790    0.0000 H   0  0  0  0  0  0  0  0  0  0  0  0
   -2.5587   -2.1647    0.0000 H   0  0  0  0  0  0  0  0  0  0  0  0
   -2.9290   -2.8060    0.0000 H   0  0  0  0  0  0  0  0  0  0  0  0
   -2.9304   -3.6790    0.0000 H   0  0  0  0  0  0  0  0  0  0  0  0
   -2.1054   -4.5040    0.0000 H   0  0  0  0  0  0  0  0  0  0  0  0
   -1.2804   -3.6790    0.0000 H   0  0  0  0  0  0  0  0  0  0  0  0
   -2.1054   -1.2040    0.0000 H   0  0  0  0  0  0  0  0  0  0  0  0
    0.3400   -0.4895    0.0000 H   0  0  0  0  0  0  0  0  0  0  0  0
    0.1486    0.4460    0.0000 H   0  0  0  0  0  0  0  0  0  0  0  0
   -0.6764    1.2710    0.0000 H   0  0  0  0  0  0  0  0  0  0  0  0
   -1.5014    0.4460    0.0000 H   0  0  0  0  0  0  0  0  0  0  0  0
   -0.3817   -1.0110    0.0000 H   0  0  0  0  0  0  0  0  0  0  0  0
    0.2918   -1.1914    0.0000 H   0  0  0  0  0  0  0  0  0  0  0  0
    0.8630    0.0335    0.0000 H   0  0  0  0  0  0  0  0  0  0  0  0
   -2.2636   -0.0633    0.0000 H   0  0  0  0  0  0  0  0  0  0  0  0
   -2.0848   -0.9623    0.0000 H   0  0  0  0  0  0  0  0  0  0  0  0
   -1.1857   -1.1412    0.0000 H   0  0  0  0  0  0  0  0  0  0  0  0
    1.4670   -4.0915    0.0000 H   0  0  0  0  0  0  0  0  0  0  0  0
    3.6104   -1.2040    0.0000 H   0  0  0  0  0  0  0  0  0  0  0  0
    3.9124   -3.9809    0.0000 H   0  0  0  0  0  0  0  0  0  0  0  0
    5.0393   -3.6790    0.0000 H   0  0  0  0  0  0  0  0  0  0  0  0
    4.7374   -2.5520    0.0000 H   0  0  0  0  0  0  0  0  0  0  0  0
    4.6774   -1.6373    0.0000 H   0  0  0  0  0  0  0  0  0  0  0  0
    3.8094   -1.3426    0.0000 H   0  0  0  0  0  0  0  0  0  0  0  0
    3.2049   -2.0318    0.0000 H   0  0  0  0  0  0  0  0  0  0  0  0
    2.6957   -2.9139    0.0000 H   0  0  0  0  0  0  0  0  0  0  0  0
    2.4010   -3.7820    0.0000 H   0  0  0  0  0  0  0  0  0  0  0  0
    3.0902   -4.3864    0.0000 H   0  0  0  0  0  0  0  0  0  0  0  0
  1  2  1  0  0  0  0
  2  3  1  0  0  0  0
  3  4  4  0  0  0  0
  4  5  4  0  0  0  0
  5  6  1  0  0  0  0
  6  7  1  0  0  0  0
  7  8  4  0  0  0  0
  8  9  4  0  0  0  0
  9 10  1  0  0  0  0
 10 11  1  0  0  0  0
  9 12  4  0  0  0  0
 12 13  4  0  0  0  0
 13 14  4  0  0  0  0
  7 14  4  0  0  0  0
 14 15  1  0  0  0  0
 13 16  1  0  0  0  0
 16 17  1  0  0  0  0
 16 18  1  0  0  0  0
 16 19  1  0  0  0  0
  5 20  4  0  0  0  0
 20 21  1  0  0  0  0
 20 22  4  0  0  0  0
 22 23  4  0  0  0  0
  3 23  4  0  0  0  0
 22 24  1  0  0  0  0
 24 25  1  0  0  0  0
 24 26  1  0  0  0  0
 24 27  1  0  0  0  0
  1 28  1  0  0  0  0
  1 29  1  0  0  0  0
  1 30  1  0  0  0  0
  2 31  1  0  0  0  0
  2 32  1  0  0  0  0
  4 33  1  0  0  0  0
  6 34  1  0  0  0  0
  6 35  1  0  0  0  0
  8 36  1  0  0  0  0
 10 37  1  0  0  0  0
 10 38  1  0  0  0  0
 11 39  1  0  0  0  0
 11 40  1  0  0  0  0
 11 41  1  0  0  0  0
 12 42  1  0  0  0  0
 15 43  1  0  0  0  0
 17 44  1  0  0  0  0
 17 45  1  0  0  0  0
 17 46  1  0  0  0  0
 18 47  1  0  0  0  0
 18 48  1  0  0  0  0
 18 49  1  0  0  0  0
 19 50  1  0  0  0  0
 19 51  1  0  0  0  0
 19 52  1  0  0  0  0
 21 53  1  0  0  0  0
 23 54  1  0  0  0  0
 25 55  1  0  0  0  0
 25 56  1  0  0  0  0
 25 57  1  0  0  0  0
 26 58  1  0  0  0  0
 26 59  1  0  0  0  0
 26 60  1  0  0  0  0
 27 61  1  0  0  0  0
 27 62  1  0  0  0  0
 27 63  1  0  0  0  0
M  END
>  <InChIKey>
InChI=1S/C25H36O2/c1-9-16-11-18(22(26)20(13-16)24(3,4)5)15-19-12-17(10-2)14-21(23(19)27)25(6,7)8/h11-14,26-27H,9-10,15H2,1-8H3

>  <CASRN>
88-24-4

> <Outcome>
1

>  <Index>
1582

>  <StandardizerResult>
Dearomatize (ID: Dearomatize)
Clear Stereo (ID: ClearStereo)
Wedge Clean (ID: WedgeClean)
Mesomerize (ID: Mesomerize)
Tautomerize (ID: Tautomerize)
Aromatize (ID: Aromatize)
Add Explicit Hydrogens (ID: AddExplicitH)
Neutralize (ID: Neutralize)
Clean 2D (ID: Clean2D)

> <knn Distance>


> <CpId>
1582

$$$$
1589
  Mrv1532301301811342D          

 43 42  0  0  0  0            999 V2000
    3.7022   -1.3386    0.0000 C   0  0  0  0  0  0  0  0  0  0  0  0
    3.7022   -2.1636    0.0000 Si  0  0  0  0  0  0  0  0  0  0  0  0
    3.7022   -2.9886    0.0000 C   0  0  0  0  0  0  0  0  0  0  0  0
    4.5272   -2.1636    0.0000 C   0  0  0  0  0  0  0  0  0  0  0  0
    4.9397   -2.8781    0.0000 C   0  0  0  0  0  0  0  0  0  0  0  0
    5.7647   -2.8781    0.0000 C   0  0  0  0  0  0  0  0  0  0  0  0
    6.1772   -3.5926    0.0000 N   0  0  0  0  0  0  0  0  0  0  0  0
    2.8772   -2.1636    0.0000 O   0  0  0  0  0  0  0  0  0  0  0  0
    2.4647   -1.4491    0.0000 Si  0  0  0  0  0  0  0  0  0  0  0  0
    3.1791   -1.0366    0.0000 C   0  0  0  0  0  0  0  0  0  0  0  0
    1.7502   -1.8616    0.0000 C   0  0  0  0  0  0  0  0  0  0  0  0
    2.0522   -0.7347    0.0000 C   0  0  0  0  0  0  0  0  0  0  0  0
    1.2272   -0.7347    0.0000 C   0  0  0  0  0  0  0  0  0  0  0  0
    0.8147   -0.0202    0.0000 C   0  0  0  0  0  0  0  0  0  0  0  0
   -0.0103   -0.0202    0.0000 N   0  0  0  0  0  0  0  0  0  0  0  0
    4.4166   -1.7511    0.0000 H   0  0  0  0  0  0  0  0  0  0  0  0
    4.4166   -0.9261    0.0000 H   0  0  0  0  0  0  0  0  0  0  0  0
    3.7022   -0.5136    0.0000 H   0  0  0  0  0  0  0  0  0  0  0  0
    2.8772   -2.9886    0.0000 H   0  0  0  0  0  0  0  0  0  0  0  0
    3.7022   -3.8136    0.0000 H   0  0  0  0  0  0  0  0  0  0  0  0
    4.5272   -2.9886    0.0000 H   0  0  0  0  0  0  0  0  0  0  0  0
    5.3490   -2.2355    0.0000 H   0  0  0  0  0  0  0  0  0  0  0  0
    5.0575   -1.5316    0.0000 H   0  0  0  0  0  0  0  0  0  0  0  0
    4.6575   -3.6533    0.0000 H   0  0  0  0  0  0  0  0  0  0  0  0
    5.4129   -3.5539    0.0000 H   0  0  0  0  0  0  0  0  0  0  0  0
    6.5741   -2.7189    0.0000 H   0  0  0  0  0  0  0  0  0  0  0  0
    6.2752   -2.2300    0.0000 H   0  0  0  0  0  0  0  0  0  0  0  0
    6.2308   -4.4158    0.0000 H   0  0  0  0  0  0  0  0  0  0  0  0
    6.8839   -4.0182    0.0000 H   0  0  0  0  0  0  0  0  0  0  0  0
    3.0359   -0.2242    0.0000 H   0  0  0  0  0  0  0  0  0  0  0  0
    2.4314   -0.6880    0.0000 H   0  0  0  0  0  0  0  0  0  0  0  0
    3.1791   -1.8616    0.0000 H   0  0  0  0  0  0  0  0  0  0  0  0
    1.3377   -1.1472    0.0000 H   0  0  0  0  0  0  0  0  0  0  0  0
    1.0357   -2.2741    0.0000 H   0  0  0  0  0  0  0  0  0  0  0  0
    2.1627   -2.5761    0.0000 H   0  0  0  0  0  0  0  0  0  0  0  0
    2.4050    0.0111    0.0000 H   0  0  0  0  0  0  0  0  0  0  0  0
    1.6108   -0.0376    0.0000 H   0  0  0  0  0  0  0  0  0  0  0  0
    0.4053   -0.6628    0.0000 H   0  0  0  0  0  0  0  0  0  0  0  0
    0.6969   -1.3667    0.0000 H   0  0  0  0  0  0  0  0  0  0  0  0
    1.1072    0.7512    0.0000 H   0  0  0  0  0  0  0  0  0  0  0  0
    0.5391    0.7574    0.0000 H   0  0  0  0  0  0  0  0  0  0  0  0
   -0.7337    0.3765    0.0000 H   0  0  0  0  0  0  0  0  0  0  0  0
   -0.7493   -0.3870    0.0000 H   0  0  0  0  0  0  0  0  0  0  0  0
  1  2  1  0  0  0  0
  2  3  1  0  0  0  0
  2  4  1  0  0  0  0
  4  5  1  0  0  0  0
  5  6  1  0  0  0  0
  6  7  1  0  0  0  0
  2  8  1  0  0  0  0
  8  9  1  0  0  0  0
  9 10  1  0  0  0  0
  9 11  1  0  0  0  0
  9 12  1  0  0  0  0
 12 13  1  0  0  0  0
 13 14  1  0  0  0  0
 14 15  1  0  0  0  0
  1 16  1  0  0  0  0
  1 17  1  0  0  0  0
  1 18  1  0  0  0  0
  3 19  1  0  0  0  0
  3 20  1  0  0  0  0
  3 21  1  0  0  0  0
  4 22  1  0  0  0  0
  4 23  1  0  0  0  0
  5 24  1  0  0  0  0
  5 25  1  0  0  0  0
  6 26  1  0  0  0  0
  6 27  1  0  0  0  0
  7 28  1  0  0  0  0
  7 29  1  0  0  0  0
 10 30  1  0  0  0  0
 10 31  1  0  0  0  0
 10 32  1  0  0  0  0
 11 33  1  0  0  0  0
 11 34  1  0  0  0  0
 11 35  1  0  0  0  0
 12 36  1  0  0  0  0
 12 37  1  0  0  0  0
 13 38  1  0  0  0  0
 13 39  1  0  0  0  0
 14 40  1  0  0  0  0
 14 41  1  0  0  0  0
 15 42  1  0  0  0  0
 15 43  1  0  0  0  0
M  END
>  <InChIKey>
InChI=1S/C10H28N2OSi2/c1-14(2,9-5-7-11)13-15(3,4)10-6-8-12/h5-12H2,1-4H3

>  <UN GHS>
1

>  <CASRN>
2469-55-8

> <Outcome>
1

>  <Index>
1589

>  <StandardizerResult>
Clear Stereo (ID: ClearStereo)
Wedge Clean (ID: WedgeClean)
Mesomerize (ID: Mesomerize)
Tautomerize (ID: Tautomerize)
Add Explicit Hydrogens (ID: AddExplicitH)
Neutralize (ID: Neutralize)
Clean 2D (ID: Clean2D)

> <knn Distance>


> <CpId>
1589

$$$$
1591
  Mrv1532301301811342D          

 48 50  0  0  0  0            999 V2000
    5.0013   -2.8875    0.0000 C   0  0  0  0  0  0  0  0  0  0  0  0
    5.0013   -3.7125    0.0000 C   0  0  0  0  0  0  0  0  0  0  0  0
    5.7158   -4.1250    0.0000 C   0  0  0  0  0  0  0  0  0  0  0  0
    5.7158   -4.9500    0.0000 C   0  0  0  0  0  0  0  0  0  0  0  0
    5.0013   -5.3625    0.0000 C   0  0  0  0  0  0  0  0  0  0  0  0
    5.0013   -6.1875    0.0000 N   0  0  0  0  0  0  0  0  0  0  0  0
    5.7158   -6.6000    0.0000 N   0  0  0  0  0  0  0  0  0  0  0  0
    5.7158   -7.4250    0.0000 C   0  0  0  0  0  0  0  0  0  0  0  0
    6.4302   -7.8375    0.0000 C   0  0  0  0  0  0  0  0  0  0  0  0
    7.1447   -7.4250    0.0000 O   0  0  0  0  0  0  0  0  0  0  0  0
    6.4302   -8.6625    0.0000 C   0  0  0  0  0  0  0  0  0  0  0  0
    5.7158   -9.0750    0.0000 C   0  0  0  0  0  0  0  0  0  0  0  0
    5.0013   -8.6625    0.0000 C   0  0  0  0  0  0  0  0  0  0  0  0
    4.2868   -9.0750    0.0000 N   0  0  0  0  0  0  0  0  0  0  0  0
    4.2868   -9.9000    0.0000 N   0  0  0  0  0  0  0  0  0  0  0  0
    3.5724  -10.3125    0.0000 C   0  0  0  0  0  0  0  0  0  0  0  0
    3.5724  -11.1375    0.0000 C   0  0  0  0  0  0  0  0  0  0  0  0
    2.8579  -11.5500    0.0000 C   0  0  0  0  0  0  0  0  0  0  0  0
    2.1434  -11.1375    0.0000 C   0  0  0  0  0  0  0  0  0  0  0  0
    2.1434  -10.3125    0.0000 C   0  0  0  0  0  0  0  0  0  0  0  0
    2.8579   -9.9000    0.0000 C   0  0  0  0  0  0  0  0  0  0  0  0
    1.4289  -11.5500    0.0000 S   0  0  0  0  0  0  0  0  0  0  0  0
    0.7145  -11.9625    0.0000 O   0  0  0  0  0  0  0  0  0  0  0  0
    1.0164  -10.8355    0.0000 O   0  0  0  0  0  0  0  0  0  0  0  0
    1.8414  -12.2645    0.0000 O   0  0  0  0  0  0  0  0  0  0  0  0
    5.0013   -7.8375    0.0000 C   0  0  0  0  0  0  0  0  0  0  0  0
    4.2868   -7.4250    0.0000 O   0  0  0  0  0  0  0  0  0  0  0  0
    4.2868   -4.9500    0.0000 C   0  0  0  0  0  0  0  0  0  0  0  0
    3.5724   -5.3625    0.0000 C   0  0  0  0  0  0  0  0  0  0  0  0
    4.2868   -4.1250    0.0000 C   0  0  0  0  0  0  0  0  0  0  0  0
    5.8263   -2.8875    0.0000 H   0  0  0  0  0  0  0  0  0  0  0  0
    5.0013   -2.0625    0.0000 H   0  0  0  0  0  0  0  0  0  0  0  0
    4.1763   -2.8875    0.0000 H   0  0  0  0  0  0  0  0  0  0  0  0
    6.4302   -3.7125    0.0000 H   0  0  0  0  0  0  0  0  0  0  0  0
    6.4302   -5.3625    0.0000 H   0  0  0  0  0  0  0  0  0  0  0  0
    4.2868   -6.6000    0.0000 H   0  0  0  0  0  0  0  0  0  0  0  0
    7.1447   -9.0750    0.0000 H   0  0  0  0  0  0  0  0  0  0  0  0
    5.7158   -9.9000    0.0000 H   0  0  0  0  0  0  0  0  0  0  0  0
    5.0013  -10.3125    0.0000 H   0  0  0  0  0  0  0  0  0  0  0  0
    4.2868  -11.5500    0.0000 H   0  0  0  0  0  0  0  0  0  0  0  0
    2.8579  -12.3750    0.0000 H   0  0  0  0  0  0  0  0  0  0  0  0
    1.4289   -9.9000    0.0000 H   0  0  0  0  0  0  0  0  0  0  0  0
    2.8579   -9.0750    0.0000 H   0  0  0  0  0  0  0  0  0  0  0  0
    0.0000  -11.5500    0.0000 H   0  0  0  0  0  0  0  0  0  0  0  0
    3.1599   -4.6480    0.0000 H   0  0  0  0  0  0  0  0  0  0  0  0
    2.8579   -5.7750    0.0000 H   0  0  0  0  0  0  0  0  0  0  0  0
    3.9849   -6.0770    0.0000 H   0  0  0  0  0  0  0  0  0  0  0  0
    3.5724   -3.7125    0.0000 H   0  0  0  0  0  0  0  0  0  0  0  0
  1  2  1  0  0  0  0
  2  3  4  0  0  0  0
  3  4  4  0  0  0  0
  4  5  4  0  0  0  0
  5  6  1  0  0  0  0
  7  6  1  4  0  0  0
  7  8  2  0  0  0  0
  8  9  1  0  0  0  0
  9 10  2  0  0  0  0
  9 11  1  0  0  0  0
 11 12  2  0  0  0  0
 12 13  1  0  0  0  0
 13 14  2  0  0  0  0
 14 15  1  4  0  0  0
 15 16  1  0  0  0  0
 16 17  4  0  0  0  0
 17 18  4  0  0  0  0
 18 19  4  0  0  0  0
 19 20  4  0  0  0  0
 20 21  4  0  0  0  0
 16 21  4  0  0  0  0
 19 22  1  0  0  0  0
 22 23  1  0  0  0  0
 22 24  2  0  0  0  0
 22 25  2  0  0  0  0
 13 26  1  0  0  0  0
  8 26  1  0  0  0  0
 26 27  2  0  0  0  0
  5 28  4  0  0  0  0
 28 29  1  0  0  0  0
 28 30  4  0  0  0  0
  2 30  4  0  0  0  0
  1 31  1  0  0  0  0
  1 32  1  0  0  0  0
  1 33  1  0  0  0  0
  3 34  1  0  0  0  0
  4 35  1  0  0  0  0
  6 36  1  0  0  0  0
 11 37  1  0  0  0  0
 12 38  1  0  0  0  0
 15 39  1  0  0  0  0
 17 40  1  0  0  0  0
 18 41  1  0  0  0  0
 20 42  1  0  0  0  0
 21 43  1  0  0  0  0
 23 44  1  0  0  0  0
 29 45  1  0  0  0  0
 29 46  1  0  0  0  0
 29 47  1  0  0  0  0
 30 48  1  0  0  0  0
M  END
>  <InChIKey>
InChI=1S/C20H18N4O5S/c1-12-3-8-16(13(2)11-12)22-24-19-18(25)10-9-17(20(19)26)23-21-14-4-6-15(7-5-14)30(27,28)29/h3-11,21-22H,1-2H3,(H,27,28,29)

>  <CASRN>
1320-07-6

> <Outcome>
1

>  <Index>
1591

>  <StandardizerResult>
Dearomatize (ID: Dearomatize)
Clear Stereo (ID: ClearStereo)
Wedge Clean (ID: WedgeClean)
Mesomerize (ID: Mesomerize)
Tautomerize (ID: Tautomerize)
Aromatize (ID: Aromatize)
Add Explicit Hydrogens (ID: AddExplicitH)
Neutralize (ID: Neutralize)
Clean 2D (ID: Clean2D)

> <knn Distance>


> <CpId>
1591

$$$$
1593
  Mrv1532301301811342D          

 22 22  0  0  0  0            999 V2000
    0.0000    3.3000    0.0000 C   0  0  0  0  0  0  0  0  0  0  0  0
    0.0000    2.4750    0.0000 C   0  0  0  0  0  0  0  0  0  0  0  0
   -0.7145    2.0625    0.0000 O   0  0  0  0  0  0  0  0  0  0  0  0
    0.7145    2.0625    0.0000 N   0  0  0  0  0  0  0  0  0  0  0  0
    0.7145    1.2375    0.0000 C   0  0  0  0  0  0  0  0  0  0  0  0
    1.4289    0.8250    0.0000 C   0  0  0  0  0  0  0  0  0  0  0  0
    1.4289    0.0000    0.0000 C   0  0  0  0  0  0  0  0  0  0  0  0
    0.7145   -0.4125    0.0000 C   0  0  0  0  0  0  0  0  0  0  0  0
    0.0000    0.0000    0.0000 C   0  0  0  0  0  0  0  0  0  0  0  0
    0.0000    0.8250    0.0000 C   0  0  0  0  0  0  0  0  0  0  0  0
    0.7145   -1.2375    0.0000 S   0  0  0  0  0  0  0  0  0  0  0  0
    0.7145   -2.0625    0.0000 Cl  0  0  0  0  0  0  0  0  0  0  0  0
   -0.1105   -1.2375    0.0000 O   0  0  0  0  0  0  0  0  0  0  0  0
    1.5395   -1.2375    0.0000 O   0  0  0  0  0  0  0  0  0  0  0  0
    0.8250    3.3000    0.0000 H   0  0  0  0  0  0  0  0  0  0  0  0
    0.0000    4.1250    0.0000 H   0  0  0  0  0  0  0  0  0  0  0  0
   -0.8250    3.3000    0.0000 H   0  0  0  0  0  0  0  0  0  0  0  0
    1.4289    2.4750    0.0000 H   0  0  0  0  0  0  0  0  0  0  0  0
    2.1434    1.2375    0.0000 H   0  0  0  0  0  0  0  0  0  0  0  0
    2.1434   -0.4125    0.0000 H   0  0  0  0  0  0  0  0  0  0  0  0
   -0.7145   -0.4125    0.0000 H   0  0  0  0  0  0  0  0  0  0  0  0
   -0.7145    1.2375    0.0000 H   0  0  0  0  0  0  0  0  0  0  0  0
  1  2  1  0  0  0  0
  2  3  2  0  0  0  0
  2  4  1  0  0  0  0
  4  5  1  0  0  0  0
  5  6  4  0  0  0  0
  6  7  4  0  0  0  0
  7  8  4  0  0  0  0
  8  9  4  0  0  0  0
  9 10  4  0  0  0  0
  5 10  4  0  0  0  0
  8 11  1  0  0  0  0
 11 12  1  0  0  0  0
 11 13  2  0  0  0  0
 11 14  2  0  0  0  0
  1 15  1  0  0  0  0
  1 16  1  0  0  0  0
  1 17  1  0  0  0  0
  4 18  1  0  0  0  0
  6 19  1  0  0  0  0
  7 20  1  0  0  0  0
  9 21  1  0  0  0  0
 10 22  1  0  0  0  0
M  END
>  <InChIKey>
InChI=1S/C8H8ClNO3S/c1-6(11)10-7-2-4-8(5-3-7)14(9,12)13/h2-5H,1H3,(H,10,11)

>  <CASRN>
121-60-8

> <Outcome>
1

>  <Index>
1593

>  <StandardizerResult>
Dearomatize (ID: Dearomatize)
Clear Stereo (ID: ClearStereo)
Wedge Clean (ID: WedgeClean)
Mesomerize (ID: Mesomerize)
Tautomerize (ID: Tautomerize)
Aromatize (ID: Aromatize)
Add Explicit Hydrogens (ID: AddExplicitH)
Neutralize (ID: Neutralize)
Clean 2D (ID: Clean2D)

> <knn Distance>


> <CpId>
1593

$$$$
1594
  Mrv1532301301811342D          

 26 27  0  0  0  0            999 V2000
    2.5194    1.5488    0.0000 C   0  0  0  0  0  0  0  0  0  0  0  0
    2.1038    0.8361    0.0000 C   0  0  0  0  0  0  0  0  0  0  0  0
    2.5133    0.1198    0.0000 C   0  0  0  0  0  0  0  0  0  0  0  0
    2.0977   -0.5929    0.0000 C   0  0  0  0  0  0  0  0  0  0  0  0
    1.2728   -0.5894    0.0000 C   0  0  0  0  0  0  0  0  0  0  0  0
    1.2097    0.0952    0.0000 C   0  0  0  0  0  0  0  0  0  0  0  0
    1.2788    0.8396    0.0000 C   0  0  0  0  0  0  0  0  0  0  0  0
    0.8633    0.1269    0.0000 C   0  0  0  0  0  0  0  0  0  0  0  0
    0.1365    0.5173    0.0000 C   0  0  0  0  0  0  0  0  0  0  0  0
    0.1332   -0.2573    0.0000 C   0  0  0  0  0  0  0  0  0  0  0  0
    3.2321    1.1332    0.0000 H   0  0  0  0  0  0  0  0  0  0  0  0
    2.9349    2.2615    0.0000 H   0  0  0  0  0  0  0  0  0  0  0  0
    1.8067    1.9643    0.0000 H   0  0  0  0  0  0  0  0  0  0  0  0
    3.3383    0.1163    0.0000 H   0  0  0  0  0  0  0  0  0  0  0  0
    2.1422   -1.4167    0.0000 H   0  0  0  0  0  0  0  0  0  0  0  0
    2.7851   -1.0492    0.0000 H   0  0  0  0  0  0  0  0  0  0  0  0
    0.8572   -1.3021    0.0000 H   0  0  0  0  0  0  0  0  0  0  0  0
    1.9364   -0.2954    0.0000 H   0  0  0  0  0  0  0  0  0  0  0  0
    1.9367    0.4853    0.0000 H   0  0  0  0  0  0  0  0  0  0  0  0
    0.8694    1.5558    0.0000 H   0  0  0  0  0  0  0  0  0  0  0  0
    0.7070    1.1133    0.0000 H   0  0  0  0  0  0  0  0  0  0  0  0
   -0.2854    1.2263    0.0000 H   0  0  0  0  0  0  0  0  0  0  0  0
   -0.6594    0.3002    0.0000 H   0  0  0  0  0  0  0  0  0  0  0  0
   -0.6108   -0.6138    0.0000 H   0  0  0  0  0  0  0  0  0  0  0  0
    0.0802   -1.0806    0.0000 H   0  0  0  0  0  0  0  0  0  0  0  0
    0.8254   -0.7062    0.0000 H   0  0  0  0  0  0  0  0  0  0  0  0
  1  2  1  0  0  0  0
  2  3  2  0  0  0  0
  3  4  1  0  0  0  0
  4  5  1  0  0  0  0
  5  6  1  0  0  0  0
  6  7  1  0  0  0  0
  2  7  1  0  0  0  0
  7  8  1  0  0  0  0
  5  8  1  0  0  0  0
  8  9  1  0  0  0  0
  8 10  1  0  0  0  0
  1 11  1  0  0  0  0
  1 12  1  0  0  0  0
  1 13  1  0  0  0  0
  3 14  1  0  0  0  0
  4 15  1  0  0  0  0
  4 16  1  0  0  0  0
  5 17  1  0  0  0  0
  6 18  1  0  0  0  0
  6 19  1  0  0  0  0
  7 20  1  0  0  0  0
  9 21  1  0  0  0  0
  9 22  1  0  0  0  0
  9 23  1  0  0  0  0
 10 24  1  0  0  0  0
 10 25  1  0  0  0  0
 10 26  1  0  0  0  0
M  END
>  <InChIKey>
InChI=1S/C10H16/c1-7-4-5-8-6-9(7)10(8,2)3/h4,8-9H,5-6H2,1-3H3

>  <CASRN>
80-56-8

> <Outcome>
1

>  <Index>
1594

>  <StandardizerResult>
Clear Stereo (ID: ClearStereo)
Wedge Clean (ID: WedgeClean)
Mesomerize (ID: Mesomerize)
Tautomerize (ID: Tautomerize)
Add Explicit Hydrogens (ID: AddExplicitH)
Neutralize (ID: Neutralize)
Clean 2D (ID: Clean2D)

> <knn Distance>


> <CpId>
1594

$$$$
1596
  Mrv1532301301811342D          

 39 40  0  0  0  0            999 V2000
    1.4336    0.0050    0.0000 C   0  0  0  0  0  0  0  0  0  0  0  0
    2.1481   -0.4075    0.0000 N   0  0  0  0  0  0  0  0  0  0  0  0
    2.1481   -1.2325    0.0000 C   0  0  0  0  0  0  0  0  0  0  0  0
    2.8626   -1.6450    0.0000 C   0  0  0  0  0  0  0  0  0  0  0  0
    2.8626   -2.4700    0.0000 C   0  0  0  0  0  0  0  0  0  0  0  0
    2.1481   -2.8825    0.0000 C   0  0  0  0  0  0  0  0  0  0  0  0
    1.4336   -2.4700    0.0000 C   0  0  0  0  0  0  0  0  0  0  0  0
    1.4336   -1.6450    0.0000 C   0  0  0  0  0  0  0  0  0  0  0  0
    2.8626    0.0050    0.0000 C   0  0  0  0  0  0  0  0  0  0  0  0
    2.8626    0.8300    0.0000 C   0  0  0  0  0  0  0  0  0  0  0  0
    3.5770    1.2425    0.0000 C   0  0  0  0  0  0  0  0  0  0  0  0
    4.2915    0.8300    0.0000 C   0  0  0  0  0  0  0  0  0  0  0  0
    4.2915    0.0050    0.0000 C   0  0  0  0  0  0  0  0  0  0  0  0
    3.5770   -0.4075    0.0000 C   0  0  0  0  0  0  0  0  0  0  0  0
    1.8461    0.7194    0.0000 H   0  0  0  0  0  0  0  0  0  0  0  0
    0.7192    0.4175    0.0000 H   0  0  0  0  0  0  0  0  0  0  0  0
    1.0211   -0.7095    0.0000 H   0  0  0  0  0  0  0  0  0  0  0  0
    1.4336   -0.8200    0.0000 H   0  0  0  0  0  0  0  0  0  0  0  0
    3.6862   -1.5971    0.0000 H   0  0  0  0  0  0  0  0  0  0  0  0
    3.3159   -0.9557    0.0000 H   0  0  0  0  0  0  0  0  0  0  0  0
    3.3159   -3.1593    0.0000 H   0  0  0  0  0  0  0  0  0  0  0  0
    3.6862   -2.5180    0.0000 H   0  0  0  0  0  0  0  0  0  0  0  0
    1.7778   -3.6198    0.0000 H   0  0  0  0  0  0  0  0  0  0  0  0
    2.5184   -3.6198    0.0000 H   0  0  0  0  0  0  0  0  0  0  0  0
    0.6100   -2.5180    0.0000 H   0  0  0  0  0  0  0  0  0  0  0  0
    0.9803   -3.1593    0.0000 H   0  0  0  0  0  0  0  0  0  0  0  0
    0.6584   -1.3629    0.0000 H   0  0  0  0  0  0  0  0  0  0  0  0
    0.6584   -1.9272    0.0000 H   0  0  0  0  0  0  0  0  0  0  0  0
    2.8626   -0.8200    0.0000 H   0  0  0  0  0  0  0  0  0  0  0  0
    2.4092    1.5193    0.0000 H   0  0  0  0  0  0  0  0  0  0  0  0
    2.0390    0.8779    0.0000 H   0  0  0  0  0  0  0  0  0  0  0  0
    3.9473    1.9797    0.0000 H   0  0  0  0  0  0  0  0  0  0  0  0
    3.2068    1.9797    0.0000 H   0  0  0  0  0  0  0  0  0  0  0  0
    5.1151    0.8779    0.0000 H   0  0  0  0  0  0  0  0  0  0  0  0
    4.7449    1.5193    0.0000 H   0  0  0  0  0  0  0  0  0  0  0  0
    4.7449   -0.6843    0.0000 H   0  0  0  0  0  0  0  0  0  0  0  0
    5.1151   -0.0430    0.0000 H   0  0  0  0  0  0  0  0  0  0  0  0
    4.1830   -0.9674    0.0000 H   0  0  0  0  0  0  0  0  0  0  0  0
    3.5770    0.4175    0.0000 H   0  0  0  0  0  0  0  0  0  0  0  0
  1  2  1  0  0  0  0
  2  3  1  0  0  0  0
  3  4  1  0  0  0  0
  4  5  1  0  0  0  0
  5  6  1  0  0  0  0
  6  7  1  0  0  0  0
  7  8  1  0  0  0  0
  3  8  1  0  0  0  0
  2  9  1  0  0  0  0
  9 10  1  0  0  0  0
 10 11  1  0  0  0  0
 11 12  1  0  0  0  0
 12 13  1  0  0  0  0
 13 14  1  0  0  0  0
  9 14  1  0  0  0  0
  1 15  1  0  0  0  0
  1 16  1  0  0  0  0
  1 17  1  0  0  0  0
  3 18  1  0  0  0  0
  4 19  1  0  0  0  0
  4 20  1  0  0  0  0
  5 21  1  0  0  0  0
  5 22  1  0  0  0  0
  6 23  1  0  0  0  0
  6 24  1  0  0  0  0
  7 25  1  0  0  0  0
  7 26  1  0  0  0  0
  8 27  1  0  0  0  0
  8 28  1  0  0  0  0
  9 29  1  0  0  0  0
 10 30  1  0  0  0  0
 10 31  1  0  0  0  0
 11 32  1  0  0  0  0
 11 33  1  0  0  0  0
 12 34  1  0  0  0  0
 12 35  1  0  0  0  0
 13 36  1  0  0  0  0
 13 37  1  0  0  0  0
 14 38  1  0  0  0  0
 14 39  1  0  0  0  0
M  END
>  <InChIKey>
InChI=1S/C13H25N/c1-14(12-8-4-2-5-9-12)13-10-6-3-7-11-13/h12-13H,2-11H2,1H3

>  <CASRN>
7560-83-0

> <Outcome>
1

>  <Index>
1596

>  <StandardizerResult>
Clear Stereo (ID: ClearStereo)
Wedge Clean (ID: WedgeClean)
Mesomerize (ID: Mesomerize)
Tautomerize (ID: Tautomerize)
Add Explicit Hydrogens (ID: AddExplicitH)
Neutralize (ID: Neutralize)
Clean 2D (ID: Clean2D)

> <knn Distance>


> <CpId>
1596

$$$$
1600
  Mrv1532301301811342D          

 10  9  0  0  0  0            999 V2000
    0.8250    1.4289    0.0000 C   0  0  0  0  0  0  0  0  0  0  0  0
    1.2375    0.7144    0.0000 O   0  0  0  0  0  0  0  0  0  0  0  0
    0.8250   -0.0000    0.0000 C   0  0  0  0  0  0  0  0  0  0  0  0
    1.2375   -0.7145    0.0000 N   0  0  0  0  0  0  0  0  0  0  0  0
   -0.0000   -0.0000    0.0000 O   0  0  0  0  0  0  0  0  0  0  0  0
    1.5395    1.8414    0.0000 H   0  0  0  0  0  0  0  0  0  0  0  0
    0.4125    2.1434    0.0000 H   0  0  0  0  0  0  0  0  0  0  0  0
    0.1105    1.0164    0.0000 H   0  0  0  0  0  0  0  0  0  0  0  0
    0.8250   -1.4290    0.0000 H   0  0  0  0  0  0  0  0  0  0  0  0
    2.0625   -0.7145    0.0000 H   0  0  0  0  0  0  0  0  0  0  0  0
  1  2  1  0  0  0  0
  2  3  1  0  0  0  0
  3  4  1  0  0  0  0
  3  5  2  0  0  0  0
  1  6  1  0  0  0  0
  1  7  1  0  0  0  0
  1  8  1  0  0  0  0
  4  9  1  0  0  0  0
  4 10  1  0  0  0  0
M  END
>  <InChIKey>
InChI=1S/C2H5NO2/c1-5-2(3)4/h1H3,(H2,3,4)

>  <CASRN>
598-55-0

> <Outcome>
1

>  <Index>
1600

>  <StandardizerResult>
Clear Stereo (ID: ClearStereo)
Wedge Clean (ID: WedgeClean)
Mesomerize (ID: Mesomerize)
Tautomerize (ID: Tautomerize)
Add Explicit Hydrogens (ID: AddExplicitH)
Neutralize (ID: Neutralize)
Clean 2D (ID: Clean2D)

> <knn Distance>


> <CpId>
1600

$$$$
1606
  Mrv1532301301811342D          

 31 30  0  0  0  0            999 V2000
    1.2396   -2.1968    0.0000 C   0  0  0  0  0  0  0  0  0  0  0  0
    1.6521   -1.4824    0.0000 C   0  0  0  0  0  0  0  0  0  0  0  0
    2.4771   -1.4824    0.0000 C   0  0  0  0  0  0  0  0  0  0  0  0
    2.8896   -0.7679    0.0000 N   0  0  0  0  0  0  0  0  0  0  0  0
    2.4771   -0.0534    0.0000 C   0  0  0  0  0  0  0  0  0  0  0  0
    1.6521   -0.0534    0.0000 C   0  0  0  0  0  0  0  0  0  0  0  0
    1.2396    0.6610    0.0000 C   0  0  0  0  0  0  0  0  0  0  0  0
    3.7146   -0.7679    0.0000 C   0  0  0  0  0  0  0  0  0  0  0  0
    4.1271   -1.4824    0.0000 O   0  0  0  0  0  0  0  0  0  0  0  0
    4.1271   -0.0534    0.0000 S   0  0  0  0  0  0  0  0  0  0  0  0
    4.9521   -0.0534    0.0000 C   0  0  0  0  0  0  0  0  0  0  0  0
    5.3646    0.6610    0.0000 C   0  0  0  0  0  0  0  0  0  0  0  0
    0.5251   -1.7843    0.0000 H   0  0  0  0  0  0  0  0  0  0  0  0
    0.8271   -2.9113    0.0000 H   0  0  0  0  0  0  0  0  0  0  0  0
    1.9541   -2.6093    0.0000 H   0  0  0  0  0  0  0  0  0  0  0  0
    1.6041   -0.6588    0.0000 H   0  0  0  0  0  0  0  0  0  0  0  0
    0.9628   -1.0290    0.0000 H   0  0  0  0  0  0  0  0  0  0  0  0
    2.5251   -2.3060    0.0000 H   0  0  0  0  0  0  0  0  0  0  0  0
    3.1664   -1.9357    0.0000 H   0  0  0  0  0  0  0  0  0  0  0  0
    3.1664    0.3999    0.0000 H   0  0  0  0  0  0  0  0  0  0  0  0
    2.5251    0.7702    0.0000 H   0  0  0  0  0  0  0  0  0  0  0  0
    0.8474   -0.2353    0.0000 H   0  0  0  0  0  0  0  0  0  0  0  0
    2.0646    0.6610    0.0000 H   0  0  0  0  0  0  0  0  0  0  0  0
    1.4531    1.4579    0.0000 H   0  0  0  0  0  0  0  0  0  0  0  0
    0.5251    1.0735    0.0000 H   0  0  0  0  0  0  0  0  0  0  0  0
    0.6562    0.0777    0.0000 H   0  0  0  0  0  0  0  0  0  0  0  0
    5.0001   -0.8770    0.0000 H   0  0  0  0  0  0  0  0  0  0  0  0
    5.6414   -0.5068    0.0000 H   0  0  0  0  0  0  0  0  0  0  0  0
    6.0791    0.2485    0.0000 H   0  0  0  0  0  0  0  0  0  0  0  0
    5.7771    1.3755    0.0000 H   0  0  0  0  0  0  0  0  0  0  0  0
    4.6501    1.0735    0.0000 H   0  0  0  0  0  0  0  0  0  0  0  0
  1  2  1  0  0  0  0
  2  3  1  0  0  0  0
  3  4  1  0  0  0  0
  4  5  1  0  0  0  0
  5  6  1  0  0  0  0
  6  7  1  0  0  0  0
  4  8  1  0  0  0  0
  8  9  2  0  0  0  0
  8 10  1  0  0  0  0
 10 11  1  0  0  0  0
 11 12  1  0  0  0  0
  1 13  1  0  0  0  0
  1 14  1  0  0  0  0
  1 15  1  0  0  0  0
  2 16  1  0  0  0  0
  2 17  1  0  0  0  0
  3 18  1  0  0  0  0
  3 19  1  0  0  0  0
  5 20  1  0  0  0  0
  5 21  1  0  0  0  0
  6 22  1  0  0  0  0
  6 23  1  0  0  0  0
  7 24  1  0  0  0  0
  7 25  1  0  0  0  0
  7 26  1  0  0  0  0
 11 27  1  0  0  0  0
 11 28  1  0  0  0  0
 12 29  1  0  0  0  0
 12 30  1  0  0  0  0
 12 31  1  0  0  0  0
M  END
>  <InChIKey>
InChI=1S/C9H19NOS/c1-4-7-10(8-5-2)9(11)12-6-3/h4-8H2,1-3H3

>  <CASRN>
759-94-4

> <Outcome>
1

>  <Index>
1606

>  <StandardizerResult>
Clear Stereo (ID: ClearStereo)
Wedge Clean (ID: WedgeClean)
Mesomerize (ID: Mesomerize)
Tautomerize (ID: Tautomerize)
Add Explicit Hydrogens (ID: AddExplicitH)
Neutralize (ID: Neutralize)
Clean 2D (ID: Clean2D)

> <knn Distance>


> <CpId>
1606

$$$$
1608
  Mrv1532301301811342D          

 22 21  0  0  0  0            999 V2000
    3.3305    1.4329    0.0000 C   0  0  0  0  0  0  0  0  0  0  0  0
    2.5055    1.4329    0.0000 C   0  0  0  0  0  0  0  0  0  0  0  0
    2.0930    2.1474    0.0000 C   0  0  0  0  0  0  0  0  0  0  0  0
    2.0930    0.7185    0.0000 O   0  0  0  0  0  0  0  0  0  0  0  0
    1.2680    0.7185    0.0000 C   0  0  0  0  0  0  0  0  0  0  0  0
    0.8555    1.4329    0.0000 O   0  0  0  0  0  0  0  0  0  0  0  0
    0.8555    0.0040    0.0000 C   0  0  0  0  0  0  0  0  0  0  0  0
    0.0305    0.0040    0.0000 C   0  0  0  0  0  0  0  0  0  0  0  0
   -0.3820   -0.7105    0.0000 C   0  0  0  0  0  0  0  0  0  0  0  0
   -0.3820    0.7185    0.0000 O   0  0  0  0  0  0  0  0  0  0  0  0
    3.3305    0.6079    0.0000 H   0  0  0  0  0  0  0  0  0  0  0  0
    4.1555    1.4329    0.0000 H   0  0  0  0  0  0  0  0  0  0  0  0
    3.3305    2.2579    0.0000 H   0  0  0  0  0  0  0  0  0  0  0  0
    2.9180    2.1474    0.0000 H   0  0  0  0  0  0  0  0  0  0  0  0
    2.3066    2.9443    0.0000 H   0  0  0  0  0  0  0  0  0  0  0  0
    1.3786    2.5599    0.0000 H   0  0  0  0  0  0  0  0  0  0  0  0
    1.5097    1.5641    0.0000 H   0  0  0  0  0  0  0  0  0  0  0  0
    1.2680   -0.7105    0.0000 H   0  0  0  0  0  0  0  0  0  0  0  0
   -1.0964   -0.2980    0.0000 H   0  0  0  0  0  0  0  0  0  0  0  0
   -0.7945   -1.4249    0.0000 H   0  0  0  0  0  0  0  0  0  0  0  0
    0.3325   -1.1230    0.0000 H   0  0  0  0  0  0  0  0  0  0  0  0
    0.0305    1.4329    0.0000 H   0  0  0  0  0  0  0  0  0  0  0  0
  1  2  1  0  0  0  0
  2  3  1  0  0  0  0
  2  4  1  0  0  0  0
  4  5  1  0  0  0  0
  5  6  2  0  0  0  0
  7  5  1  4  0  0  0
  7  8  2  0  0  0  0
  8  9  1  0  0  0  0
  8 10  1  0  0  0  0
  1 11  1  0  0  0  0
  1 12  1  0  0  0  0
  1 13  1  0  0  0  0
  2 14  1  0  0  0  0
  3 15  1  0  0  0  0
  3 16  1  0  0  0  0
  3 17  1  0  0  0  0
  7 18  1  0  0  0  0
  9 19  1  0  0  0  0
  9 20  1  0  0  0  0
  9 21  1  0  0  0  0
 10 22  1  0  0  0  0
M  END
>  <InChIKey>
InChI=1S/C7H12O3/c1-5(2)10-7(9)4-6(3)8/h4-5,8H,1-3H3

>  <UN GHS>
2B

>  <CASRN>
542-08-5

> <Outcome>
1

>  <Index>
1608

>  <StandardizerResult>
Clear Stereo (ID: ClearStereo)
Wedge Clean (ID: WedgeClean)
Mesomerize (ID: Mesomerize)
Tautomerize (ID: Tautomerize)
Add Explicit Hydrogens (ID: AddExplicitH)
Neutralize (ID: Neutralize)
Clean 2D (ID: Clean2D)

> <knn Distance>


> <CpId>
1608

$$$$
1610
  Mrv1532301301811342D          

 22 21  0  0  0  0            999 V2000
    1.0461    1.4289    0.0000 N   0  0  0  0  0  0  0  0  0  0  0  0
    1.7605    1.8414    0.0000 C   0  0  0  0  0  0  0  0  0  0  0  0
    1.7605    2.6664    0.0000 O   0  0  0  0  0  0  0  0  0  0  0  0
    2.4750    1.4289    0.0000 C   0  0  0  0  0  0  0  0  0  0  0  0
    3.1895    1.8414    0.0000 C   0  0  0  0  0  0  0  0  0  0  0  0
    3.9040    1.4289    0.0000 C   0  0  0  0  0  0  0  0  0  0  0  0
    4.6184    1.8414    0.0000 C   0  0  0  0  0  0  0  0  0  0  0  0
    5.3329    1.4289    0.0000 C   0  0  0  0  0  0  0  0  0  0  0  0
    6.0474    1.8414    0.0000 N   0  0  0  0  0  0  0  0  0  0  0  0
    5.3329    0.6039    0.0000 O   0  0  0  0  0  0  0  0  0  0  0  0
    0.3316    1.8414    0.0000 H   0  0  0  0  0  0  0  0  0  0  0  0
    1.0461    0.6039    0.0000 H   0  0  0  0  0  0  0  0  0  0  0  0
    2.1047    0.6917    0.0000 H   0  0  0  0  0  0  0  0  0  0  0  0
    2.8453    0.6917    0.0000 H   0  0  0  0  0  0  0  0  0  0  0  0
    3.5597    2.5786    0.0000 H   0  0  0  0  0  0  0  0  0  0  0  0
    2.8192    2.5786    0.0000 H   0  0  0  0  0  0  0  0  0  0  0  0
    3.5337    0.6917    0.0000 H   0  0  0  0  0  0  0  0  0  0  0  0
    4.2742    0.6917    0.0000 H   0  0  0  0  0  0  0  0  0  0  0  0
    4.9887    2.5786    0.0000 H   0  0  0  0  0  0  0  0  0  0  0  0
    4.2482    2.5786    0.0000 H   0  0  0  0  0  0  0  0  0  0  0  0
    6.7618    1.4289    0.0000 H   0  0  0  0  0  0  0  0  0  0  0  0
    6.0474    2.6664    0.0000 H   0  0  0  0  0  0  0  0  0  0  0  0
  1  2  1  0  0  0  0
  2  3  2  0  0  0  0
  2  4  1  0  0  0  0
  4  5  1  0  0  0  0
  5  6  1  0  0  0  0
  6  7  1  0  0  0  0
  7  8  1  0  0  0  0
  8  9  1  0  0  0  0
  8 10  2  0  0  0  0
  1 11  1  0  0  0  0
  1 12  1  0  0  0  0
  4 13  1  0  0  0  0
  4 14  1  0  0  0  0
  5 15  1  0  0  0  0
  5 16  1  0  0  0  0
  6 17  1  0  0  0  0
  6 18  1  0  0  0  0
  7 19  1  0  0  0  0
  7 20  1  0  0  0  0
  9 21  1  0  0  0  0
  9 22  1  0  0  0  0
M  END
>  <InChIKey>
InChI=1S/C6H12N2O2/c7-5(9)3-1-2-4-6(8)10/h1-4H2,(H2,7,9)(H2,8,10)

>  <CASRN>
628-94-4

> <Outcome>
1

>  <Index>
1610

>  <StandardizerResult>
Clear Stereo (ID: ClearStereo)
Wedge Clean (ID: WedgeClean)
Mesomerize (ID: Mesomerize)
Tautomerize (ID: Tautomerize)
Add Explicit Hydrogens (ID: AddExplicitH)
Neutralize (ID: Neutralize)
Clean 2D (ID: Clean2D)

> <knn Distance>


> <CpId>
1610

$$$$
1613
  Mrv1532301301811342D          

 22 26  0  0  0  0            999 V2000
   -0.1019   -0.3962    0.0000 Cl  0  0  0  0  0  0  0  0  0  0  0  0
    0.6770   -0.1241    0.0000 C   0  0  0  0  0  0  0  0  0  0  0  0
    1.6217   -0.1018    0.0000 C   0  0  0  0  0  0  0  0  0  0  0  0
    1.3620   -0.8848    0.0000 Cl  0  0  0  0  0  0  0  0  0  0  0  0
    2.2767   -0.6144    0.0000 C   0  0  0  0  0  0  0  0  0  0  0  0
    3.0074   -0.9975    0.0000 Cl  0  0  0  0  0  0  0  0  0  0  0  0
    2.3873    0.1681    0.0000 C   0  0  0  0  0  0  0  0  0  0  0  0
    3.1220   -0.2072    0.0000 Cl  0  0  0  0  0  0  0  0  0  0  0  0
    1.4025    0.2769    0.0000 C   0  0  0  0  0  0  0  0  0  0  0  0
    1.6312    1.0696    0.0000 Cl  0  0  0  0  0  0  0  0  0  0  0  0
    1.0307   -0.6378    0.0000 C   0  0  0  0  0  0  0  0  0  0  0  0
    0.4236   -1.1965    0.0000 Cl  0  0  0  0  0  0  0  0  0  0  0  0
    1.6776   -1.1674    0.0000 C   0  0  0  0  0  0  0  0  0  0  0  0
    1.2793   -1.8899    0.0000 Cl  0  0  0  0  0  0  0  0  0  0  0  0
    2.1181   -1.8650    0.0000 Cl  0  0  0  0  0  0  0  0  0  0  0  0
    0.6231    0.6551    0.0000 C   0  0  0  0  0  0  0  0  0  0  0  0
   -0.1922    0.5287    0.0000 Cl  0  0  0  0  0  0  0  0  0  0  0  0
    1.2276    1.2286    0.0000 C   0  0  0  0  0  0  0  0  0  0  0  0
    0.6298    1.7971    0.0000 Cl  0  0  0  0  0  0  0  0  0  0  0  0
    1.7647    1.8548    0.0000 Cl  0  0  0  0  0  0  0  0  0  0  0  0
    1.8885    0.7182    0.0000 C   0  0  0  0  0  0  0  0  0  0  0  0
    2.4485    1.3241    0.0000 Cl  0  0  0  0  0  0  0  0  0  0  0  0
  1  2  1  0  0  0  0
  2  3  1  0  0  0  0
  3  4  1  0  0  0  0
  3  5  1  0  0  0  0
  5  6  1  0  0  0  0
  5  7  1  0  0  0  0
  7  8  1  0  0  0  0
  7  9  1  0  0  0  0
  9 10  1  0  0  0  0
  9 11  1  0  0  0  0
  2 11  1  0  0  0  0
 11 12  1  0  0  0  0
 11 13  1  0  0  0  0
  5 13  1  0  0  0  0
 13 14  1  0  0  0  0
 13 15  1  0  0  0  0
  9 16  1  0  0  0  0
  2 16  1  0  0  0  0
 16 17  1  0  0  0  0
 16 18  1  0  0  0  0
 18 19  1  0  0  0  0
 18 20  1  0  0  0  0
 18 21  1  0  0  0  0
  3 21  1  0  0  0  0
  7 21  1  0  0  0  0
 21 22  1  0  0  0  0
M  END
>  <InChIKey>
InChI=1S/C10Cl12/c11-1-2(12)7(17)4(14)3(13,5(1,15)9(7,19)20)6(1,16)10(21,22)8(2,4)18

>  <CASRN>
2385-85-5

> <Outcome>
1

>  <Index>
1613

>  <StandardizerResult>
Clear Stereo (ID: ClearStereo)
Wedge Clean (ID: WedgeClean)
Mesomerize (ID: Mesomerize)
Tautomerize (ID: Tautomerize)
Clean 2D (ID: Clean2D)

> <knn Distance>


> <CpId>
1613

$$$$
1615
  Mrv1532301301811342D          

 11 11  0  0  0  0            999 V2000
   -0.3485    2.1563    0.0000 C   0  0  0  0  0  0  0  0  0  0  0  0
    0.3660    1.7438    0.0000 C   0  0  0  0  0  0  0  0  0  0  0  0
    0.3660    0.9188    0.0000 C   0  0  0  0  0  0  0  0  0  0  0  0
    0.7785    0.2043    0.0000 C   0  0  0  0  0  0  0  0  0  0  0  0
   -0.0465    0.2043    0.0000 O   0  0  0  0  0  0  0  0  0  0  0  0
   -0.3485    2.9813    0.0000 H   0  0  0  0  0  0  0  0  0  0  0  0
   -1.0630    1.7438    0.0000 H   0  0  0  0  0  0  0  0  0  0  0  0
    1.0804    2.1563    0.0000 H   0  0  0  0  0  0  0  0  0  0  0  0
   -0.4309    1.1323    0.0000 H   0  0  0  0  0  0  0  0  0  0  0  0
    1.1487   -0.5329    0.0000 H   0  0  0  0  0  0  0  0  0  0  0  0
    1.6021    0.2523    0.0000 H   0  0  0  0  0  0  0  0  0  0  0  0
  1  2  2  0  0  0  0
  2  3  1  0  0  0  0
  3  4  1  0  0  0  0
  4  5  1  0  0  0  0
  3  5  1  0  0  0  0
  1  6  1  0  0  0  0
  1  7  1  0  0  0  0
  2  8  1  0  0  0  0
  3  9  1  0  0  0  0
  4 10  1  0  0  0  0
  4 11  1  0  0  0  0
M  END
>  <InChIKey>
InChI=1S/C4H6O/c1-2-4-3-5-4/h2,4H,1,3H2

>  <CASRN>
930-22-3

> <Outcome>
1

>  <Index>
1615

>  <StandardizerResult>
Clear Stereo (ID: ClearStereo)
Wedge Clean (ID: WedgeClean)
Mesomerize (ID: Mesomerize)
Tautomerize (ID: Tautomerize)
Add Explicit Hydrogens (ID: AddExplicitH)
Neutralize (ID: Neutralize)
Clean 2D (ID: Clean2D)

> <knn Distance>


> <CpId>
1615

$$$$
1617
  Mrv1532301301811342D          

 23 24  0  0  0  0            999 V2000
   -1.4437   -0.1032    0.0000 O   0  0  0  0  0  0  0  0  0  0  0  0
   -0.7292   -0.5157    0.0000 C   0  0  0  0  0  0  0  0  0  0  0  0
   -0.7292   -1.3407    0.0000 O   0  0  0  0  0  0  0  0  0  0  0  0
   -0.0148   -0.1032    0.0000 C   0  0  0  0  0  0  0  0  0  0  0  0
    0.6997   -0.5157    0.0000 C   0  0  0  0  0  0  0  0  0  0  0  0
    1.4142   -0.1032    0.0000 C   0  0  0  0  0  0  0  0  0  0  0  0
    1.4142    0.7218    0.0000 C   0  0  0  0  0  0  0  0  0  0  0  0
    0.6997    1.1343    0.0000 C   0  0  0  0  0  0  0  0  0  0  0  0
    0.4934    0.3093    0.0000 O   0  0  0  0  0  0  0  0  0  0  0  0
   -0.0148    0.7218    0.0000 C   0  0  0  0  0  0  0  0  0  0  0  0
   -0.7292    1.1343    0.0000 C   0  0  0  0  0  0  0  0  0  0  0  0
   -1.4437    0.7218    0.0000 O   0  0  0  0  0  0  0  0  0  0  0  0
   -0.7292    1.9593    0.0000 O   0  0  0  0  0  0  0  0  0  0  0  0
   -2.1582   -0.5157    0.0000 H   0  0  0  0  0  0  0  0  0  0  0  0
   -0.7292    0.3093    0.0000 H   0  0  0  0  0  0  0  0  0  0  0  0
    0.6997   -1.3407    0.0000 H   0  0  0  0  0  0  0  0  0  0  0  0
    1.8675   -0.7925    0.0000 H   0  0  0  0  0  0  0  0  0  0  0  0
    2.2378   -0.1512    0.0000 H   0  0  0  0  0  0  0  0  0  0  0  0
    2.2378    0.7697    0.0000 H   0  0  0  0  0  0  0  0  0  0  0  0
    1.8675    1.4110    0.0000 H   0  0  0  0  0  0  0  0  0  0  0  0
    0.6997    1.9593    0.0000 H   0  0  0  0  0  0  0  0  0  0  0  0
   -0.0148    1.5468    0.0000 H   0  0  0  0  0  0  0  0  0  0  0  0
   -2.1582    1.1343    0.0000 H   0  0  0  0  0  0  0  0  0  0  0  0
  1  2  1  0  0  0  0
  2  3  2  0  0  0  0
  2  4  1  0  0  0  0
  4  5  1  0  0  0  0
  5  6  1  0  0  0  0
  6  7  1  0  0  0  0
  7  8  1  0  0  0  0
  8  9  1  0  0  0  0
  5  9  1  0  0  0  0
  8 10  1  0  0  0  0
  4 10  1  0  0  0  0
 10 11  1  0  0  0  0
 11 12  1  0  0  0  0
 11 13  2  0  0  0  0
  1 14  1  0  0  0  0
  4 15  1  0  0  0  0
  5 16  1  0  0  0  0
  6 17  1  0  0  0  0
  6 18  1  0  0  0  0
  7 19  1  0  0  0  0
  7 20  1  0  0  0  0
  8 21  1  0  0  0  0
 10 22  1  0  0  0  0
 12 23  1  0  0  0  0
M  END
>  <InChIKey>
InChI=1S/C8H10O5/c9-7(10)5-3-1-2-4(13-3)6(5)8(11)12/h3-6H,1-2H2,(H,9,10)(H,11,12)

>  <CASRN>
145-73-3

> <Outcome>
1

>  <Index>
1617

>  <StandardizerResult>
Clear Stereo (ID: ClearStereo)
Wedge Clean (ID: WedgeClean)
Mesomerize (ID: Mesomerize)
Tautomerize (ID: Tautomerize)
Add Explicit Hydrogens (ID: AddExplicitH)
Neutralize (ID: Neutralize)
Clean 2D (ID: Clean2D)

> <knn Distance>


> <CpId>
1617

$$$$
1627
  Mrv1532301301811342D          

 19 18  0  0  0  0            999 V2000
    1.7605    1.8433    0.0000 C   0  0  0  0  0  0  0  0  0  0  0  0
    2.4750    1.4308    0.0000 C   0  0  0  0  0  0  0  0  0  0  0  0
    3.1895    1.8433    0.0000 N   0  0  0  0  0  0  0  0  0  0  0  0
    3.9039    1.4308    0.0000 C   0  0  0  0  0  0  0  0  0  0  0  0
    3.9039    0.6058    0.0000 O   0  0  0  0  0  0  0  0  0  0  0  0
    4.6184    1.8433    0.0000 O   0  0  0  0  0  0  0  0  0  0  0  0
    5.3329    1.4308    0.0000 C   0  0  0  0  0  0  0  0  0  0  0  0
    6.0474    1.8433    0.0000 C   0  0  0  0  0  0  0  0  0  0  0  0
    2.1730    2.5577    0.0000 H   0  0  0  0  0  0  0  0  0  0  0  0
    1.0461    2.2558    0.0000 H   0  0  0  0  0  0  0  0  0  0  0  0
    1.3480    1.1288    0.0000 H   0  0  0  0  0  0  0  0  0  0  0  0
    2.1047    0.6935    0.0000 H   0  0  0  0  0  0  0  0  0  0  0  0
    2.8453    0.6935    0.0000 H   0  0  0  0  0  0  0  0  0  0  0  0
    3.1895    2.6683    0.0000 H   0  0  0  0  0  0  0  0  0  0  0  0
    4.9626    0.6935    0.0000 H   0  0  0  0  0  0  0  0  0  0  0  0
    5.7031    0.6935    0.0000 H   0  0  0  0  0  0  0  0  0  0  0  0
    6.4599    1.1288    0.0000 H   0  0  0  0  0  0  0  0  0  0  0  0
    6.7618    2.2558    0.0000 H   0  0  0  0  0  0  0  0  0  0  0  0
    5.6349    2.5577    0.0000 H   0  0  0  0  0  0  0  0  0  0  0  0
  1  2  1  0  0  0  0
  2  3  1  0  0  0  0
  3  4  1  0  0  0  0
  4  5  2  0  0  0  0
  4  6  1  0  0  0  0
  6  7  1  0  0  0  0
  7  8  1  0  0  0  0
  1  9  1  0  0  0  0
  1 10  1  0  0  0  0
  1 11  1  0  0  0  0
  2 12  1  0  0  0  0
  2 13  1  0  0  0  0
  3 14  1  0  0  0  0
  7 15  1  0  0  0  0
  7 16  1  0  0  0  0
  8 17  1  0  0  0  0
  8 18  1  0  0  0  0
  8 19  1  0  0  0  0
M  END
>  <InChIKey>
InChI=1S/C5H11NO2/c1-3-6-5(7)8-4-2/h3-4H2,1-2H3,(H,6,7)

>  <CASRN>
623-78-9

> <Outcome>
1

>  <Index>
1627

>  <StandardizerResult>
Clear Stereo (ID: ClearStereo)
Wedge Clean (ID: WedgeClean)
Mesomerize (ID: Mesomerize)
Tautomerize (ID: Tautomerize)
Add Explicit Hydrogens (ID: AddExplicitH)
Neutralize (ID: Neutralize)
Clean 2D (ID: Clean2D)

> <knn Distance>


> <CpId>
1627

$$$$
1628
  Mrv1532301301811342D          

  7  6  0  0  0  0            999 V2000
    1.2375   -0.7145    0.0000 C   0  0  0  0  0  0  0  0  0  0  0  0
    0.8250   -0.0000    0.0000 N   0  0  0  0  0  0  0  0  0  0  0  0
   -0.0000   -0.0000    0.0000 C   0  0  0  0  0  0  0  0  0  0  0  0
   -0.8250   -0.0000    0.0000 O   0  0  0  0  0  0  0  0  0  0  0  0
    0.5230   -1.1270    0.0000 H   0  0  0  0  0  0  0  0  0  0  0  0
    1.6500   -1.4290    0.0000 H   0  0  0  0  0  0  0  0  0  0  0  0
    1.9520   -0.3020    0.0000 H   0  0  0  0  0  0  0  0  0  0  0  0
  1  2  1  0  0  0  0
  2  3  2  0  0  0  0
  3  4  2  0  0  0  0
  1  5  1  0  0  0  0
  1  6  1  0  0  0  0
  1  7  1  0  0  0  0
M  END
>  <InChIKey>
InChI=1S/C2H3NO/c1-3-2-4/h1H3

>  <CASRN>
624-83-9

> <Outcome>
1

>  <Index>
1628

>  <StandardizerResult>
Clear Stereo (ID: ClearStereo)
Wedge Clean (ID: WedgeClean)
Mesomerize (ID: Mesomerize)
Tautomerize (ID: Tautomerize)
Add Explicit Hydrogens (ID: AddExplicitH)
Neutralize (ID: Neutralize)
Clean 2D (ID: Clean2D)

> <knn Distance>


> <CpId>
1628

$$$$
1631
  Mrv1532301301811342D          

 11 11  0  0  0  0            999 V2000
    0.7145    2.0625    0.0000 S   0  0  0  0  0  0  0  0  0  0  0  0
    0.7145    1.2375    0.0000 C   0  0  0  0  0  0  0  0  0  0  0  0
    1.4289    0.8250    0.0000 N   0  0  0  0  0  0  0  0  0  0  0  0
    1.4289    0.0000    0.0000 C   0  0  0  0  0  0  0  0  0  0  0  0
    0.7145   -0.4125    0.0000 C   0  0  0  0  0  0  0  0  0  0  0  0
    0.0000    0.0000    0.0000 C   0  0  0  0  0  0  0  0  0  0  0  0
    0.0000    0.8250    0.0000 N   0  0  0  0  0  0  0  0  0  0  0  0
    2.1434   -0.4125    0.0000 H   0  0  0  0  0  0  0  0  0  0  0  0
    0.7145   -1.2375    0.0000 H   0  0  0  0  0  0  0  0  0  0  0  0
   -0.7145   -0.4125    0.0000 H   0  0  0  0  0  0  0  0  0  0  0  0
   -0.7145    1.2375    0.0000 H   0  0  0  0  0  0  0  0  0  0  0  0
  1  2  2  0  0  0  0
  2  3  1  0  0  0  0
  3  4  2  0  0  0  0
  4  5  1  0  0  0  0
  5  6  2  0  0  0  0
  6  7  1  0  0  0  0
  2  7  1  0  0  0  0
  4  8  1  0  0  0  0
  5  9  1  0  0  0  0
  6 10  1  0  0  0  0
  7 11  1  0  0  0  0
M  END
>  <InChIKey>
InChI=1S/C4H4N2S/c7-4-5-2-1-3-6-4/h1-3H,(H,5,6,7)

>  <CASRN>
1450-85-7

> <Outcome>
1

>  <Index>
1631

>  <StandardizerResult>
Dearomatize (ID: Dearomatize)
Clear Stereo (ID: ClearStereo)
Wedge Clean (ID: WedgeClean)
Mesomerize (ID: Mesomerize)
Tautomerize (ID: Tautomerize)
Add Explicit Hydrogens (ID: AddExplicitH)
Neutralize (ID: Neutralize)
Clean 2D (ID: Clean2D)

> <knn Distance>


> <CpId>
1631

$$$$
1635
  Mrv1532301301811342D          

 43 42  0  0  0  0            999 V2000
    9.1855    6.1283    0.0000 C   0  0  0  0  0  0  0  0  0  0  0  0
    9.9000    5.7158    0.0000 C   0  0  0  0  0  0  0  0  0  0  0  0
   10.6145    6.1283    0.0000 C   0  0  0  0  0  0  0  0  0  0  0  0
   10.6145    6.9533    0.0000 O   0  0  0  0  0  0  0  0  0  0  0  0
   11.3289    5.7158    0.0000 O   0  0  0  0  0  0  0  0  0  0  0  0
   12.0434    6.1283    0.0000 C   0  0  0  0  0  0  0  0  0  0  0  0
   12.7579    5.7158    0.0000 C   0  0  0  0  0  0  0  0  0  0  0  0
   13.4723    6.1283    0.0000 O   0  0  0  0  0  0  0  0  0  0  0  0
   14.1868    5.7158    0.0000 C   0  0  0  0  0  0  0  0  0  0  0  0
   14.9013    6.1283    0.0000 C   0  0  0  0  0  0  0  0  0  0  0  0
   15.6158    5.7158    0.0000 O   0  0  0  0  0  0  0  0  0  0  0  0
   16.3302    6.1283    0.0000 C   0  0  0  0  0  0  0  0  0  0  0  0
   17.0447    5.7158    0.0000 C   0  0  0  0  0  0  0  0  0  0  0  0
   17.7592    6.1283    0.0000 O   0  0  0  0  0  0  0  0  0  0  0  0
   18.4736    5.7158    0.0000 C   0  0  0  0  0  0  0  0  0  0  0  0
   19.1881    6.1283    0.0000 C   0  0  0  0  0  0  0  0  0  0  0  0
   19.9026    5.7158    0.0000 O   0  0  0  0  0  0  0  0  0  0  0  0
   20.6171    6.1283    0.0000 C   0  0  0  0  0  0  0  0  0  0  0  0
   20.6171    6.9533    0.0000 O   0  0  0  0  0  0  0  0  0  0  0  0
   21.3315    5.7158    0.0000 C   0  0  0  0  0  0  0  0  0  0  0  0
   22.0460    6.1283    0.0000 C   0  0  0  0  0  0  0  0  0  0  0  0
    9.1855    6.9533    0.0000 H   0  0  0  0  0  0  0  0  0  0  0  0
    8.4711    5.7158    0.0000 H   0  0  0  0  0  0  0  0  0  0  0  0
    9.9000    4.8908    0.0000 H   0  0  0  0  0  0  0  0  0  0  0  0
   12.4137    6.8655    0.0000 H   0  0  0  0  0  0  0  0  0  0  0  0
   11.6731    6.8655    0.0000 H   0  0  0  0  0  0  0  0  0  0  0  0
   12.3876    4.9786    0.0000 H   0  0  0  0  0  0  0  0  0  0  0  0
   13.1281    4.9786    0.0000 H   0  0  0  0  0  0  0  0  0  0  0  0
   13.8166    4.9786    0.0000 H   0  0  0  0  0  0  0  0  0  0  0  0
   14.5571    4.9786    0.0000 H   0  0  0  0  0  0  0  0  0  0  0  0
   15.2716    6.8655    0.0000 H   0  0  0  0  0  0  0  0  0  0  0  0
   14.5310    6.8655    0.0000 H   0  0  0  0  0  0  0  0  0  0  0  0
   16.7005    6.8655    0.0000 H   0  0  0  0  0  0  0  0  0  0  0  0
   15.9600    6.8655    0.0000 H   0  0  0  0  0  0  0  0  0  0  0  0
   16.6744    4.9786    0.0000 H   0  0  0  0  0  0  0  0  0  0  0  0
   17.4150    4.9786    0.0000 H   0  0  0  0  0  0  0  0  0  0  0  0
   18.1034    4.9786    0.0000 H   0  0  0  0  0  0  0  0  0  0  0  0
   18.8439    4.9786    0.0000 H   0  0  0  0  0  0  0  0  0  0  0  0
   19.5584    6.8655    0.0000 H   0  0  0  0  0  0  0  0  0  0  0  0
   18.8179    6.8655    0.0000 H   0  0  0  0  0  0  0  0  0  0  0  0
   21.3315    4.8908    0.0000 H   0  0  0  0  0  0  0  0  0  0  0  0
   22.7605    5.7158    0.0000 H   0  0  0  0  0  0  0  0  0  0  0  0
   22.0460    6.9533    0.0000 H   0  0  0  0  0  0  0  0  0  0  0  0
  1  2  2  0  0  0  0
  2  3  1  0  0  0  0
  3  4  2  0  0  0  0
  3  5  1  0  0  0  0
  5  6  1  0  0  0  0
  6  7  1  0  0  0  0
  7  8  1  0  0  0  0
  8  9  1  0  0  0  0
  9 10  1  0  0  0  0
 10 11  1  0  0  0  0
 11 12  1  0  0  0  0
 12 13  1  0  0  0  0
 13 14  1  0  0  0  0
 14 15  1  0  0  0  0
 15 16  1  0  0  0  0
 16 17  1  0  0  0  0
 17 18  1  0  0  0  0
 18 19  2  0  0  0  0
 18 20  1  0  0  0  0
 20 21  2  0  0  0  0
  1 22  1  0  0  0  0
  1 23  1  0  0  0  0
  2 24  1  0  0  0  0
  6 25  1  0  0  0  0
  6 26  1  0  0  0  0
  7 27  1  0  0  0  0
  7 28  1  0  0  0  0
  9 29  1  0  0  0  0
  9 30  1  0  0  0  0
 10 31  1  0  0  0  0
 10 32  1  0  0  0  0
 12 33  1  0  0  0  0
 12 34  1  0  0  0  0
 13 35  1  0  0  0  0
 13 36  1  0  0  0  0
 15 37  1  0  0  0  0
 15 38  1  0  0  0  0
 16 39  1  0  0  0  0
 16 40  1  0  0  0  0
 20 41  1  0  0  0  0
 21 42  1  0  0  0  0
 21 43  1  0  0  0  0
M  END
>  <InChIKey>
InChI=1S/C14H22O7/c1-3-13(15)20-11-9-18-7-5-17-6-8-19-10-12-21-14(16)4-2/h3-4H,1-2,5-12H2

>  <UN GHS>
1

>  <CASRN>
17831-71-9

> <Outcome>
1

>  <Index>
1635

>  <StandardizerResult>
Clear Stereo (ID: ClearStereo)
Wedge Clean (ID: WedgeClean)
Mesomerize (ID: Mesomerize)
Tautomerize (ID: Tautomerize)
Add Explicit Hydrogens (ID: AddExplicitH)
Neutralize (ID: Neutralize)
Clean 2D (ID: Clean2D)

> <knn Distance>


> <CpId>
1635

$$$$
1636
  Mrv1532301301811342D          

  8  7  0  0  0  0            999 V2000
    0.1105   -2.0625    0.0000 Cl  0  0  0  0  0  0  0  0  0  0  0  0
    0.1105   -1.2375    0.0000 C   0  0  0  0  0  0  0  0  0  0  0  0
   -0.6039   -0.8250    0.0000 O   0  0  0  0  0  0  0  0  0  0  0  0
    0.8250   -0.8250    0.0000 O   0  0  0  0  0  0  0  0  0  0  0  0
    0.8250   -0.0000    0.0000 C   0  0  0  0  0  0  0  0  0  0  0  0
    0.8250    0.8250    0.0000 Cl  0  0  0  0  0  0  0  0  0  0  0  0
    1.6500   -0.0000    0.0000 Cl  0  0  0  0  0  0  0  0  0  0  0  0
   -0.0000   -0.0000    0.0000 Cl  0  0  0  0  0  0  0  0  0  0  0  0
  1  2  1  0  0  0  0
  2  3  2  0  0  0  0
  2  4  1  0  0  0  0
  4  5  1  0  0  0  0
  5  6  1  0  0  0  0
  5  7  1  0  0  0  0
  5  8  1  0  0  0  0
M  END
>  <InChIKey>
InChI=1S/C2Cl4O2/c3-1(7)8-2(4,5)6

>  <CASRN>
503-38-8

> <Outcome>
1

>  <Index>
1636

>  <StandardizerResult>
Clear Stereo (ID: ClearStereo)
Wedge Clean (ID: WedgeClean)
Mesomerize (ID: Mesomerize)
Tautomerize (ID: Tautomerize)
Clean 2D (ID: Clean2D)

> <knn Distance>


> <CpId>
1636

$$$$
1639
  Mrv1532301301811342D          

 34 35  0  0  0  0            999 V2000
    2.2901   -2.3650    0.0000 O   0  0  0  0  0  0  0  0  0  0  0  0
    1.4651   -2.3650    0.0000 P   0  0  0  0  0  0  0  0  0  0  0  0
    0.6401   -2.3650    0.0000 O   0  0  0  0  0  0  0  0  0  0  0  0
    1.4651   -3.1900    0.0000 O   0  0  0  0  0  0  0  0  0  0  0  0
    2.1796   -3.6025    0.0000 C   0  0  0  0  0  0  0  0  0  0  0  0
    2.1796   -4.4275    0.0000 C   0  0  0  0  0  0  0  0  0  0  0  0
    2.8940   -4.8400    0.0000 C   0  0  0  0  0  0  0  0  0  0  0  0
    2.8940   -5.6650    0.0000 C   0  0  0  0  0  0  0  0  0  0  0  0
    2.1796   -6.0775    0.0000 C   0  0  0  0  0  0  0  0  0  0  0  0
    1.4651   -5.6650    0.0000 C   0  0  0  0  0  0  0  0  0  0  0  0
    1.4651   -4.8400    0.0000 C   0  0  0  0  0  0  0  0  0  0  0  0
    1.4651   -1.5400    0.0000 O   0  0  0  0  0  0  0  0  0  0  0  0
    0.7506   -1.1275    0.0000 C   0  0  0  0  0  0  0  0  0  0  0  0
    0.7506   -0.3025    0.0000 C   0  0  0  0  0  0  0  0  0  0  0  0
    0.0361    0.1100    0.0000 C   0  0  0  0  0  0  0  0  0  0  0  0
    0.0361    0.9350    0.0000 C   0  0  0  0  0  0  0  0  0  0  0  0
    0.7506    1.3475    0.0000 C   0  0  0  0  0  0  0  0  0  0  0  0
    1.4651    0.9350    0.0000 C   0  0  0  0  0  0  0  0  0  0  0  0
    1.4651    0.1100    0.0000 C   0  0  0  0  0  0  0  0  0  0  0  0
    2.7026   -3.0794    0.0000 H   0  0  0  0  0  0  0  0  0  0  0  0
    2.9418   -3.9182    0.0000 H   0  0  0  0  0  0  0  0  0  0  0  0
    1.4651   -4.0150    0.0000 H   0  0  0  0  0  0  0  0  0  0  0  0
    3.7188   -4.8613    0.0000 H   0  0  0  0  0  0  0  0  0  0  0  0
    3.6085   -6.0775    0.0000 H   0  0  0  0  0  0  0  0  0  0  0  0
    2.1796   -6.9025    0.0000 H   0  0  0  0  0  0  0  0  0  0  0  0
    0.7506   -6.0775    0.0000 H   0  0  0  0  0  0  0  0  0  0  0  0
    0.6401   -4.8400    0.0000 H   0  0  0  0  0  0  0  0  0  0  0  0
   -0.0730   -1.1754    0.0000 H   0  0  0  0  0  0  0  0  0  0  0  0
    0.2973   -1.8168    0.0000 H   0  0  0  0  0  0  0  0  0  0  0  0
   -0.6783   -0.3025    0.0000 H   0  0  0  0  0  0  0  0  0  0  0  0
   -0.6783    1.3475    0.0000 H   0  0  0  0  0  0  0  0  0  0  0  0
    0.7506    2.1725    0.0000 H   0  0  0  0  0  0  0  0  0  0  0  0
    2.1796    1.3475    0.0000 H   0  0  0  0  0  0  0  0  0  0  0  0
    2.1796   -0.3025    0.0000 H   0  0  0  0  0  0  0  0  0  0  0  0
  1  2  1  0  0  0  0
  2  3  2  0  0  0  0
  2  4  1  0  0  0  0
  4  5  1  0  0  0  0
  5  6  1  0  0  0  0
  6  7  4  0  0  0  0
  7  8  4  0  0  0  0
  8  9  4  0  0  0  0
  9 10  4  0  0  0  0
 10 11  4  0  0  0  0
  6 11  4  0  0  0  0
  2 12  1  0  0  0  0
 12 13  1  0  0  0  0
 13 14  1  0  0  0  0
 14 15  4  0  0  0  0
 15 16  4  0  0  0  0
 16 17  4  0  0  0  0
 17 18  4  0  0  0  0
 18 19  4  0  0  0  0
 14 19  4  0  0  0  0
  1 20  1  0  0  0  0
  5 21  1  0  0  0  0
  5 22  1  0  0  0  0
  7 23  1  0  0  0  0
  8 24  1  0  0  0  0
  9 25  1  0  0  0  0
 10 26  1  0  0  0  0
 11 27  1  0  0  0  0
 13 28  1  0  0  0  0
 13 29  1  0  0  0  0
 15 30  1  0  0  0  0
 16 31  1  0  0  0  0
 17 32  1  0  0  0  0
 18 33  1  0  0  0  0
 19 34  1  0  0  0  0
M  END
>  <InChIKey>
InChI=1S/C14H15O4P/c15-19(16,17-11-13-7-3-1-4-8-13)18-12-14-9-5-2-6-10-14/h1-10H,11-12H2,(H,15,16)

>  <UN GHS>
2A

>  <CASRN>
1623-08-1

> <Outcome>
1

>  <Index>
1639

>  <StandardizerResult>
Dearomatize (ID: Dearomatize)
Clear Stereo (ID: ClearStereo)
Wedge Clean (ID: WedgeClean)
Mesomerize (ID: Mesomerize)
Tautomerize (ID: Tautomerize)
Aromatize (ID: Aromatize)
Add Explicit Hydrogens (ID: AddExplicitH)
Neutralize (ID: Neutralize)
Clean 2D (ID: Clean2D)

> <knn Distance>


> <CpId>
1639

$$$$
1640
  Mrv1532301301811342D          

 16 16  0  0  0  0            999 V2000
   -0.1476    2.3512    0.0000 C   0  0  0  0  0  0  0  0  0  0  0  0
    0.5668    1.9387    0.0000 C   0  0  0  0  0  0  0  0  0  0  0  0
    0.5668    1.1137    0.0000 N   0  0  0  0  0  0  0  0  0  0  0  0
    1.2343    0.6288    0.0000 C   0  0  0  0  0  0  0  0  0  0  0  0
    2.0189    0.8838    0.0000 O   0  0  0  0  0  0  0  0  0  0  0  0
    0.9793   -0.1558    0.0000 C   0  0  0  0  0  0  0  0  0  0  0  0
    0.1543   -0.1558    0.0000 C   0  0  0  0  0  0  0  0  0  0  0  0
   -0.1006    0.6288    0.0000 C   0  0  0  0  0  0  0  0  0  0  0  0
   -0.8852    0.8838    0.0000 O   0  0  0  0  0  0  0  0  0  0  0  0
    0.2649    3.0657    0.0000 H   0  0  0  0  0  0  0  0  0  0  0  0
   -0.8621    2.7637    0.0000 H   0  0  0  0  0  0  0  0  0  0  0  0
   -0.5601    1.6368    0.0000 H   0  0  0  0  0  0  0  0  0  0  0  0
    1.3904    1.9867    0.0000 H   0  0  0  0  0  0  0  0  0  0  0  0
    1.0202    2.6280    0.0000 H   0  0  0  0  0  0  0  0  0  0  0  0
    1.4643   -0.8232    0.0000 H   0  0  0  0  0  0  0  0  0  0  0  0
   -0.3306   -0.8232    0.0000 H   0  0  0  0  0  0  0  0  0  0  0  0
  1  2  1  0  0  0  0
  2  3  1  0  0  0  0
  3  4  1  0  0  0  0
  4  5  2  0  0  0  0
  4  6  1  0  0  0  0
  6  7  2  0  0  0  0
  7  8  1  0  0  0  0
  3  8  1  0  0  0  0
  8  9  2  0  0  0  0
  1 10  1  0  0  0  0
  1 11  1  0  0  0  0
  1 12  1  0  0  0  0
  2 13  1  0  0  0  0
  2 14  1  0  0  0  0
  6 15  1  0  0  0  0
  7 16  1  0  0  0  0
M  END
>  <InChIKey>
InChI=1S/C6H7NO2/c1-2-7-5(8)3-4-6(7)9/h3-4H,2H2,1H3

>  <CASRN>
128-53-0

> <Outcome>
1

>  <Index>
1640

>  <StandardizerResult>
Clear Stereo (ID: ClearStereo)
Wedge Clean (ID: WedgeClean)
Mesomerize (ID: Mesomerize)
Tautomerize (ID: Tautomerize)
Add Explicit Hydrogens (ID: AddExplicitH)
Neutralize (ID: Neutralize)
Clean 2D (ID: Clean2D)

> <knn Distance>


> <CpId>
1640

$$$$
1646
  Mrv1532301301811342D          

 22 24  0  0  0  0            999 V2000
   -0.9512    1.0769    0.0000 C   0  0  0  0  0  0  0  0  0  0  0  0
   -1.4361    0.4094    0.0000 C   0  0  0  0  0  0  0  0  0  0  0  0
   -0.9512   -0.2580    0.0000 C   0  0  0  0  0  0  0  0  0  0  0  0
   -0.1665   -0.0031    0.0000 C   0  0  0  0  0  0  0  0  0  0  0  0
    0.5479   -0.4156    0.0000 C   0  0  0  0  0  0  0  0  0  0  0  0
    0.3417    0.4094    0.0000 C   0  0  0  0  0  0  0  0  0  0  0  0
    0.5479    1.2344    0.0000 C   0  0  0  0  0  0  0  0  0  0  0  0
    1.2624    0.8219    0.0000 C   0  0  0  0  0  0  0  0  0  0  0  0
    1.2624   -0.0031    0.0000 C   0  0  0  0  0  0  0  0  0  0  0  0
   -0.1665    0.8219    0.0000 C   0  0  0  0  0  0  0  0  0  0  0  0
   -0.8079    1.8893    0.0000 H   0  0  0  0  0  0  0  0  0  0  0  0
   -1.5446    1.6500    0.0000 H   0  0  0  0  0  0  0  0  0  0  0  0
   -2.2611    0.4094    0.0000 H   0  0  0  0  0  0  0  0  0  0  0  0
   -1.2061   -1.0426    0.0000 H   0  0  0  0  0  0  0  0  0  0  0  0
   -0.2528   -0.8235    0.0000 H   0  0  0  0  0  0  0  0  0  0  0  0
    0.9416   -1.1406    0.0000 H   0  0  0  0  0  0  0  0  0  0  0  0
    1.0874    0.0566    0.0000 H   0  0  0  0  0  0  0  0  0  0  0  0
    1.0874    0.7623    0.0000 H   0  0  0  0  0  0  0  0  0  0  0  0
    0.5479    2.0594    0.0000 H   0  0  0  0  0  0  0  0  0  0  0  0
    1.9769    1.2344    0.0000 H   0  0  0  0  0  0  0  0  0  0  0  0
    1.9769   -0.4156    0.0000 H   0  0  0  0  0  0  0  0  0  0  0  0
   -0.2528    1.6424    0.0000 H   0  0  0  0  0  0  0  0  0  0  0  0
  1  2  1  0  0  0  0
  2  3  2  0  0  0  0
  3  4  1  0  0  0  0
  4  5  1  0  0  0  0
  5  6  1  0  0  0  0
  6  7  1  0  0  0  0
  7  8  1  0  0  0  0
  8  9  2  0  0  0  0
  5  9  1  0  0  0  0
  7 10  1  0  0  0  0
  1 10  1  0  0  0  0
  4 10  1  0  0  0  0
  1 11  1  0  0  0  0
  1 12  1  0  0  0  0
  2 13  1  0  0  0  0
  3 14  1  0  0  0  0
  4 15  1  0  0  0  0
  5 16  1  0  0  0  0
  6 17  1  0  0  0  0
  6 18  1  0  0  0  0
  7 19  1  0  0  0  0
  8 20  1  0  0  0  0
  9 21  1  0  0  0  0
 10 22  1  0  0  0  0
M  END
>  <InChIKey>
InChI=1S/C10H12/c1-2-9-7-4-5-8(6-7)10(9)3-1/h1-2,4-5,7-10H,3,6H2

>  <CASRN>
77-73-6

> <Outcome>
1

>  <Index>
1646

>  <StandardizerResult>
Clear Stereo (ID: ClearStereo)
Wedge Clean (ID: WedgeClean)
Mesomerize (ID: Mesomerize)
Tautomerize (ID: Tautomerize)
Add Explicit Hydrogens (ID: AddExplicitH)
Neutralize (ID: Neutralize)
Clean 2D (ID: Clean2D)

> <knn Distance>


> <CpId>
1646

$$$$
1648
  Mrv1532301301811342D          

 26 27  0  0  0  0            999 V2000
    0.7145   -0.4125    0.0000 N   0  0  0  0  0  0  0  0  0  0  0  0
    0.7145   -1.2375    0.0000 C   0  0  0  0  0  0  0  0  0  0  0  0
    1.4289   -1.6500    0.0000 C   0  0  0  0  0  0  0  0  0  0  0  0
    1.4289   -2.4750    0.0000 C   0  0  0  0  0  0  0  0  0  0  0  0
    0.7145   -2.8875    0.0000 C   0  0  0  0  0  0  0  0  0  0  0  0
    0.0000   -2.4750    0.0000 C   0  0  0  0  0  0  0  0  0  0  0  0
    0.0000   -1.6500    0.0000 C   0  0  0  0  0  0  0  0  0  0  0  0
    0.7145   -3.7125    0.0000 C   0  0  0  0  0  0  0  0  0  0  0  0
    1.4289   -4.1250    0.0000 C   0  0  0  0  0  0  0  0  0  0  0  0
    1.4289   -4.9500    0.0000 C   0  0  0  0  0  0  0  0  0  0  0  0
    0.7145   -5.3625    0.0000 C   0  0  0  0  0  0  0  0  0  0  0  0
    0.7145   -6.1875    0.0000 N   0  0  0  0  0  0  0  0  0  0  0  0
    0.0000   -4.9500    0.0000 C   0  0  0  0  0  0  0  0  0  0  0  0
    0.0000   -4.1250    0.0000 C   0  0  0  0  0  0  0  0  0  0  0  0
    1.4289    0.0000    0.0000 H   0  0  0  0  0  0  0  0  0  0  0  0
    0.0000    0.0000    0.0000 H   0  0  0  0  0  0  0  0  0  0  0  0
    2.1434   -1.2375    0.0000 H   0  0  0  0  0  0  0  0  0  0  0  0
    2.1434   -2.8875    0.0000 H   0  0  0  0  0  0  0  0  0  0  0  0
   -0.7145   -2.8875    0.0000 H   0  0  0  0  0  0  0  0  0  0  0  0
   -0.7145   -1.2375    0.0000 H   0  0  0  0  0  0  0  0  0  0  0  0
    2.1434   -3.7125    0.0000 H   0  0  0  0  0  0  0  0  0  0  0  0
    2.1434   -5.3625    0.0000 H   0  0  0  0  0  0  0  0  0  0  0  0
    0.0000   -6.6000    0.0000 H   0  0  0  0  0  0  0  0  0  0  0  0
    1.4289   -6.6000    0.0000 H   0  0  0  0  0  0  0  0  0  0  0  0
   -0.7145   -5.3625    0.0000 H   0  0  0  0  0  0  0  0  0  0  0  0
   -0.7145   -3.7125    0.0000 H   0  0  0  0  0  0  0  0  0  0  0  0
  1  2  1  0  0  0  0
  2  3  4  0  0  0  0
  3  4  4  0  0  0  0
  4  5  4  0  0  0  0
  5  6  4  0  0  0  0
  6  7  4  0  0  0  0
  2  7  4  0  0  0  0
  5  8  1  0  0  0  0
  8  9  4  0  0  0  0
  9 10  4  0  0  0  0
 10 11  4  0  0  0  0
 11 12  1  0  0  0  0
 11 13  4  0  0  0  0
 13 14  4  0  0  0  0
  8 14  4  0  0  0  0
  1 15  1  0  0  0  0
  1 16  1  0  0  0  0
  3 17  1  0  0  0  0
  4 18  1  0  0  0  0
  6 19  1  0  0  0  0
  7 20  1  0  0  0  0
  9 21  1  0  0  0  0
 10 22  1  0  0  0  0
 12 23  1  0  0  0  0
 12 24  1  0  0  0  0
 13 25  1  0  0  0  0
 14 26  1  0  0  0  0
M  END
>  <InChIKey>
InChI=1S/C12H12N2/c13-11-5-1-9(2-6-11)10-3-7-12(14)8-4-10/h1-8H,13-14H2

>  <CASRN>
92-87-5

> <Outcome>
1

>  <Index>
1648

>  <StandardizerResult>
Dearomatize (ID: Dearomatize)
Clear Stereo (ID: ClearStereo)
Wedge Clean (ID: WedgeClean)
Mesomerize (ID: Mesomerize)
Tautomerize (ID: Tautomerize)
Aromatize (ID: Aromatize)
Add Explicit Hydrogens (ID: AddExplicitH)
Neutralize (ID: Neutralize)
Clean 2D (ID: Clean2D)

> <knn Distance>


> <CpId>
1648

$$$$
1653
  Mrv1532301301811342D          

 16 15  0  0  0  0            999 V2000
   -0.1914    0.7134    0.0000 C   0  0  0  0  0  0  0  0  0  0  0  0
    0.5230    1.1259    0.0000 C   0  0  0  0  0  0  0  0  0  0  0  0
    1.2375    0.7134    0.0000 C   0  0  0  0  0  0  0  0  0  0  0  0
    1.9520    1.1259    0.0000 C   0  0  0  0  0  0  0  0  0  0  0  0
    2.6664    0.7134    0.0000 C   0  0  0  0  0  0  0  0  0  0  0  0
    3.3809    1.1259    0.0000 O   0  0  0  0  0  0  0  0  0  0  0  0
   -0.6039    1.4279    0.0000 H   0  0  0  0  0  0  0  0  0  0  0  0
   -0.9059    0.3009    0.0000 H   0  0  0  0  0  0  0  0  0  0  0  0
    0.2211   -0.0011    0.0000 H   0  0  0  0  0  0  0  0  0  0  0  0
    0.8933    1.8631    0.0000 H   0  0  0  0  0  0  0  0  0  0  0  0
    0.1528    1.8631    0.0000 H   0  0  0  0  0  0  0  0  0  0  0  0
    0.8672   -0.0239    0.0000 H   0  0  0  0  0  0  0  0  0  0  0  0
    1.6078   -0.0239    0.0000 H   0  0  0  0  0  0  0  0  0  0  0  0
    2.3222    1.8631    0.0000 H   0  0  0  0  0  0  0  0  0  0  0  0
    1.5817    1.8631    0.0000 H   0  0  0  0  0  0  0  0  0  0  0  0
    2.6664   -0.1116    0.0000 H   0  0  0  0  0  0  0  0  0  0  0  0
  1  2  1  0  0  0  0
  2  3  1  0  0  0  0
  3  4  1  0  0  0  0
  4  5  1  0  0  0  0
  5  6  2  0  0  0  0
  1  7  1  0  0  0  0
  1  8  1  0  0  0  0
  1  9  1  0  0  0  0
  2 10  1  0  0  0  0
  2 11  1  0  0  0  0
  3 12  1  0  0  0  0
  3 13  1  0  0  0  0
  4 14  1  0  0  0  0
  4 15  1  0  0  0  0
  5 16  1  0  0  0  0
M  END
>  <InChIKey>
InChI=1S/C5H10O/c1-2-3-4-5-6/h5H,2-4H2,1H3

>  <CASRN>
110-62-3

> <Outcome>
1

>  <Index>
1653

>  <StandardizerResult>
Clear Stereo (ID: ClearStereo)
Wedge Clean (ID: WedgeClean)
Mesomerize (ID: Mesomerize)
Tautomerize (ID: Tautomerize)
Add Explicit Hydrogens (ID: AddExplicitH)
Neutralize (ID: Neutralize)
Clean 2D (ID: Clean2D)

> <knn Distance>


> <CpId>
1653

$$$$
1654
  Mrv1532301301811342D          

 16 16  0  0  0  0            999 V2000
    0.7135    1.2358    0.0000 C   0  0  0  0  0  0  0  0  0  0  0  0
    1.4280    0.8233    0.0000 C   0  0  0  0  0  0  0  0  0  0  0  0
    1.4280   -0.0017    0.0000 C   0  0  0  0  0  0  0  0  0  0  0  0
    0.7135   -0.4142    0.0000 C   0  0  0  0  0  0  0  0  0  0  0  0
   -0.0010   -0.0017    0.0000 C   0  0  0  0  0  0  0  0  0  0  0  0
   -0.0010    0.8233    0.0000 C   0  0  0  0  0  0  0  0  0  0  0  0
    1.0838    1.9731    0.0000 H   0  0  0  0  0  0  0  0  0  0  0  0
    0.3433    1.9731    0.0000 H   0  0  0  0  0  0  0  0  0  0  0  0
    2.2516    0.8713    0.0000 H   0  0  0  0  0  0  0  0  0  0  0  0
    1.8813    1.5126    0.0000 H   0  0  0  0  0  0  0  0  0  0  0  0
    1.8813   -0.6909    0.0000 H   0  0  0  0  0  0  0  0  0  0  0  0
    2.2516   -0.0496    0.0000 H   0  0  0  0  0  0  0  0  0  0  0  0
    0.7135   -1.2392    0.0000 H   0  0  0  0  0  0  0  0  0  0  0  0
   -0.7154   -0.4142    0.0000 H   0  0  0  0  0  0  0  0  0  0  0  0
   -0.4543    1.5126    0.0000 H   0  0  0  0  0  0  0  0  0  0  0  0
   -0.8246    0.8713    0.0000 H   0  0  0  0  0  0  0  0  0  0  0  0
  1  2  1  0  0  0  0
  2  3  1  0  0  0  0
  3  4  1  0  0  0  0
  4  5  2  0  0  0  0
  5  6  1  0  0  0  0
  1  6  1  0  0  0  0
  1  7  1  0  0  0  0
  1  8  1  0  0  0  0
  2  9  1  0  0  0  0
  2 10  1  0  0  0  0
  3 11  1  0  0  0  0
  3 12  1  0  0  0  0
  4 13  1  0  0  0  0
  5 14  1  0  0  0  0
  6 15  1  0  0  0  0
  6 16  1  0  0  0  0
M  END
>  <InChIKey>
InChI=1S/C6H10/c1-2-4-6-5-3-1/h1-2H,3-6H2

>  <CASRN>
110-83-8

> <Outcome>
1

>  <Index>
1654

>  <StandardizerResult>
Clear Stereo (ID: ClearStereo)
Wedge Clean (ID: WedgeClean)
Mesomerize (ID: Mesomerize)
Tautomerize (ID: Tautomerize)
Add Explicit Hydrogens (ID: AddExplicitH)
Neutralize (ID: Neutralize)
Clean 2D (ID: Clean2D)

> <knn Distance>


> <CpId>
1654

$$$$
1655
  Mrv1532301301811342D          

  8  7  0  0  0  0            999 V2000
    2.0625   -0.7145    0.0000 C   0  0  0  0  0  0  0  0  0  0  0  0
    1.2375   -0.7145    0.0000 C   0  0  0  0  0  0  0  0  0  0  0  0
    0.8250   -0.0000    0.0000 C   0  0  0  0  0  0  0  0  0  0  0  0
    0.0000   -0.0000    0.0000 O   0  0  0  0  0  0  0  0  0  0  0  0
    2.4750   -1.4290    0.0000 H   0  0  0  0  0  0  0  0  0  0  0  0
    2.4750   -0.0000    0.0000 H   0  0  0  0  0  0  0  0  0  0  0  0
    0.8250   -1.4290    0.0000 H   0  0  0  0  0  0  0  0  0  0  0  0
    1.2375    0.7145    0.0000 H   0  0  0  0  0  0  0  0  0  0  0  0
  1  2  2  0  0  0  0
  2  3  1  0  0  0  0
  3  4  2  0  0  0  0
  1  5  1  0  0  0  0
  1  6  1  0  0  0  0
  2  7  1  0  0  0  0
  3  8  1  0  0  0  0
M  END
>  <InChIKey>
InChI=1S/C3H4O/c1-2-3-4/h2-3H,1H2

>  <CASRN>
107-02-8

> <Outcome>
1

>  <Index>
1655

>  <StandardizerResult>
Clear Stereo (ID: ClearStereo)
Wedge Clean (ID: WedgeClean)
Mesomerize (ID: Mesomerize)
Tautomerize (ID: Tautomerize)
Add Explicit Hydrogens (ID: AddExplicitH)
Neutralize (ID: Neutralize)
Clean 2D (ID: Clean2D)

> <knn Distance>


> <CpId>
1655

$$$$
1656
  Mrv1532301301811342D          

 22 24  0  0  0  0            999 V2000
    0.7145   -1.2375    0.0000 Cl  0  0  0  0  0  0  0  0  0  0  0  0
    1.4289   -1.6500    0.0000 C   0  0  0  0  0  0  0  0  0  0  0  0
    2.1434   -1.2375    0.0000 C   0  0  0  0  0  0  0  0  0  0  0  0
    2.8579   -1.6500    0.0000 C   0  0  0  0  0  0  0  0  0  0  0  0
    3.5724   -1.2375    0.0000 O   0  0  0  0  0  0  0  0  0  0  0  0
    4.2868   -1.6500    0.0000 C   0  0  0  0  0  0  0  0  0  0  0  0
    5.0013   -1.2375    0.0000 C   0  0  0  0  0  0  0  0  0  0  0  0
    5.7158   -1.6500    0.0000 C   0  0  0  0  0  0  0  0  0  0  0  0
    6.4302   -1.2375    0.0000 Cl  0  0  0  0  0  0  0  0  0  0  0  0
    5.7158   -2.4750    0.0000 C   0  0  0  0  0  0  0  0  0  0  0  0
    6.4302   -2.8875    0.0000 Cl  0  0  0  0  0  0  0  0  0  0  0  0
    5.0013   -2.8875    0.0000 C   0  0  0  0  0  0  0  0  0  0  0  0
    4.2868   -2.4750    0.0000 C   0  0  0  0  0  0  0  0  0  0  0  0
    3.5724   -2.8875    0.0000 O   0  0  0  0  0  0  0  0  0  0  0  0
    2.8579   -2.4750    0.0000 C   0  0  0  0  0  0  0  0  0  0  0  0
    2.1434   -2.8875    0.0000 C   0  0  0  0  0  0  0  0  0  0  0  0
    1.4289   -2.4750    0.0000 C   0  0  0  0  0  0  0  0  0  0  0  0
    0.7145   -2.8875    0.0000 Cl  0  0  0  0  0  0  0  0  0  0  0  0
    2.1434   -0.4125    0.0000 H   0  0  0  0  0  0  0  0  0  0  0  0
    5.0013   -0.4125    0.0000 H   0  0  0  0  0  0  0  0  0  0  0  0
    5.0013   -3.7125    0.0000 H   0  0  0  0  0  0  0  0  0  0  0  0
    2.1434   -3.7125    0.0000 H   0  0  0  0  0  0  0  0  0  0  0  0
  1  2  1  0  0  0  0
  2  3  4  0  0  0  0
  3  4  4  0  0  0  0
  4  5  1  0  0  0  0
  5  6  1  0  0  0  0
  6  7  4  0  0  0  0
  7  8  4  0  0  0  0
  8  9  1  0  0  0  0
  8 10  4  0  0  0  0
 10 11  1  0  0  0  0
 10 12  4  0  0  0  0
 12 13  4  0  0  0  0
  6 13  4  0  0  0  0
 13 14  1  0  0  0  0
 14 15  1  0  0  0  0
  4 15  4  0  0  0  0
 15 16  4  0  0  0  0
 16 17  4  0  0  0  0
  2 17  4  0  0  0  0
 17 18  1  0  0  0  0
  3 19  1  0  0  0  0
  7 20  1  0  0  0  0
 12 21  1  0  0  0  0
 16 22  1  0  0  0  0
M  END
>  <InChIKey>
InChI=1S/C12H4Cl4O2/c13-5-1-9-10(2-6(5)14)18-12-4-8(16)7(15)3-11(12)17-9/h1-4H

>  <CASRN>
1746-01-6

> <Outcome>
1

>  <Index>
1656

>  <StandardizerResult>
Dearomatize (ID: Dearomatize)
Clear Stereo (ID: ClearStereo)
Wedge Clean (ID: WedgeClean)
Mesomerize (ID: Mesomerize)
Tautomerize (ID: Tautomerize)
Aromatize (ID: Aromatize)
Add Explicit Hydrogens (ID: AddExplicitH)
Neutralize (ID: Neutralize)
Clean 2D (ID: Clean2D)

> <knn Distance>


> <CpId>
1656

$$$$
1659
  Mrv1532301301811342D          

 51 52  0  0  0  0            999 V2000
    3.5478   -2.0787    0.0000 C   0  0  0  0  0  0  0  0  0  0  0  0
    2.8333   -2.4912    0.0000 O   0  0  0  0  0  0  0  0  0  0  0  0
    2.8333   -3.3162    0.0000 C   0  0  0  0  0  0  0  0  0  0  0  0
    3.5478   -3.7287    0.0000 C   0  0  0  0  0  0  0  0  0  0  0  0
    3.5478   -4.5537    0.0000 C   0  0  0  0  0  0  0  0  0  0  0  0
    4.2623   -4.9662    0.0000 O   0  0  0  0  0  0  0  0  0  0  0  0
    4.2623   -5.7912    0.0000 C   0  0  0  0  0  0  0  0  0  0  0  0
    2.8333   -4.9662    0.0000 N   0  0  0  0  0  0  0  0  0  0  0  0
    2.1189   -4.5537    0.0000 C   0  0  0  0  0  0  0  0  0  0  0  0
    1.4044   -4.9662    0.0000 N   0  0  0  0  0  0  0  0  0  0  0  0
    0.6899   -4.5537    0.0000 C   0  0  0  0  0  0  0  0  0  0  0  0
    0.6899   -3.7287    0.0000 O   0  0  0  0  0  0  0  0  0  0  0  0
   -0.0245   -4.9662    0.0000 N   0  0  0  0  0  0  0  0  0  0  0  0
   -0.7390   -4.5537    0.0000 S   0  0  0  0  0  0  0  0  0  0  0  0
   -0.3265   -3.8392    0.0000 O   0  0  0  0  0  0  0  0  0  0  0  0
   -1.1515   -5.2681    0.0000 O   0  0  0  0  0  0  0  0  0  0  0  0
   -1.4535   -4.1412    0.0000 C   0  0  0  0  0  0  0  0  0  0  0  0
   -2.1680   -4.5537    0.0000 C   0  0  0  0  0  0  0  0  0  0  0  0
   -2.1680   -5.3787    0.0000 N   0  0  0  0  0  0  0  0  0  0  0  0
   -2.8824   -5.7912    0.0000 C   0  0  0  0  0  0  0  0  0  0  0  0
   -2.8824   -6.6162    0.0000 O   0  0  0  0  0  0  0  0  0  0  0  0
   -2.8824   -4.1412    0.0000 C   0  0  0  0  0  0  0  0  0  0  0  0
   -2.8824   -3.3162    0.0000 C   0  0  0  0  0  0  0  0  0  0  0  0
   -2.1680   -2.9037    0.0000 C   0  0  0  0  0  0  0  0  0  0  0  0
   -1.4535   -3.3162    0.0000 C   0  0  0  0  0  0  0  0  0  0  0  0
   -0.7390   -2.9037    0.0000 C   0  0  0  0  0  0  0  0  0  0  0  0
   -0.0245   -3.3162    0.0000 O   0  0  0  0  0  0  0  0  0  0  0  0
   -0.7390   -2.0787    0.0000 N   0  0  0  0  0  0  0  0  0  0  0  0
   -1.4535   -1.6662    0.0000 C   0  0  0  0  0  0  0  0  0  0  0  0
   -0.0245   -1.6662    0.0000 C   0  0  0  0  0  0  0  0  0  0  0  0
    2.1189   -3.7287    0.0000 N   0  0  0  0  0  0  0  0  0  0  0  0
    3.9603   -2.7931    0.0000 H   0  0  0  0  0  0  0  0  0  0  0  0
    4.2623   -1.6662    0.0000 H   0  0  0  0  0  0  0  0  0  0  0  0
    3.1353   -1.3642    0.0000 H   0  0  0  0  0  0  0  0  0  0  0  0
    4.2623   -3.3162    0.0000 H   0  0  0  0  0  0  0  0  0  0  0  0
    3.4373   -5.7912    0.0000 H   0  0  0  0  0  0  0  0  0  0  0  0
    4.2623   -6.6162    0.0000 H   0  0  0  0  0  0  0  0  0  0  0  0
    5.0873   -5.7912    0.0000 H   0  0  0  0  0  0  0  0  0  0  0  0
    1.4044   -5.7912    0.0000 H   0  0  0  0  0  0  0  0  0  0  0  0
   -0.0245   -5.7912    0.0000 H   0  0  0  0  0  0  0  0  0  0  0  0
   -1.4535   -5.7912    0.0000 H   0  0  0  0  0  0  0  0  0  0  0  0
   -3.5969   -5.3787    0.0000 H   0  0  0  0  0  0  0  0  0  0  0  0
   -3.5969   -4.5537    0.0000 H   0  0  0  0  0  0  0  0  0  0  0  0
   -3.5969   -2.9037    0.0000 H   0  0  0  0  0  0  0  0  0  0  0  0
   -2.1680   -2.0787    0.0000 H   0  0  0  0  0  0  0  0  0  0  0  0
   -0.7390   -1.2537    0.0000 H   0  0  0  0  0  0  0  0  0  0  0  0
   -1.4535   -0.8412    0.0000 H   0  0  0  0  0  0  0  0  0  0  0  0
   -2.1680   -1.2537    0.0000 H   0  0  0  0  0  0  0  0  0  0  0  0
    0.1890   -2.4631    0.0000 H   0  0  0  0  0  0  0  0  0  0  0  0
    0.8005   -1.6662    0.0000 H   0  0  0  0  0  0  0  0  0  0  0  0
    0.1890   -0.8693    0.0000 H   0  0  0  0  0  0  0  0  0  0  0  0
  1  2  1  0  0  0  0
  2  3  1  0  0  0  0
  3  4  4  0  0  0  0
  4  5  4  0  0  0  0
  5  6  1  0  0  0  0
  6  7  1  0  0  0  0
  5  8  4  0  0  0  0
  8  9  4  0  0  0  0
  9 10  1  0  0  0  0
 10 11  1  0  0  0  0
 11 12  2  0  0  0  0
 11 13  1  0  0  0  0
 13 14  1  0  0  0  0
 14 15  2  0  0  0  0
 14 16  2  0  0  0  0
 14 17  1  0  0  0  0
 17 18  4  0  0  0  0
 18 19  1  0  0  0  0
 19 20  1  0  0  0  0
 20 21  2  0  0  0  0
 18 22  4  0  0  0  0
 22 23  4  0  0  0  0
 23 24  4  0  0  0  0
 24 25  4  0  0  0  0
 17 25  4  0  0  0  0
 25 26  1  0  0  0  0
 26 27  2  0  0  0  0
 26 28  1  0  0  0  0
 28 29  1  0  0  0  0
 28 30  1  0  0  0  0
  9 31  4  0  0  0  0
  3 31  4  0  0  0  0
  1 32  1  0  0  0  0
  1 33  1  0  0  0  0
  1 34  1  0  0  0  0
  4 35  1  0  0  0  0
  7 36  1  0  0  0  0
  7 37  1  0  0  0  0
  7 38  1  0  0  0  0
 10 39  1  0  0  0  0
 13 40  1  0  0  0  0
 19 41  1  0  0  0  0
 20 42  1  0  0  0  0
 22 43  1  0  0  0  0
 23 44  1  0  0  0  0
 24 45  1  0  0  0  0
 29 46  1  0  0  0  0
 29 47  1  0  0  0  0
 29 48  1  0  0  0  0
 30 49  1  0  0  0  0
 30 50  1  0  0  0  0
 30 51  1  0  0  0  0
M  END
>  <InChIKey>
InChI=1S/C17H20N6O7S/c1-23(2)15(25)10-6-5-7-11(18-9-24)14(10)31(27,28)22-17(26)21-16-19-12(29-3)8-13(20-16)30-4/h5-9H,1-4H3,(H,18,24)(H2,19,20,21,22,26)

>  <CASRN>
173159-57-4

> <Outcome>
1

>  <Index>
1659

>  <StandardizerResult>
Dearomatize (ID: Dearomatize)
Clear Stereo (ID: ClearStereo)
Wedge Clean (ID: WedgeClean)
Mesomerize (ID: Mesomerize)
Tautomerize (ID: Tautomerize)
Aromatize (ID: Aromatize)
Add Explicit Hydrogens (ID: AddExplicitH)
Neutralize (ID: Neutralize)
Clean 2D (ID: Clean2D)

> <knn Distance>


> <CpId>
1659

$$$$
1661
  Mrv1532301301811342D          

 34 33  0  0  0  0            999 V2000
    3.7108    2.1306    0.0000 C   0  0  0  0  0  0  0  0  0  0  0  0
    3.2983    1.4161    0.0000 C   0  0  0  0  0  0  0  0  0  0  0  0
    3.7108    0.7016    0.0000 C   0  0  0  0  0  0  0  0  0  0  0  0
    2.4733    1.4161    0.0000 C   0  0  0  0  0  0  0  0  0  0  0  0
    2.0608    0.7016    0.0000 C   0  0  0  0  0  0  0  0  0  0  0  0
    1.2358    0.7016    0.0000 C   0  0  0  0  0  0  0  0  0  0  0  0
    0.8233   -0.0128    0.0000 C   0  0  0  0  0  0  0  0  0  0  0  0
    1.2358   -0.7273    0.0000 C   0  0  0  0  0  0  0  0  0  0  0  0
   -0.0017   -0.0128    0.0000 C   0  0  0  0  0  0  0  0  0  0  0  0
   -0.4142   -0.7273    0.0000 C   0  0  0  0  0  0  0  0  0  0  0  0
   -0.0017   -1.4418    0.0000 O   0  0  0  0  0  0  0  0  0  0  0  0
   -0.4142   -2.1562    0.0000 C   0  0  0  0  0  0  0  0  0  0  0  0
   -0.0017   -2.8707    0.0000 C   0  0  0  0  0  0  0  0  0  0  0  0
   -1.2392   -2.1562    0.0000 O   0  0  0  0  0  0  0  0  0  0  0  0
    4.4252    1.7181    0.0000 H   0  0  0  0  0  0  0  0  0  0  0  0
    4.1233    2.8451    0.0000 H   0  0  0  0  0  0  0  0  0  0  0  0
    2.9963    2.5431    0.0000 H   0  0  0  0  0  0  0  0  0  0  0  0
    2.9963    0.2891    0.0000 H   0  0  0  0  0  0  0  0  0  0  0  0
    4.1233   -0.0128    0.0000 H   0  0  0  0  0  0  0  0  0  0  0  0
    4.4252    1.1141    0.0000 H   0  0  0  0  0  0  0  0  0  0  0  0
    2.0608    2.1306    0.0000 H   0  0  0  0  0  0  0  0  0  0  0  0
    2.1087   -0.1220    0.0000 H   0  0  0  0  0  0  0  0  0  0  0  0
    2.7500    0.2483    0.0000 H   0  0  0  0  0  0  0  0  0  0  0  0
    1.1878    1.5253    0.0000 H   0  0  0  0  0  0  0  0  0  0  0  0
    0.5465    1.1550    0.0000 H   0  0  0  0  0  0  0  0  0  0  0  0
    0.5213   -1.1398    0.0000 H   0  0  0  0  0  0  0  0  0  0  0  0
    1.6483   -1.4418    0.0000 H   0  0  0  0  0  0  0  0  0  0  0  0
    1.9502   -0.3148    0.0000 H   0  0  0  0  0  0  0  0  0  0  0  0
   -0.4142    0.7016    0.0000 H   0  0  0  0  0  0  0  0  0  0  0  0
   -1.1515   -0.3570    0.0000 H   0  0  0  0  0  0  0  0  0  0  0  0
   -1.1515   -1.0976    0.0000 H   0  0  0  0  0  0  0  0  0  0  0  0
   -0.7162   -3.2832    0.0000 H   0  0  0  0  0  0  0  0  0  0  0  0
    0.4108   -3.5852    0.0000 H   0  0  0  0  0  0  0  0  0  0  0  0
    0.7127   -2.4582    0.0000 H   0  0  0  0  0  0  0  0  0  0  0  0
  1  2  1  0  0  0  0
  2  3  1  0  0  0  0
  2  4  2  0  0  0  0
  4  5  1  0  0  0  0
  5  6  1  0  0  0  0
  6  7  1  0  0  0  0
  7  8  1  0  0  0  0
  7  9  2  0  0  0  0
  9 10  1  4  0  0  0
 10 11  1  0  0  0  0
 11 12  1  0  0  0  0
 12 13  1  0  0  0  0
 12 14  2  0  0  0  0
  1 15  1  0  0  0  0
  1 16  1  0  0  0  0
  1 17  1  0  0  0  0
  3 18  1  0  0  0  0
  3 19  1  0  0  0  0
  3 20  1  0  0  0  0
  4 21  1  0  0  0  0
  5 22  1  0  0  0  0
  5 23  1  0  0  0  0
  6 24  1  0  0  0  0
  6 25  1  0  0  0  0
  8 26  1  0  0  0  0
  8 27  1  0  0  0  0
  8 28  1  0  0  0  0
  9 29  1  0  0  0  0
 10 30  1  0  0  0  0
 10 31  1  0  0  0  0
 13 32  1  0  0  0  0
 13 33  1  0  0  0  0
 13 34  1  0  0  0  0
M  END
>  <InChIKey>
InChI=1S/C12H20O2/c1-10(2)6-5-7-11(3)8-9-14-12(4)13/h6,8H,5,7,9H2,1-4H3

>  <CASRN>
105-87-3

> <Outcome>
1

>  <Index>
1661

>  <StandardizerResult>
Clear Stereo (ID: ClearStereo)
Wedge Clean (ID: WedgeClean)
Mesomerize (ID: Mesomerize)
Tautomerize (ID: Tautomerize)
Add Explicit Hydrogens (ID: AddExplicitH)
Neutralize (ID: Neutralize)
Clean 2D (ID: Clean2D)

> <knn Distance>


> <CpId>
1661

$$$$
1662
  Mrv1532301301811342D          

  9  8  0  0  0  0            999 V2000
    2.0635    0.7128    0.0000 Cl  0  0  0  0  0  0  0  0  0  0  0  0
    1.2385    0.7128    0.0000 C   0  0  0  0  0  0  0  0  0  0  0  0
    0.8260   -0.0017    0.0000 C   0  0  0  0  0  0  0  0  0  0  0  0
    1.2385   -0.7162    0.0000 Cl  0  0  0  0  0  0  0  0  0  0  0  0
    0.0010   -0.0017    0.0000 C   0  0  0  0  0  0  0  0  0  0  0  0
   -0.4115   -0.7162    0.0000 Cl  0  0  0  0  0  0  0  0  0  0  0  0
    1.1905    1.5364    0.0000 H   0  0  0  0  0  0  0  0  0  0  0  0
    0.5492    1.1661    0.0000 H   0  0  0  0  0  0  0  0  0  0  0  0
   -0.4115    0.7128    0.0000 H   0  0  0  0  0  0  0  0  0  0  0  0
  1  2  1  0  0  0  0
  2  3  1  0  0  0  0
  3  4  1  0  0  0  0
  3  5  2  0  0  0  0
  5  6  1  4  0  0  0
  2  7  1  0  0  0  0
  2  8  1  0  0  0  0
  5  9  1  0  0  0  0
M  END
>  <InChIKey>
InChI=1S/C3H3Cl3/c4-1-3(6)2-5/h1H,2H2

>  <CASRN>
96-19-5

> <Outcome>
1

>  <Index>
1662

>  <StandardizerResult>
Clear Stereo (ID: ClearStereo)
Wedge Clean (ID: WedgeClean)
Mesomerize (ID: Mesomerize)
Tautomerize (ID: Tautomerize)
Add Explicit Hydrogens (ID: AddExplicitH)
Neutralize (ID: Neutralize)
Clean 2D (ID: Clean2D)

> <knn Distance>


> <CpId>
1662

$$$$
1663
  Mrv1532301301811342D          

 25 26  0  0  0  0            999 V2000
    2.1762   -0.3761    0.0000 O   0  0  0  0  0  0  0  0  0  0  0  0
    2.1762   -1.2011    0.0000 C   0  0  0  0  0  0  0  0  0  0  0  0
    2.8907   -1.6136    0.0000 C   0  0  0  0  0  0  0  0  0  0  0  0
    2.8907   -2.4386    0.0000 C   0  0  0  0  0  0  0  0  0  0  0  0
    2.1762   -2.8511    0.0000 C   0  0  0  0  0  0  0  0  0  0  0  0
    1.4618   -2.4386    0.0000 C   0  0  0  0  0  0  0  0  0  0  0  0
    1.4618   -1.6136    0.0000 C   0  0  0  0  0  0  0  0  0  0  0  0
    0.7473   -1.2011    0.0000 C   0  0  0  0  0  0  0  0  0  0  0  0
    0.0328   -1.6136    0.0000 O   0  0  0  0  0  0  0  0  0  0  0  0
    0.7473   -0.3761    0.0000 C   0  0  0  0  0  0  0  0  0  0  0  0
    0.0328    0.0364    0.0000 C   0  0  0  0  0  0  0  0  0  0  0  0
    0.0328    0.8614    0.0000 C   0  0  0  0  0  0  0  0  0  0  0  0
    0.7473    1.2739    0.0000 C   0  0  0  0  0  0  0  0  0  0  0  0
    1.4618    0.8614    0.0000 C   0  0  0  0  0  0  0  0  0  0  0  0
    1.4618    0.0364    0.0000 C   0  0  0  0  0  0  0  0  0  0  0  0
    2.8907    0.0364    0.0000 H   0  0  0  0  0  0  0  0  0  0  0  0
    3.6052   -1.2011    0.0000 H   0  0  0  0  0  0  0  0  0  0  0  0
    3.6052   -2.8511    0.0000 H   0  0  0  0  0  0  0  0  0  0  0  0
    2.1762   -3.6761    0.0000 H   0  0  0  0  0  0  0  0  0  0  0  0
    0.7473   -2.8511    0.0000 H   0  0  0  0  0  0  0  0  0  0  0  0
   -0.6817   -0.3761    0.0000 H   0  0  0  0  0  0  0  0  0  0  0  0
   -0.6817    1.2739    0.0000 H   0  0  0  0  0  0  0  0  0  0  0  0
    0.7473    2.0989    0.0000 H   0  0  0  0  0  0  0  0  0  0  0  0
    2.1762    1.2739    0.0000 H   0  0  0  0  0  0  0  0  0  0  0  0
    1.4618   -0.7886    0.0000 H   0  0  0  0  0  0  0  0  0  0  0  0
  1  2  1  0  0  0  0
  2  3  4  0  0  0  0
  3  4  4  0  0  0  0
  4  5  4  0  0  0  0
  5  6  4  0  0  0  0
  6  7  4  0  0  0  0
  2  7  4  0  0  0  0
  7  8  1  0  0  0  0
  8  9  2  0  0  0  0
  8 10  1  0  0  0  0
 10 11  4  0  0  0  0
 11 12  4  0  0  0  0
 12 13  4  0  0  0  0
 13 14  4  0  0  0  0
 14 15  4  0  0  0  0
 10 15  4  0  0  0  0
  1 16  1  0  0  0  0
  3 17  1  0  0  0  0
  4 18  1  0  0  0  0
  5 19  1  0  0  0  0
  6 20  1  0  0  0  0
 11 21  1  0  0  0  0
 12 22  1  0  0  0  0
 13 23  1  0  0  0  0
 14 24  1  0  0  0  0
 15 25  1  0  0  0  0
M  END
>  <InChIKey>
InChI=1S/C13H10O2/c14-12-9-5-4-8-11(12)13(15)10-6-2-1-3-7-10/h1-9,14H

>  <CASRN>
117-99-7

> <Outcome>
1

>  <Index>
1663

>  <StandardizerResult>
Dearomatize (ID: Dearomatize)
Clear Stereo (ID: ClearStereo)
Wedge Clean (ID: WedgeClean)
Mesomerize (ID: Mesomerize)
Tautomerize (ID: Tautomerize)
Aromatize (ID: Aromatize)
Add Explicit Hydrogens (ID: AddExplicitH)
Neutralize (ID: Neutralize)
Clean 2D (ID: Clean2D)

> <knn Distance>


> <CpId>
1663

$$$$
1669
  Mrv1532301301811342D          

 16 16  0  0  0  0            999 V2000
    0.0000    2.4750    0.0000 N   0  0  0  0  0  0  0  0  0  0  0  0
    0.7145    2.0625    0.0000 N   0  0  0  0  0  0  0  0  0  0  0  0
    0.7145    1.2375    0.0000 C   0  0  0  0  0  0  0  0  0  0  0  0
    1.4289    0.8250    0.0000 C   0  0  0  0  0  0  0  0  0  0  0  0
    1.4289   -0.0000    0.0000 C   0  0  0  0  0  0  0  0  0  0  0  0
    0.7145   -0.4125    0.0000 C   0  0  0  0  0  0  0  0  0  0  0  0
    0.0000   -0.0000    0.0000 C   0  0  0  0  0  0  0  0  0  0  0  0
    0.0000    0.8250    0.0000 C   0  0  0  0  0  0  0  0  0  0  0  0
    0.0000    3.3000    0.0000 H   0  0  0  0  0  0  0  0  0  0  0  0
   -0.7145    2.0625    0.0000 H   0  0  0  0  0  0  0  0  0  0  0  0
    1.4289    2.4750    0.0000 H   0  0  0  0  0  0  0  0  0  0  0  0
    2.1434    1.2375    0.0000 H   0  0  0  0  0  0  0  0  0  0  0  0
    2.1434   -0.4125    0.0000 H   0  0  0  0  0  0  0  0  0  0  0  0
    0.7145   -1.2375    0.0000 H   0  0  0  0  0  0  0  0  0  0  0  0
   -0.7145   -0.4125    0.0000 H   0  0  0  0  0  0  0  0  0  0  0  0
   -0.7145    1.2375    0.0000 H   0  0  0  0  0  0  0  0  0  0  0  0
  1  2  1  0  0  0  0
  2  3  1  0  0  0  0
  3  4  4  0  0  0  0
  4  5  4  0  0  0  0
  5  6  4  0  0  0  0
  6  7  4  0  0  0  0
  7  8  4  0  0  0  0
  3  8  4  0  0  0  0
  1  9  1  0  0  0  0
  1 10  1  0  0  0  0
  2 11  1  0  0  0  0
  4 12  1  0  0  0  0
  5 13  1  0  0  0  0
  6 14  1  0  0  0  0
  7 15  1  0  0  0  0
  8 16  1  0  0  0  0
M  END
>  <InChIKey>
InChI=1S/C6H8N2/c7-8-6-4-2-1-3-5-6/h1-5,8H,7H2

>  <CASRN>
100-63-0

> <Outcome>
1

>  <Index>
1669

>  <StandardizerResult>
Dearomatize (ID: Dearomatize)
Clear Stereo (ID: ClearStereo)
Wedge Clean (ID: WedgeClean)
Mesomerize (ID: Mesomerize)
Tautomerize (ID: Tautomerize)
Aromatize (ID: Aromatize)
Add Explicit Hydrogens (ID: AddExplicitH)
Neutralize (ID: Neutralize)
Clean 2D (ID: Clean2D)

> <knn Distance>


> <CpId>
1669

$$$$
1676
  Mrv1532301301811342D          

 24 23  0  0  0  0            999 V2000
    0.0495   -2.0405    0.0000 C   0  0  0  0  0  0  0  0  0  0  0  0
    0.0495   -1.2155    0.0000 C   0  0  0  0  0  0  0  0  0  0  0  0
    0.7639   -0.8030    0.0000 C   0  0  0  0  0  0  0  0  0  0  0  0
    1.4784   -1.2155    0.0000 O   0  0  0  0  0  0  0  0  0  0  0  0
    0.7639    0.0220    0.0000 C   0  0  0  0  0  0  0  0  0  0  0  0
    0.7639    0.8470    0.0000 C   0  0  0  0  0  0  0  0  0  0  0  0
    1.5889    0.0220    0.0000 C   0  0  0  0  0  0  0  0  0  0  0  0
   -0.0611    0.0220    0.0000 C   0  0  0  0  0  0  0  0  0  0  0  0
   -0.7755   -2.0405    0.0000 H   0  0  0  0  0  0  0  0  0  0  0  0
    0.0495   -2.8655    0.0000 H   0  0  0  0  0  0  0  0  0  0  0  0
    0.8745   -2.0405    0.0000 H   0  0  0  0  0  0  0  0  0  0  0  0
   -0.4039   -0.5262    0.0000 H   0  0  0  0  0  0  0  0  0  0  0  0
   -0.7741   -1.1675    0.0000 H   0  0  0  0  0  0  0  0  0  0  0  0
    0.7639   -1.6280    0.0000 H   0  0  0  0  0  0  0  0  0  0  0  0
    2.3034   -1.2155    0.0000 H   0  0  0  0  0  0  0  0  0  0  0  0
    1.5889    0.8470    0.0000 H   0  0  0  0  0  0  0  0  0  0  0  0
    0.7639    1.6720    0.0000 H   0  0  0  0  0  0  0  0  0  0  0  0
   -0.0611    0.8470    0.0000 H   0  0  0  0  0  0  0  0  0  0  0  0
    1.2732   -0.7402    0.0000 H   0  0  0  0  0  0  0  0  0  0  0  0
    2.1723   -0.5613    0.0000 H   0  0  0  0  0  0  0  0  0  0  0  0
    2.3511    0.3378    0.0000 H   0  0  0  0  0  0  0  0  0  0  0  0
   -0.6868    0.5597    0.0000 H   0  0  0  0  0  0  0  0  0  0  0  0
   -0.8767   -0.1021    0.0000 H   0  0  0  0  0  0  0  0  0  0  0  0
    0.3388   -0.6996    0.0000 H   0  0  0  0  0  0  0  0  0  0  0  0
  1  2  1  0  0  0  0
  2  3  1  0  0  0  0
  3  4  1  0  0  0  0
  3  5  1  0  0  0  0
  5  6  1  0  0  0  0
  5  7  1  0  0  0  0
  5  8  1  0  0  0  0
  1  9  1  0  0  0  0
  1 10  1  0  0  0  0
  1 11  1  0  0  0  0
  2 12  1  0  0  0  0
  2 13  1  0  0  0  0
  3 14  1  0  0  0  0
  4 15  1  0  0  0  0
  6 16  1  0  0  0  0
  6 17  1  0  0  0  0
  6 18  1  0  0  0  0
  7 19  1  0  0  0  0
  7 20  1  0  0  0  0
  7 21  1  0  0  0  0
  8 22  1  0  0  0  0
  8 23  1  0  0  0  0
  8 24  1  0  0  0  0
M  END
>  <InChIKey>
InChI=1S/C7H16O/c1-5-6(8)7(2,3)4/h6,8H,5H2,1-4H3

>  <CASRN>
3970-62-5  3970-62-5

> <Outcome>
1

>  <Index>
1676

>  <StandardizerResult>
Clear Stereo (ID: ClearStereo)
Wedge Clean (ID: WedgeClean)
Mesomerize (ID: Mesomerize)
Tautomerize (ID: Tautomerize)
Add Explicit Hydrogens (ID: AddExplicitH)
Neutralize (ID: Neutralize)
Clean 2D (ID: Clean2D)

> <knn Distance>


> <CpId>
1676

$$$$
1681
  Mrv1532301301811342D          

 13 13  0  0  0  0            999 V2000
    0.7145    2.0625    0.0000 O   0  0  0  0  0  0  0  0  0  0  0  0
    0.7145    1.2375    0.0000 C   0  0  0  0  0  0  0  0  0  0  0  0
    1.4289    0.8250    0.0000 C   0  0  0  0  0  0  0  0  0  0  0  0
    1.4289    0.0000    0.0000 C   0  0  0  0  0  0  0  0  0  0  0  0
    0.7145   -0.4125    0.0000 C   0  0  0  0  0  0  0  0  0  0  0  0
   -0.0000    0.0000    0.0000 C   0  0  0  0  0  0  0  0  0  0  0  0
   -0.7145   -0.4125    0.0000 Cl  0  0  0  0  0  0  0  0  0  0  0  0
   -0.0000    0.8250    0.0000 C   0  0  0  0  0  0  0  0  0  0  0  0
    1.4289    2.4750    0.0000 H   0  0  0  0  0  0  0  0  0  0  0  0
    2.1434    1.2375    0.0000 H   0  0  0  0  0  0  0  0  0  0  0  0
    2.1434   -0.4125    0.0000 H   0  0  0  0  0  0  0  0  0  0  0  0
    0.7145   -1.2375    0.0000 H   0  0  0  0  0  0  0  0  0  0  0  0
   -0.7145    1.2375    0.0000 H   0  0  0  0  0  0  0  0  0  0  0  0
  1  2  1  0  0  0  0
  2  3  4  0  0  0  0
  3  4  4  0  0  0  0
  4  5  4  0  0  0  0
  5  6  4  0  0  0  0
  6  7  1  0  0  0  0
  6  8  4  0  0  0  0
  2  8  4  0  0  0  0
  1  9  1  0  0  0  0
  3 10  1  0  0  0  0
  4 11  1  0  0  0  0
  5 12  1  0  0  0  0
  8 13  1  0  0  0  0
M  END
>  <InChIKey>
InChI=1S/C6H5ClO/c7-5-2-1-3-6(8)4-5/h1-4,8H

>  <CASRN>
108-43-0

> <Outcome>
1

>  <Index>
1681

>  <StandardizerResult>
Dearomatize (ID: Dearomatize)
Clear Stereo (ID: ClearStereo)
Wedge Clean (ID: WedgeClean)
Mesomerize (ID: Mesomerize)
Tautomerize (ID: Tautomerize)
Aromatize (ID: Aromatize)
Add Explicit Hydrogens (ID: AddExplicitH)
Neutralize (ID: Neutralize)
Clean 2D (ID: Clean2D)

> <knn Distance>


> <CpId>
1681

$$$$
1688
  Mrv1532301301811342D          

 52 52  0  0  0  0            999 V2000
   -4.3972    5.3626    0.0000 C   0  0  0  0  0  0  0  0  0  0  0  0
   -3.6827    4.9501    0.0000 C   0  0  0  0  0  0  0  0  0  0  0  0
   -3.6827    4.1251    0.0000 C   0  0  0  0  0  0  0  0  0  0  0  0
   -2.9683    3.7126    0.0000 C   0  0  0  0  0  0  0  0  0  0  0  0
   -2.9683    2.8876    0.0000 C   0  0  0  0  0  0  0  0  0  0  0  0
   -2.2538    2.4751    0.0000 C   0  0  0  0  0  0  0  0  0  0  0  0
   -2.2538    1.6501    0.0000 C   0  0  0  0  0  0  0  0  0  0  0  0
   -1.5393    1.2376    0.0000 C   0  0  0  0  0  0  0  0  0  0  0  0
   -1.5393    0.4126    0.0000 C   0  0  0  0  0  0  0  0  0  0  0  0
   -1.1268   -0.3019    0.0000 C   0  0  0  0  0  0  0  0  0  0  0  0
   -0.4123   -0.7144    0.0000 C   0  0  0  0  0  0  0  0  0  0  0  0
    0.3021   -0.3019    0.0000 C   0  0  0  0  0  0  0  0  0  0  0  0
    1.0166   -0.7144    0.0000 C   0  0  0  0  0  0  0  0  0  0  0  0
    1.7311   -0.3019    0.0000 C   0  0  0  0  0  0  0  0  0  0  0  0
    2.4455   -0.7144    0.0000 C   0  0  0  0  0  0  0  0  0  0  0  0
    3.1600   -0.3019    0.0000 C   0  0  0  0  0  0  0  0  0  0  0  0
    3.8745   -0.7144    0.0000 C   0  0  0  0  0  0  0  0  0  0  0  0
    4.5890   -0.3019    0.0000 O   0  0  0  0  0  0  0  0  0  0  0  0
    3.8745   -1.5394    0.0000 O   0  0  0  0  0  0  0  0  0  0  0  0
   -1.9518   -0.3019    0.0000 C   0  0  0  0  0  0  0  0  0  0  0  0
   -3.9847    6.0770    0.0000 H   0  0  0  0  0  0  0  0  0  0  0  0
   -5.1117    5.7751    0.0000 H   0  0  0  0  0  0  0  0  0  0  0  0
   -4.8097    4.6481    0.0000 H   0  0  0  0  0  0  0  0  0  0  0  0
   -2.8591    4.9980    0.0000 H   0  0  0  0  0  0  0  0  0  0  0  0
   -3.2294    5.6394    0.0000 H   0  0  0  0  0  0  0  0  0  0  0  0
   -4.5063    4.0771    0.0000 H   0  0  0  0  0  0  0  0  0  0  0  0
   -4.1361    3.4358    0.0000 H   0  0  0  0  0  0  0  0  0  0  0  0
   -2.1447    3.7605    0.0000 H   0  0  0  0  0  0  0  0  0  0  0  0
   -2.5149    4.4019    0.0000 H   0  0  0  0  0  0  0  0  0  0  0  0
   -3.7919    2.8396    0.0000 H   0  0  0  0  0  0  0  0  0  0  0  0
   -3.4216    2.1983    0.0000 H   0  0  0  0  0  0  0  0  0  0  0  0
   -1.4302    2.5230    0.0000 H   0  0  0  0  0  0  0  0  0  0  0  0
   -1.8004    3.1644    0.0000 H   0  0  0  0  0  0  0  0  0  0  0  0
   -3.0774    1.6021    0.0000 H   0  0  0  0  0  0  0  0  0  0  0  0
   -2.7071    0.9608    0.0000 H   0  0  0  0  0  0  0  0  0  0  0  0
   -0.7157    1.2855    0.0000 H   0  0  0  0  0  0  0  0  0  0  0  0
   -1.0860    1.9269    0.0000 H   0  0  0  0  0  0  0  0  0  0  0  0
   -0.7826   -1.4516    0.0000 H   0  0  0  0  0  0  0  0  0  0  0  0
   -0.0421   -1.4516    0.0000 H   0  0  0  0  0  0  0  0  0  0  0  0
    0.6724    0.4354    0.0000 H   0  0  0  0  0  0  0  0  0  0  0  0
   -0.0681    0.4354    0.0000 H   0  0  0  0  0  0  0  0  0  0  0  0
    0.6463   -1.4516    0.0000 H   0  0  0  0  0  0  0  0  0  0  0  0
    1.3869   -1.4516    0.0000 H   0  0  0  0  0  0  0  0  0  0  0  0
    2.1013    0.4354    0.0000 H   0  0  0  0  0  0  0  0  0  0  0  0
    1.3608    0.4354    0.0000 H   0  0  0  0  0  0  0  0  0  0  0  0
    2.0753   -1.4516    0.0000 H   0  0  0  0  0  0  0  0  0  0  0  0
    2.8158   -1.4516    0.0000 H   0  0  0  0  0  0  0  0  0  0  0  0
    3.5303    0.4354    0.0000 H   0  0  0  0  0  0  0  0  0  0  0  0
    2.7897    0.4354    0.0000 H   0  0  0  0  0  0  0  0  0  0  0  0
    5.3034   -0.7144    0.0000 H   0  0  0  0  0  0  0  0  0  0  0  0
   -2.7754   -0.2539    0.0000 H   0  0  0  0  0  0  0  0  0  0  0  0
   -2.3221   -1.0391    0.0000 H   0  0  0  0  0  0  0  0  0  0  0  0
  1  2  1  0  0  0  0
  2  3  1  0  0  0  0
  3  4  1  0  0  0  0
  4  5  1  0  0  0  0
  5  6  1  0  0  0  0
  6  7  1  0  0  0  0
  7  8  1  0  0  0  0
  8  9  1  0  0  0  0
  9 10  2  0  0  0  0
 10 11  1  0  0  0  0
 11 12  1  0  0  0  0
 12 13  1  0  0  0  0
 13 14  1  0  0  0  0
 14 15  1  0  0  0  0
 15 16  1  0  0  0  0
 16 17  1  0  0  0  0
 17 18  1  0  0  0  0
 17 19  2  0  0  0  0
 10 20  1  0  0  0  0
  9 20  1  0  0  0  0
  1 21  1  0  0  0  0
  1 22  1  0  0  0  0
  1 23  1  0  0  0  0
  2 24  1  0  0  0  0
  2 25  1  0  0  0  0
  3 26  1  0  0  0  0
  3 27  1  0  0  0  0
  4 28  1  0  0  0  0
  4 29  1  0  0  0  0
  5 30  1  0  0  0  0
  5 31  1  0  0  0  0
  6 32  1  0  0  0  0
  6 33  1  0  0  0  0
  7 34  1  0  0  0  0
  7 35  1  0  0  0  0
  8 36  1  0  0  0  0
  8 37  1  0  0  0  0
 11 38  1  0  0  0  0
 11 39  1  0  0  0  0
 12 40  1  0  0  0  0
 12 41  1  0  0  0  0
 13 42  1  0  0  0  0
 13 43  1  0  0  0  0
 14 44  1  0  0  0  0
 14 45  1  0  0  0  0
 15 46  1  0  0  0  0
 15 47  1  0  0  0  0
 16 48  1  0  0  0  0
 16 49  1  0  0  0  0
 18 50  1  0  0  0  0
 20 51  1  0  0  0  0
 20 52  1  0  0  0  0
M  END
>  <InChIKey>
InChI=1S/C18H32O2/c1-2-3-4-5-6-9-12-16-15-17(16)13-10-7-8-11-14-18(19)20/h2-15H2,1H3,(H,19,20)

>  <CASRN>
503-05-9

> <Outcome>
1

>  <Index>
1688

>  <StandardizerResult>
Clear Stereo (ID: ClearStereo)
Wedge Clean (ID: WedgeClean)
Mesomerize (ID: Mesomerize)
Tautomerize (ID: Tautomerize)
Add Explicit Hydrogens (ID: AddExplicitH)
Neutralize (ID: Neutralize)
Clean 2D (ID: Clean2D)

> <knn Distance>


> <CpId>
1688

$$$$
1689
  Mrv1532301301811342D          

 16 15  0  0  0  0            999 V2000
    2.4744   -1.4299    0.0000 C   0  0  0  0  0  0  0  0  0  0  0  0
    2.0619   -0.7154    0.0000 C   0  0  0  0  0  0  0  0  0  0  0  0
    1.2369   -0.7154    0.0000 C   0  0  0  0  0  0  0  0  0  0  0  0
    0.8244   -0.0010    0.0000 C   0  0  0  0  0  0  0  0  0  0  0  0
   -0.0006   -0.0010    0.0000 N   0  0  0  0  0  0  0  0  0  0  0  0
    1.7600   -1.8424    0.0000 H   0  0  0  0  0  0  0  0  0  0  0  0
    2.8869   -2.1444    0.0000 H   0  0  0  0  0  0  0  0  0  0  0  0
    3.1889   -1.0174    0.0000 H   0  0  0  0  0  0  0  0  0  0  0  0
    2.7512   -0.2621    0.0000 H   0  0  0  0  0  0  0  0  0  0  0  0
    2.1099    0.1082    0.0000 H   0  0  0  0  0  0  0  0  0  0  0  0
    0.5477   -1.1688    0.0000 H   0  0  0  0  0  0  0  0  0  0  0  0
    1.1890   -1.5390    0.0000 H   0  0  0  0  0  0  0  0  0  0  0  0
    1.5137    0.4524    0.0000 H   0  0  0  0  0  0  0  0  0  0  0  0
    0.8724    0.8227    0.0000 H   0  0  0  0  0  0  0  0  0  0  0  0
   -0.4131    0.7135    0.0000 H   0  0  0  0  0  0  0  0  0  0  0  0
   -0.4131   -0.7154    0.0000 H   0  0  0  0  0  0  0  0  0  0  0  0
  1  2  1  0  0  0  0
  2  3  1  0  0  0  0
  3  4  1  0  0  0  0
  4  5  1  0  0  0  0
  1  6  1  0  0  0  0
  1  7  1  0  0  0  0
  1  8  1  0  0  0  0
  2  9  1  0  0  0  0
  2 10  1  0  0  0  0
  3 11  1  0  0  0  0
  3 12  1  0  0  0  0
  4 13  1  0  0  0  0
  4 14  1  0  0  0  0
  5 15  1  0  0  0  0
  5 16  1  0  0  0  0
M  END
>  <InChIKey>
InChI=1S/C4H11N/c1-2-3-4-5/h2-5H2,1H3

>  <CASRN>
109-73-9

> <Outcome>
1

>  <Index>
1689

>  <StandardizerResult>
Clear Stereo (ID: ClearStereo)
Wedge Clean (ID: WedgeClean)
Mesomerize (ID: Mesomerize)
Tautomerize (ID: Tautomerize)
Add Explicit Hydrogens (ID: AddExplicitH)
Neutralize (ID: Neutralize)
Clean 2D (ID: Clean2D)

> <knn Distance>


> <CpId>
1689

$$$$
1692
  Mrv1532301301811342D          

 23 23  0  0  0  0            999 V2000
   -0.7145    3.7125    0.0000 C   0  0  0  0  0  0  0  0  0  0  0  0
   -0.7145    2.8875    0.0000 O   0  0  0  0  0  0  0  0  0  0  0  0
   -0.0000    2.4750    0.0000 P   0  0  0  0  0  0  0  0  0  0  0  0
   -0.4125    1.7605    0.0000 S   0  0  0  0  0  0  0  0  0  0  0  0
    0.4125    3.1895    0.0000 O   0  0  0  0  0  0  0  0  0  0  0  0
    1.2375    3.1895    0.0000 C   0  0  0  0  0  0  0  0  0  0  0  0
    0.7145    2.0625    0.0000 O   0  0  0  0  0  0  0  0  0  0  0  0
    0.7145    1.2375    0.0000 C   0  0  0  0  0  0  0  0  0  0  0  0
    1.4289    0.8250    0.0000 N   0  0  0  0  0  0  0  0  0  0  0  0
    1.4289    0.0000    0.0000 C   0  0  0  0  0  0  0  0  0  0  0  0
    2.1434   -0.4125    0.0000 Cl  0  0  0  0  0  0  0  0  0  0  0  0
    0.7145   -0.4125    0.0000 C   0  0  0  0  0  0  0  0  0  0  0  0
    0.7145   -1.2375    0.0000 Cl  0  0  0  0  0  0  0  0  0  0  0  0
   -0.0000    0.0000    0.0000 C   0  0  0  0  0  0  0  0  0  0  0  0
   -0.0000    0.8250    0.0000 C   0  0  0  0  0  0  0  0  0  0  0  0
   -0.7145    1.2375    0.0000 Cl  0  0  0  0  0  0  0  0  0  0  0  0
    0.1105    3.7125    0.0000 H   0  0  0  0  0  0  0  0  0  0  0  0
   -0.7145    4.5375    0.0000 H   0  0  0  0  0  0  0  0  0  0  0  0
   -1.5395    3.7125    0.0000 H   0  0  0  0  0  0  0  0  0  0  0  0
    1.2375    2.3645    0.0000 H   0  0  0  0  0  0  0  0  0  0  0  0
    2.0625    3.1895    0.0000 H   0  0  0  0  0  0  0  0  0  0  0  0
    1.2375    4.0145    0.0000 H   0  0  0  0  0  0  0  0  0  0  0  0
   -0.7145   -0.4125    0.0000 H   0  0  0  0  0  0  0  0  0  0  0  0
  1  2  1  0  0  0  0
  2  3  1  0  0  0  0
  3  4  2  0  0  0  0
  3  5  1  0  0  0  0
  5  6  1  0  0  0  0
  3  7  1  0  0  0  0
  7  8  1  0  0  0  0
  8  9  4  0  0  0  0
  9 10  4  0  0  0  0
 10 11  1  0  0  0  0
 10 12  4  0  0  0  0
 12 13  1  0  0  0  0
 12 14  4  0  0  0  0
 14 15  4  0  0  0  0
  8 15  4  0  0  0  0
 15 16  1  0  0  0  0
  1 17  1  0  0  0  0
  1 18  1  0  0  0  0
  1 19  1  0  0  0  0
  6 20  1  0  0  0  0
  6 21  1  0  0  0  0
  6 22  1  0  0  0  0
 14 23  1  0  0  0  0
M  END
>  <InChIKey>
InChI=1S/C7H7Cl3NO3PS/c1-12-15(16,13-2)14-7-5(9)3-4(8)6(10)11-7/h3H,1-2H3

>  <CASRN>
5598-13-0

> <Outcome>
1

>  <Index>
1692

>  <StandardizerResult>
Dearomatize (ID: Dearomatize)
Clear Stereo (ID: ClearStereo)
Wedge Clean (ID: WedgeClean)
Mesomerize (ID: Mesomerize)
Tautomerize (ID: Tautomerize)
Aromatize (ID: Aromatize)
Add Explicit Hydrogens (ID: AddExplicitH)
Neutralize (ID: Neutralize)
Clean 2D (ID: Clean2D)

> <knn Distance>


> <CpId>
1692

$$$$
1693
  Mrv1532301301811342D          

  9  8  0  0  0  0            999 V2000
    2.4730   -1.4323    0.0000 Cl  0  0  0  0  0  0  0  0  0  0  0  0
    2.0605   -0.7179    0.0000 C   0  0  0  0  0  0  0  0  0  0  0  0
    1.2355   -0.7179    0.0000 O   0  0  0  0  0  0  0  0  0  0  0  0
    0.8230   -0.0034    0.0000 C   0  0  0  0  0  0  0  0  0  0  0  0
   -0.0020   -0.0034    0.0000 Cl  0  0  0  0  0  0  0  0  0  0  0  0
    2.7498   -0.2645    0.0000 H   0  0  0  0  0  0  0  0  0  0  0  0
    2.1085    0.1057    0.0000 H   0  0  0  0  0  0  0  0  0  0  0  0
    1.5123    0.4499    0.0000 H   0  0  0  0  0  0  0  0  0  0  0  0
    0.8710    0.8202    0.0000 H   0  0  0  0  0  0  0  0  0  0  0  0
  1  2  1  0  0  0  0
  2  3  1  0  0  0  0
  3  4  1  0  0  0  0
  4  5  1  0  0  0  0
  2  6  1  0  0  0  0
  2  7  1  0  0  0  0
  4  8  1  0  0  0  0
  4  9  1  0  0  0  0
M  END
>  <InChIKey>
InChI=1S/C2H4Cl2O/c3-1-5-2-4/h1-2H2

>  <CASRN>
542-88-1

> <Outcome>
1

>  <Index>
1693

>  <StandardizerResult>
Clear Stereo (ID: ClearStereo)
Wedge Clean (ID: WedgeClean)
Mesomerize (ID: Mesomerize)
Tautomerize (ID: Tautomerize)
Add Explicit Hydrogens (ID: AddExplicitH)
Neutralize (ID: Neutralize)
Clean 2D (ID: Clean2D)

> <knn Distance>


> <CpId>
1693

$$$$
1695
  Mrv1532301301811342D          

  8  7  0  0  0  0            999 V2000
    1.7604   -1.4273    0.0000 C   0  0  0  0  0  0  0  0  0  0  0  0
    1.3479   -0.7128    0.0000 C   0  0  0  0  0  0  0  0  0  0  0  0
    0.5229   -0.7128    0.0000 Cl  0  0  0  0  0  0  0  0  0  0  0  0
    1.0459   -1.8398    0.0000 H   0  0  0  0  0  0  0  0  0  0  0  0
    2.1729   -2.1418    0.0000 H   0  0  0  0  0  0  0  0  0  0  0  0
    2.4749   -1.0148    0.0000 H   0  0  0  0  0  0  0  0  0  0  0  0
    2.0372   -0.2595    0.0000 H   0  0  0  0  0  0  0  0  0  0  0  0
    1.3959    0.1108    0.0000 H   0  0  0  0  0  0  0  0  0  0  0  0
  1  2  1  0  0  0  0
  2  3  1  0  0  0  0
  1  4  1  0  0  0  0
  1  5  1  0  0  0  0
  1  6  1  0  0  0  0
  2  7  1  0  0  0  0
  2  8  1  0  0  0  0
M  END
>  <InChIKey>
InChI=1S/C2H5Cl/c1-2-3/h2H2,1H3

>  <CASRN>
75-00-3

> <Outcome>
1

>  <Index>
1695

>  <StandardizerResult>
Mesomerize (ID: Mesomerize)
Tautomerize (ID: Tautomerize)
Add Explicit Hydrogens (ID: AddExplicitH)
Neutralize (ID: Neutralize)
Clean 2D (ID: Clean2D)

> <knn Distance>


> <CpId>
1695

$$$$
1703
  Mrv1532301301811342D          

 28 31  0  0  0  0            999 V2000
    2.1434    2.0625    0.0000 O   0  0  0  0  0  0  0  0  0  0  0  0
    2.1434    1.2375    0.0000 C   0  0  0  0  0  0  0  0  0  0  0  0
    2.8579    0.8250    0.0000 C   0  0  0  0  0  0  0  0  0  0  0  0
    3.5724    1.2375    0.0000 C   0  0  0  0  0  0  0  0  0  0  0  0
    4.2868    0.8250    0.0000 C   0  0  0  0  0  0  0  0  0  0  0  0
    4.2868    0.0000    0.0000 C   0  0  0  0  0  0  0  0  0  0  0  0
    3.5724   -0.4125    0.0000 C   0  0  0  0  0  0  0  0  0  0  0  0
    2.8579    0.0000    0.0000 C   0  0  0  0  0  0  0  0  0  0  0  0
    2.1434   -0.4125    0.0000 C   0  0  0  0  0  0  0  0  0  0  0  0
    2.1434   -1.2375    0.0000 C   0  0  0  0  0  0  0  0  0  0  0  0
    1.4289   -1.6500    0.0000 C   0  0  0  0  0  0  0  0  0  0  0  0
    0.7145   -1.2375    0.0000 C   0  0  0  0  0  0  0  0  0  0  0  0
    0.7145   -0.4125    0.0000 C   0  0  0  0  0  0  0  0  0  0  0  0
    0.0000    0.0000    0.0000 C   0  0  0  0  0  0  0  0  0  0  0  0
    0.0000    0.8250    0.0000 C   0  0  0  0  0  0  0  0  0  0  0  0
    0.7145    1.2375    0.0000 C   0  0  0  0  0  0  0  0  0  0  0  0
    1.4289    0.8250    0.0000 C   0  0  0  0  0  0  0  0  0  0  0  0
    1.4289    0.0000    0.0000 C   0  0  0  0  0  0  0  0  0  0  0  0
    3.5724    2.0625    0.0000 H   0  0  0  0  0  0  0  0  0  0  0  0
    5.0013    1.2375    0.0000 H   0  0  0  0  0  0  0  0  0  0  0  0
    5.0013   -0.4125    0.0000 H   0  0  0  0  0  0  0  0  0  0  0  0
    3.5724   -1.2375    0.0000 H   0  0  0  0  0  0  0  0  0  0  0  0
    2.8579   -1.6500    0.0000 H   0  0  0  0  0  0  0  0  0  0  0  0
    1.4289   -2.4750    0.0000 H   0  0  0  0  0  0  0  0  0  0  0  0
    0.0000   -1.6500    0.0000 H   0  0  0  0  0  0  0  0  0  0  0  0
   -0.7145   -0.4125    0.0000 H   0  0  0  0  0  0  0  0  0  0  0  0
   -0.7145    1.2375    0.0000 H   0  0  0  0  0  0  0  0  0  0  0  0
    0.7145    2.0625    0.0000 H   0  0  0  0  0  0  0  0  0  0  0  0
  1  2  2  0  0  0  0
  2  3  1  0  0  0  0
  3  4  4  0  0  0  0
  4  5  4  0  0  0  0
  5  6  4  0  0  0  0
  6  7  4  0  0  0  0
  7  8  4  0  0  0  0
  3  8  4  0  0  0  0
  8  9  1  0  0  0  0
  9 10  4  0  0  0  0
 10 11  4  0  0  0  0
 11 12  4  0  0  0  0
 12 13  4  0  0  0  0
 13 14  4  0  0  0  0
 14 15  4  0  0  0  0
 15 16  4  0  0  0  0
 16 17  4  0  0  0  0
  2 17  1  0  0  0  0
 17 18  4  0  0  0  0
  9 18  4  0  0  0  0
 13 18  4  0  0  0  0
  4 19  1  0  0  0  0
  5 20  1  0  0  0  0
  6 21  1  0  0  0  0
  7 22  1  0  0  0  0
 10 23  1  0  0  0  0
 11 24  1  0  0  0  0
 12 25  1  0  0  0  0
 14 26  1  0  0  0  0
 15 27  1  0  0  0  0
 16 28  1  0  0  0  0
M  END
>  <InChIKey>
InChI=1S/C17H10O/c18-17-14-8-2-1-7-12(14)13-9-3-5-11-6-4-10-15(17)16(11)13/h1-10H

>  <CASRN>
82-05-3

> <Outcome>
1

>  <Index>
1703

>  <StandardizerResult>
Dearomatize (ID: Dearomatize)
Clear Stereo (ID: ClearStereo)
Wedge Clean (ID: WedgeClean)
Mesomerize (ID: Mesomerize)
Tautomerize (ID: Tautomerize)
Aromatize (ID: Aromatize)
Add Explicit Hydrogens (ID: AddExplicitH)
Neutralize (ID: Neutralize)
Clean 2D (ID: Clean2D)

> <knn Distance>


> <CpId>
1703

$$$$
1704
  Mrv1532301301811342D          

 21 20  0  0  0  0            999 V2000
    0.5022    0.4814    0.0000 C   0  0  0  0  0  0  0  0  0  0  0  0
    1.2167    0.0689    0.0000 N   0  0  0  0  0  0  0  0  0  0  0  0
    1.2167   -0.7561    0.0000 C   0  0  0  0  0  0  0  0  0  0  0  0
    1.9312   -1.1686    0.0000 C   0  0  0  0  0  0  0  0  0  0  0  0
    1.9312   -1.9936    0.0000 O   0  0  0  0  0  0  0  0  0  0  0  0
    2.6457   -2.4061    0.0000 C   0  0  0  0  0  0  0  0  0  0  0  0
    2.6457   -0.7561    0.0000 O   0  0  0  0  0  0  0  0  0  0  0  0
    3.3601   -1.1686    0.0000 C   0  0  0  0  0  0  0  0  0  0  0  0
    0.9147    1.1959    0.0000 H   0  0  0  0  0  0  0  0  0  0  0  0
   -0.2122    0.8939    0.0000 H   0  0  0  0  0  0  0  0  0  0  0  0
    0.0897   -0.2331    0.0000 H   0  0  0  0  0  0  0  0  0  0  0  0
    1.9312    0.4814    0.0000 H   0  0  0  0  0  0  0  0  0  0  0  0
    0.3931   -0.8040    0.0000 H   0  0  0  0  0  0  0  0  0  0  0  0
    0.7634   -1.4454    0.0000 H   0  0  0  0  0  0  0  0  0  0  0  0
    1.2167   -1.5811    0.0000 H   0  0  0  0  0  0  0  0  0  0  0  0
    2.2332   -3.1206    0.0000 H   0  0  0  0  0  0  0  0  0  0  0  0
    3.3601   -2.8186    0.0000 H   0  0  0  0  0  0  0  0  0  0  0  0
    3.0582   -1.6916    0.0000 H   0  0  0  0  0  0  0  0  0  0  0  0
    3.8624   -1.8231    0.0000 H   0  0  0  0  0  0  0  0  0  0  0  0
    4.1570   -0.9551    0.0000 H   0  0  0  0  0  0  0  0  0  0  0  0
    3.4678   -0.3506    0.0000 H   0  0  0  0  0  0  0  0  0  0  0  0
  1  2  1  0  0  0  0
  2  3  1  0  0  0  0
  3  4  1  0  0  0  0
  4  5  1  0  0  0  0
  5  6  1  0  0  0  0
  4  7  1  0  0  0  0
  7  8  1  0  0  0  0
  1  9  1  0  0  0  0
  1 10  1  0  0  0  0
  1 11  1  0  0  0  0
  2 12  1  0  0  0  0
  3 13  1  0  0  0  0
  3 14  1  0  0  0  0
  4 15  1  0  0  0  0
  6 16  1  0  0  0  0
  6 17  1  0  0  0  0
  6 18  1  0  0  0  0
  8 19  1  0  0  0  0
  8 20  1  0  0  0  0
  8 21  1  0  0  0  0
M  END
>  <InChIKey>
InChI=1S/C5H13NO2/c1-6-4-5(7-2)8-3/h5-6H,4H2,1-3H3

>  <CASRN>
122-07-6

> <Outcome>
1

>  <Index>
1704

>  <StandardizerResult>
Clear Stereo (ID: ClearStereo)
Wedge Clean (ID: WedgeClean)
Mesomerize (ID: Mesomerize)
Tautomerize (ID: Tautomerize)
Add Explicit Hydrogens (ID: AddExplicitH)
Neutralize (ID: Neutralize)
Clean 2D (ID: Clean2D)

> <knn Distance>


> <CpId>
1704

$$$$
1708
  Mrv1532301301811342D          

 26 27  0  0  0  0            999 V2000
    0.7145   -0.4125    0.0000 N   0  0  0  0  0  0  0  0  0  0  0  0
    0.7145   -1.2375    0.0000 C   0  0  0  0  0  0  0  0  0  0  0  0
    1.4289   -1.6500    0.0000 C   0  0  0  0  0  0  0  0  0  0  0  0
    1.4289   -2.4750    0.0000 C   0  0  0  0  0  0  0  0  0  0  0  0
    0.7145   -2.8875    0.0000 C   0  0  0  0  0  0  0  0  0  0  0  0
   -0.0000   -2.4750    0.0000 C   0  0  0  0  0  0  0  0  0  0  0  0
   -0.0000   -1.6500    0.0000 C   0  0  0  0  0  0  0  0  0  0  0  0
   -0.7145   -1.2375    0.0000 Cl  0  0  0  0  0  0  0  0  0  0  0  0
    0.7145   -3.7125    0.0000 C   0  0  0  0  0  0  0  0  0  0  0  0
    1.4289   -4.1250    0.0000 C   0  0  0  0  0  0  0  0  0  0  0  0
    1.4289   -4.9500    0.0000 C   0  0  0  0  0  0  0  0  0  0  0  0
    0.7145   -5.3625    0.0000 C   0  0  0  0  0  0  0  0  0  0  0  0
    0.7145   -6.1875    0.0000 N   0  0  0  0  0  0  0  0  0  0  0  0
   -0.0000   -4.9500    0.0000 C   0  0  0  0  0  0  0  0  0  0  0  0
   -0.7145   -5.3625    0.0000 Cl  0  0  0  0  0  0  0  0  0  0  0  0
   -0.0000   -4.1250    0.0000 C   0  0  0  0  0  0  0  0  0  0  0  0
    1.4289    0.0000    0.0000 H   0  0  0  0  0  0  0  0  0  0  0  0
   -0.0000    0.0000    0.0000 H   0  0  0  0  0  0  0  0  0  0  0  0
    2.1434   -1.2375    0.0000 H   0  0  0  0  0  0  0  0  0  0  0  0
    2.1434   -2.8875    0.0000 H   0  0  0  0  0  0  0  0  0  0  0  0
   -0.7145   -2.8875    0.0000 H   0  0  0  0  0  0  0  0  0  0  0  0
    2.1434   -3.7125    0.0000 H   0  0  0  0  0  0  0  0  0  0  0  0
    2.1434   -5.3625    0.0000 H   0  0  0  0  0  0  0  0  0  0  0  0
   -0.0000   -6.6000    0.0000 H   0  0  0  0  0  0  0  0  0  0  0  0
    1.4289   -6.6000    0.0000 H   0  0  0  0  0  0  0  0  0  0  0  0
   -0.7145   -3.7125    0.0000 H   0  0  0  0  0  0  0  0  0  0  0  0
  1  2  1  0  0  0  0
  2  3  4  0  0  0  0
  3  4  4  0  0  0  0
  4  5  4  0  0  0  0
  5  6  4  0  0  0  0
  6  7  4  0  0  0  0
  2  7  4  0  0  0  0
  7  8  1  0  0  0  0
  5  9  1  0  0  0  0
  9 10  4  0  0  0  0
 10 11  4  0  0  0  0
 11 12  4  0  0  0  0
 12 13  1  0  0  0  0
 12 14  4  0  0  0  0
 14 15  1  0  0  0  0
 14 16  4  0  0  0  0
  9 16  4  0  0  0  0
  1 17  1  0  0  0  0
  1 18  1  0  0  0  0
  3 19  1  0  0  0  0
  4 20  1  0  0  0  0
  6 21  1  0  0  0  0
 10 22  1  0  0  0  0
 11 23  1  0  0  0  0
 13 24  1  0  0  0  0
 13 25  1  0  0  0  0
 16 26  1  0  0  0  0
M  END
>  <InChIKey>
InChI=1S/C12H10Cl2N2/c13-9-5-7(1-3-11(9)15)8-2-4-12(16)10(14)6-8/h1-6H,15-16H2

>  <CASRN>
91-94-1

> <Outcome>
1

>  <Index>
1708

>  <StandardizerResult>
Dearomatize (ID: Dearomatize)
Clear Stereo (ID: ClearStereo)
Wedge Clean (ID: WedgeClean)
Mesomerize (ID: Mesomerize)
Tautomerize (ID: Tautomerize)
Aromatize (ID: Aromatize)
Add Explicit Hydrogens (ID: AddExplicitH)
Neutralize (ID: Neutralize)
Clean 2D (ID: Clean2D)

> <knn Distance>


> <CpId>
1708

$$$$
1710
  Mrv1532301301811342D          

 18 18  0  0  0  0            999 V2000
    0.7145    2.0625    0.0000 N   0  0  0  0  0  0  0  0  0  0  0  0
    0.7145    1.2375    0.0000 C   0  0  0  0  0  0  0  0  0  0  0  0
    1.4290    0.8250    0.0000 C   0  0  0  0  0  0  0  0  0  0  0  0
    1.4290   -0.0000    0.0000 C   0  0  0  0  0  0  0  0  0  0  0  0
    0.7145   -0.4125    0.0000 C   0  0  0  0  0  0  0  0  0  0  0  0
    0.0000    0.0000    0.0000 C   0  0  0  0  0  0  0  0  0  0  0  0
    0.0000    0.8250    0.0000 C   0  0  0  0  0  0  0  0  0  0  0  0
    0.7145   -1.2375    0.0000 S   0  0  0  0  0  0  0  0  0  0  0  0
    0.7145   -2.0625    0.0000 O   0  0  0  0  0  0  0  0  0  0  0  0
   -0.1105   -1.2375    0.0000 O   0  0  0  0  0  0  0  0  0  0  0  0
    1.5395   -1.2375    0.0000 O   0  0  0  0  0  0  0  0  0  0  0  0
    1.4290    2.4750    0.0000 H   0  0  0  0  0  0  0  0  0  0  0  0
    0.0000    2.4750    0.0000 H   0  0  0  0  0  0  0  0  0  0  0  0
    2.1434    1.2375    0.0000 H   0  0  0  0  0  0  0  0  0  0  0  0
    2.1434   -0.4125    0.0000 H   0  0  0  0  0  0  0  0  0  0  0  0
   -0.7145   -0.4125    0.0000 H   0  0  0  0  0  0  0  0  0  0  0  0
   -0.7145    1.2375    0.0000 H   0  0  0  0  0  0  0  0  0  0  0  0
    0.0000   -2.4750    0.0000 H   0  0  0  0  0  0  0  0  0  0  0  0
  1  2  1  0  0  0  0
  2  3  4  0  0  0  0
  3  4  4  0  0  0  0
  4  5  4  0  0  0  0
  5  6  4  0  0  0  0
  6  7  4  0  0  0  0
  2  7  4  0  0  0  0
  5  8  1  0  0  0  0
  8  9  1  0  0  0  0
  8 10  2  0  0  0  0
  8 11  2  0  0  0  0
  1 12  1  0  0  0  0
  1 13  1  0  0  0  0
  3 14  1  0  0  0  0
  4 15  1  0  0  0  0
  6 16  1  0  0  0  0
  7 17  1  0  0  0  0
  9 18  1  0  0  0  0
M  END
>  <InChIKey>
InChI=1S/C6H7NO3S/c7-5-1-3-6(4-2-5)11(8,9)10/h1-4H,7H2,(H,8,9,10)

>  <CASRN>
121-57-3

> <Outcome>
1

>  <Index>
1710

>  <StandardizerResult>
Dearomatize (ID: Dearomatize)
Clear Stereo (ID: ClearStereo)
Wedge Clean (ID: WedgeClean)
Mesomerize (ID: Mesomerize)
Tautomerize (ID: Tautomerize)
Aromatize (ID: Aromatize)
Add Explicit Hydrogens (ID: AddExplicitH)
Neutralize (ID: Neutralize)
Clean 2D (ID: Clean2D)

> <knn Distance>


> <CpId>
1710

$$$$
1711
  Mrv1532301301811342D          

 21 21  0  0  0  0            999 V2000
    1.4870    2.3010    0.0000 C   0  0  0  0  0  0  0  0  0  0  0  0
    1.4870    1.4760    0.0000 C   0  0  0  0  0  0  0  0  0  0  0  0
    0.7725    1.0635    0.0000 N   0  0  0  0  0  0  0  0  0  0  0  0
    0.7725    0.2385    0.0000 C   0  0  0  0  0  0  0  0  0  0  0  0
    0.0580   -0.1740    0.0000 C   0  0  0  0  0  0  0  0  0  0  0  0
   -0.6564    0.2385    0.0000 O   0  0  0  0  0  0  0  0  0  0  0  0
   -0.6564    1.0635    0.0000 C   0  0  0  0  0  0  0  0  0  0  0  0
    0.0580    1.4760    0.0000 C   0  0  0  0  0  0  0  0  0  0  0  0
    2.3120    2.3010    0.0000 H   0  0  0  0  0  0  0  0  0  0  0  0
    1.4870    3.1260    0.0000 H   0  0  0  0  0  0  0  0  0  0  0  0
    0.6620    2.3010    0.0000 H   0  0  0  0  0  0  0  0  0  0  0  0
    1.9403    0.7867    0.0000 H   0  0  0  0  0  0  0  0  0  0  0  0
    2.3106    1.4280    0.0000 H   0  0  0  0  0  0  0  0  0  0  0  0
    1.2259   -0.4508    0.0000 H   0  0  0  0  0  0  0  0  0  0  0  0
    1.5961    0.1905    0.0000 H   0  0  0  0  0  0  0  0  0  0  0  0
   -0.3122   -0.9112    0.0000 H   0  0  0  0  0  0  0  0  0  0  0  0
    0.4283   -0.9112    0.0000 H   0  0  0  0  0  0  0  0  0  0  0  0
   -1.1098    1.7528    0.0000 H   0  0  0  0  0  0  0  0  0  0  0  0
   -1.4800    1.1115    0.0000 H   0  0  0  0  0  0  0  0  0  0  0  0
    0.4283    2.2133    0.0000 H   0  0  0  0  0  0  0  0  0  0  0  0
   -0.3122    2.2133    0.0000 H   0  0  0  0  0  0  0  0  0  0  0  0
  1  2  1  0  0  0  0
  2  3  1  0  0  0  0
  3  4  1  0  0  0  0
  4  5  1  0  0  0  0
  5  6  1  0  0  0  0
  6  7  1  0  0  0  0
  7  8  1  0  0  0  0
  3  8  1  0  0  0  0
  1  9  1  0  0  0  0
  1 10  1  0  0  0  0
  1 11  1  0  0  0  0
  2 12  1  0  0  0  0
  2 13  1  0  0  0  0
  4 14  1  0  0  0  0
  4 15  1  0  0  0  0
  5 16  1  0  0  0  0
  5 17  1  0  0  0  0
  7 18  1  0  0  0  0
  7 19  1  0  0  0  0
  8 20  1  0  0  0  0
  8 21  1  0  0  0  0
M  END
>  <InChIKey>
InChI=1S/C6H13NO/c1-2-7-3-5-8-6-4-7/h2-6H2,1H3

>  <CASRN>
100-74-3

> <Outcome>
1

>  <Index>
1711

>  <StandardizerResult>
Clear Stereo (ID: ClearStereo)
Wedge Clean (ID: WedgeClean)
Mesomerize (ID: Mesomerize)
Tautomerize (ID: Tautomerize)
Add Explicit Hydrogens (ID: AddExplicitH)
Neutralize (ID: Neutralize)
Clean 2D (ID: Clean2D)

> <knn Distance>


> <CpId>
1711

$$$$
1713
  Mrv1532301301811342D          

 27 27  0  0  0  0            999 V2000
    1.4289   -4.1257    0.0000 C   0  0  0  0  0  0  0  0  0  0  0  0
    2.1434   -3.7132    0.0000 C   0  0  0  0  0  0  0  0  0  0  0  0
    2.8579   -4.1257    0.0000 C   0  0  0  0  0  0  0  0  0  0  0  0
    2.8579   -4.9507    0.0000 O   0  0  0  0  0  0  0  0  0  0  0  0
    3.5723   -3.7132    0.0000 O   0  0  0  0  0  0  0  0  0  0  0  0
    4.2868   -4.1257    0.0000 C   0  0  0  0  0  0  0  0  0  0  0  0
    5.0013   -3.7132    0.0000 C   0  0  0  0  0  0  0  0  0  0  0  0
    5.7158   -4.1257    0.0000 C   0  0  0  0  0  0  0  0  0  0  0  0
    6.4302   -3.7132    0.0000 C   0  0  0  0  0  0  0  0  0  0  0  0
    7.1447   -4.1257    0.0000 C   0  0  0  0  0  0  0  0  0  0  0  0
    7.1447   -4.9507    0.0000 C   0  0  0  0  0  0  0  0  0  0  0  0
    6.4302   -5.3632    0.0000 C   0  0  0  0  0  0  0  0  0  0  0  0
    5.7158   -4.9507    0.0000 C   0  0  0  0  0  0  0  0  0  0  0  0
    1.0164   -3.4112    0.0000 H   0  0  0  0  0  0  0  0  0  0  0  0
    0.7145   -4.5382    0.0000 H   0  0  0  0  0  0  0  0  0  0  0  0
    1.8414   -4.8401    0.0000 H   0  0  0  0  0  0  0  0  0  0  0  0
    2.5137   -2.9759    0.0000 H   0  0  0  0  0  0  0  0  0  0  0  0
    1.7731   -2.9759    0.0000 H   0  0  0  0  0  0  0  0  0  0  0  0
    3.9166   -4.8629    0.0000 H   0  0  0  0  0  0  0  0  0  0  0  0
    4.6571   -4.8629    0.0000 H   0  0  0  0  0  0  0  0  0  0  0  0
    5.3715   -2.9759    0.0000 H   0  0  0  0  0  0  0  0  0  0  0  0
    4.6310   -2.9759    0.0000 H   0  0  0  0  0  0  0  0  0  0  0  0
    6.4302   -2.8882    0.0000 H   0  0  0  0  0  0  0  0  0  0  0  0
    7.8592   -3.7132    0.0000 H   0  0  0  0  0  0  0  0  0  0  0  0
    7.8592   -5.3632    0.0000 H   0  0  0  0  0  0  0  0  0  0  0  0
    6.4302   -6.1882    0.0000 H   0  0  0  0  0  0  0  0  0  0  0  0
    5.0013   -5.3632    0.0000 H   0  0  0  0  0  0  0  0  0  0  0  0
  1  2  1  0  0  0  0
  2  3  1  0  0  0  0
  3  4  2  0  0  0  0
  3  5  1  0  0  0  0
  5  6  1  0  0  0  0
  6  7  1  0  0  0  0
  7  8  1  0  0  0  0
  8  9  4  0  0  0  0
  9 10  4  0  0  0  0
 10 11  4  0  0  0  0
 11 12  4  0  0  0  0
 12 13  4  0  0  0  0
  8 13  4  0  0  0  0
  1 14  1  0  0  0  0
  1 15  1  0  0  0  0
  1 16  1  0  0  0  0
  2 17  1  0  0  0  0
  2 18  1  0  0  0  0
  6 19  1  0  0  0  0
  6 20  1  0  0  0  0
  7 21  1  0  0  0  0
  7 22  1  0  0  0  0
  9 23  1  0  0  0  0
 10 24  1  0  0  0  0
 11 25  1  0  0  0  0
 12 26  1  0  0  0  0
 13 27  1  0  0  0  0
M  END
>  <InChIKey>
InChI=1S/C11H14O2/c1-2-11(12)13-9-8-10-6-4-3-5-7-10/h3-7H,2,8-9H2,1H3

>  <CASRN>
122-70-3

> <Outcome>
1

>  <Index>
1713

>  <StandardizerResult>
Dearomatize (ID: Dearomatize)
Clear Stereo (ID: ClearStereo)
Wedge Clean (ID: WedgeClean)
Mesomerize (ID: Mesomerize)
Tautomerize (ID: Tautomerize)
Aromatize (ID: Aromatize)
Add Explicit Hydrogens (ID: AddExplicitH)
Neutralize (ID: Neutralize)
Clean 2D (ID: Clean2D)

> <knn Distance>


> <CpId>
1713

$$$$
1719
  Mrv1532301301811342D          

 15 15  0  0  0  0            999 V2000
    1.1198    1.7286    0.0000 O   0  0  0  0  0  0  0  0  0  0  0  0
    0.5677    1.1156    0.0000 S   0  0  0  0  0  0  0  0  0  0  0  0
    0.0157    1.7286    0.0000 O   0  0  0  0  0  0  0  0  0  0  0  0
    1.2352    0.6306    0.0000 C   0  0  0  0  0  0  0  0  0  0  0  0
    0.9802   -0.1540    0.0000 C   0  0  0  0  0  0  0  0  0  0  0  0
    0.1552   -0.1540    0.0000 C   0  0  0  0  0  0  0  0  0  0  0  0
   -0.0997    0.6306    0.0000 C   0  0  0  0  0  0  0  0  0  0  0  0
    2.0476    0.4874    0.0000 H   0  0  0  0  0  0  0  0  0  0  0  0
    1.8083    1.2241    0.0000 H   0  0  0  0  0  0  0  0  0  0  0  0
    1.0951   -0.9710    0.0000 H   0  0  0  0  0  0  0  0  0  0  0  0
    1.7217   -0.5157    0.0000 H   0  0  0  0  0  0  0  0  0  0  0  0
   -0.5863   -0.5157    0.0000 H   0  0  0  0  0  0  0  0  0  0  0  0
    0.0404   -0.9710    0.0000 H   0  0  0  0  0  0  0  0  0  0  0  0
   -0.6728    1.2241    0.0000 H   0  0  0  0  0  0  0  0  0  0  0  0
   -0.9122    0.4874    0.0000 H   0  0  0  0  0  0  0  0  0  0  0  0
  1  2  2  0  0  0  0
  2  3  2  0  0  0  0
  2  4  1  0  0  0  0
  4  5  1  0  0  0  0
  5  6  1  0  0  0  0
  6  7  1  0  0  0  0
  2  7  1  0  0  0  0
  4  8  1  0  0  0  0
  4  9  1  0  0  0  0
  5 10  1  0  0  0  0
  5 11  1  0  0  0  0
  6 12  1  0  0  0  0
  6 13  1  0  0  0  0
  7 14  1  0  0  0  0
  7 15  1  0  0  0  0
M  END
>  <InChIKey>
InChI=1S/C4H8O2S/c5-7(6)3-1-2-4-7/h1-4H2

>  <CASRN>
126-33-0

> <Outcome>
1

>  <Index>
1719

>  <StandardizerResult>
Clear Stereo (ID: ClearStereo)
Wedge Clean (ID: WedgeClean)
Mesomerize (ID: Mesomerize)
Tautomerize (ID: Tautomerize)
Add Explicit Hydrogens (ID: AddExplicitH)
Neutralize (ID: Neutralize)
Clean 2D (ID: Clean2D)

> <knn Distance>


> <CpId>
1719

$$$$
1720
  Mrv1532301301811342D          

 14 13  0  0  0  0            999 V2000
    2.0540   -0.6861    0.0000 C   0  0  0  0  0  0  0  0  0  0  0  0
    1.2290   -0.6861    0.0000 C   0  0  0  0  0  0  0  0  0  0  0  0
    0.8165   -1.4006    0.0000 O   0  0  0  0  0  0  0  0  0  0  0  0
    0.8165    0.0284    0.0000 C   0  0  0  0  0  0  0  0  0  0  0  0
   -0.0085    0.0284    0.0000 N   0  0  0  0  0  0  0  0  0  0  0  0
    2.0540   -1.5111    0.0000 H   0  0  0  0  0  0  0  0  0  0  0  0
    2.8790   -0.6861    0.0000 H   0  0  0  0  0  0  0  0  0  0  0  0
    2.0540    0.1389    0.0000 H   0  0  0  0  0  0  0  0  0  0  0  0
    1.6415   -1.4006    0.0000 H   0  0  0  0  0  0  0  0  0  0  0  0
    0.1020   -1.8131    0.0000 H   0  0  0  0  0  0  0  0  0  0  0  0
    1.5058    0.4817    0.0000 H   0  0  0  0  0  0  0  0  0  0  0  0
    0.8644    0.8520    0.0000 H   0  0  0  0  0  0  0  0  0  0  0  0
   -0.4210    0.7428    0.0000 H   0  0  0  0  0  0  0  0  0  0  0  0
   -0.4210   -0.6861    0.0000 H   0  0  0  0  0  0  0  0  0  0  0  0
  1  2  1  0  0  0  0
  2  3  1  0  0  0  0
  2  4  1  0  0  0  0
  4  5  1  0  0  0  0
  1  6  1  0  0  0  0
  1  7  1  0  0  0  0
  1  8  1  0  0  0  0
  2  9  1  0  0  0  0
  3 10  1  0  0  0  0
  4 11  1  0  0  0  0
  4 12  1  0  0  0  0
  5 13  1  0  0  0  0
  5 14  1  0  0  0  0
M  END
>  <InChIKey>
InChI=1S/C3H9NO/c1-3(5)2-4/h3,5H,2,4H2,1H3

>  <CASRN>
78-96-6

> <Outcome>
1

>  <Index>
1720

>  <StandardizerResult>
Clear Stereo (ID: ClearStereo)
Wedge Clean (ID: WedgeClean)
Mesomerize (ID: Mesomerize)
Tautomerize (ID: Tautomerize)
Add Explicit Hydrogens (ID: AddExplicitH)
Neutralize (ID: Neutralize)
Clean 2D (ID: Clean2D)

> <knn Distance>


> <CpId>
1720

$$$$
1728
  Mrv1532301301811342D          

 32 32  0  0  0  0            999 V2000
   -0.7170    3.7321    0.0000 C   0  0  0  0  0  0  0  0  0  0  0  0
   -0.7170    2.9071    0.0000 N   0  0  0  0  0  0  0  0  0  0  0  0
   -1.4315    2.4946    0.0000 C   0  0  0  0  0  0  0  0  0  0  0  0
   -0.0026    2.4946    0.0000 S   0  0  0  0  0  0  0  0  0  0  0  0
   -0.4151    1.7801    0.0000 O   0  0  0  0  0  0  0  0  0  0  0  0
    0.4099    3.2090    0.0000 O   0  0  0  0  0  0  0  0  0  0  0  0
    0.7119    2.0821    0.0000 N   0  0  0  0  0  0  0  0  0  0  0  0
    1.4264    2.4946    0.0000 S   0  0  0  0  0  0  0  0  0  0  0  0
    2.1408    2.0821    0.0000 C   0  0  0  0  0  0  0  0  0  0  0  0
    1.7283    1.3676    0.0000 F   0  0  0  0  0  0  0  0  0  0  0  0
    2.5533    2.7965    0.0000 Cl  0  0  0  0  0  0  0  0  0  0  0  0
    2.8553    1.6696    0.0000 Cl  0  0  0  0  0  0  0  0  0  0  0  0
    0.7119    1.2571    0.0000 C   0  0  0  0  0  0  0  0  0  0  0  0
    1.4264    0.8446    0.0000 C   0  0  0  0  0  0  0  0  0  0  0  0
    1.4264    0.0196    0.0000 C   0  0  0  0  0  0  0  0  0  0  0  0
    0.7119   -0.3929    0.0000 C   0  0  0  0  0  0  0  0  0  0  0  0
    0.7119   -1.2179    0.0000 C   0  0  0  0  0  0  0  0  0  0  0  0
   -0.0026    0.0196    0.0000 C   0  0  0  0  0  0  0  0  0  0  0  0
   -0.0026    0.8446    0.0000 C   0  0  0  0  0  0  0  0  0  0  0  0
    0.1080    3.7321    0.0000 H   0  0  0  0  0  0  0  0  0  0  0  0
   -0.7170    4.5571    0.0000 H   0  0  0  0  0  0  0  0  0  0  0  0
   -1.5420    3.7321    0.0000 H   0  0  0  0  0  0  0  0  0  0  0  0
   -1.8440    3.2090    0.0000 H   0  0  0  0  0  0  0  0  0  0  0  0
   -2.1460    2.0821    0.0000 H   0  0  0  0  0  0  0  0  0  0  0  0
   -1.0190    1.7801    0.0000 H   0  0  0  0  0  0  0  0  0  0  0  0
    2.2233    0.6310    0.0000 H   0  0  0  0  0  0  0  0  0  0  0  0
    2.1408   -0.3929    0.0000 H   0  0  0  0  0  0  0  0  0  0  0  0
   -0.1131   -1.2179    0.0000 H   0  0  0  0  0  0  0  0  0  0  0  0
    0.7119   -2.0429    0.0000 H   0  0  0  0  0  0  0  0  0  0  0  0
    1.5369   -1.2179    0.0000 H   0  0  0  0  0  0  0  0  0  0  0  0
   -0.7170   -0.3929    0.0000 H   0  0  0  0  0  0  0  0  0  0  0  0
   -0.7170    1.2571    0.0000 H   0  0  0  0  0  0  0  0  0  0  0  0
  1  2  1  0  0  0  0
  2  3  1  0  0  0  0
  2  4  1  0  0  0  0
  4  5  2  0  0  0  0
  4  6  2  0  0  0  0
  4  7  1  0  0  0  0
  7  8  1  0  0  0  0
  8  9  1  0  0  0  0
  9 10  1  0  0  0  0
  9 11  1  0  0  0  0
  9 12  1  0  0  0  0
  7 13  1  0  0  0  0
 13 14  4  0  0  0  0
 14 15  4  0  0  0  0
 15 16  4  0  0  0  0
 16 17  1  0  0  0  0
 16 18  4  0  0  0  0
 18 19  4  0  0  0  0
 13 19  4  0  0  0  0
  1 20  1  0  0  0  0
  1 21  1  0  0  0  0
  1 22  1  0  0  0  0
  3 23  1  0  0  0  0
  3 24  1  0  0  0  0
  3 25  1  0  0  0  0
 14 26  1  0  0  0  0
 15 27  1  0  0  0  0
 17 28  1  0  0  0  0
 17 29  1  0  0  0  0
 17 30  1  0  0  0  0
 18 31  1  0  0  0  0
 19 32  1  0  0  0  0
M  END
>  <InChIKey>
InChI=1S/C10H13Cl2FN2O2S2/c1-8-4-6-9(7-5-8)15(18-10(11,12)13)19(16,17)14(2)3/h4-7H,1-3H3

>  <CASRN>
731-27-1

> <Outcome>
1

>  <Index>
1728

>  <StandardizerResult>
Dearomatize (ID: Dearomatize)
Clear Stereo (ID: ClearStereo)
Wedge Clean (ID: WedgeClean)
Mesomerize (ID: Mesomerize)
Tautomerize (ID: Tautomerize)
Aromatize (ID: Aromatize)
Add Explicit Hydrogens (ID: AddExplicitH)
Neutralize (ID: Neutralize)
Clean 2D (ID: Clean2D)

> <knn Distance>


> <CpId>
1728

$$$$
1734
  Mrv1532301301811342D          

 36 37  0  0  0  0            999 V2000
    1.4353    0.0071    0.0000 C   0  0  0  0  0  0  0  0  0  0  0  0
    2.1498   -0.4054    0.0000 O   0  0  0  0  0  0  0  0  0  0  0  0
    2.1498   -1.2304    0.0000 C   0  0  0  0  0  0  0  0  0  0  0  0
    2.8643   -1.6429    0.0000 C   0  0  0  0  0  0  0  0  0  0  0  0
    2.8643   -2.4679    0.0000 C   0  0  0  0  0  0  0  0  0  0  0  0
    2.1498   -2.8804    0.0000 C   0  0  0  0  0  0  0  0  0  0  0  0
    1.4353   -2.4679    0.0000 C   0  0  0  0  0  0  0  0  0  0  0  0
    1.4353   -1.6429    0.0000 C   0  0  0  0  0  0  0  0  0  0  0  0
    2.1498   -3.7054    0.0000 C   0  0  0  0  0  0  0  0  0  0  0  0
    1.4353   -4.1179    0.0000 C   0  0  0  0  0  0  0  0  0  0  0  0
    1.4353   -4.9429    0.0000 C   0  0  0  0  0  0  0  0  0  0  0  0
    0.7208   -5.3554    0.0000 C   0  0  0  0  0  0  0  0  0  0  0  0
    0.0064   -4.9429    0.0000 C   0  0  0  0  0  0  0  0  0  0  0  0
   -0.7081   -5.3554    0.0000 O   0  0  0  0  0  0  0  0  0  0  0  0
   -0.7081   -6.1804    0.0000 C   0  0  0  0  0  0  0  0  0  0  0  0
    0.0064   -4.1179    0.0000 C   0  0  0  0  0  0  0  0  0  0  0  0
    0.7208   -3.7054    0.0000 C   0  0  0  0  0  0  0  0  0  0  0  0
    2.8643   -4.1179    0.0000 C   0  0  0  0  0  0  0  0  0  0  0  0
    3.5787   -4.5304    0.0000 Cl  0  0  0  0  0  0  0  0  0  0  0  0
    2.4518   -4.8324    0.0000 Cl  0  0  0  0  0  0  0  0  0  0  0  0
    3.2768   -3.4034    0.0000 Cl  0  0  0  0  0  0  0  0  0  0  0  0
    1.8478    0.7216    0.0000 H   0  0  0  0  0  0  0  0  0  0  0  0
    0.7208    0.4196    0.0000 H   0  0  0  0  0  0  0  0  0  0  0  0
    1.0228   -0.7074    0.0000 H   0  0  0  0  0  0  0  0  0  0  0  0
    3.5787   -1.2304    0.0000 H   0  0  0  0  0  0  0  0  0  0  0  0
    3.5787   -2.8804    0.0000 H   0  0  0  0  0  0  0  0  0  0  0  0
    0.7208   -2.8804    0.0000 H   0  0  0  0  0  0  0  0  0  0  0  0
    0.7208   -1.2304    0.0000 H   0  0  0  0  0  0  0  0  0  0  0  0
    1.4353   -3.2929    0.0000 H   0  0  0  0  0  0  0  0  0  0  0  0
    2.1498   -5.3554    0.0000 H   0  0  0  0  0  0  0  0  0  0  0  0
    0.7208   -6.1804    0.0000 H   0  0  0  0  0  0  0  0  0  0  0  0
   -1.5331   -6.1804    0.0000 H   0  0  0  0  0  0  0  0  0  0  0  0
   -0.7081   -7.0054    0.0000 H   0  0  0  0  0  0  0  0  0  0  0  0
    0.1169   -6.1804    0.0000 H   0  0  0  0  0  0  0  0  0  0  0  0
   -0.7081   -3.7054    0.0000 H   0  0  0  0  0  0  0  0  0  0  0  0
    0.0064   -3.2929    0.0000 H   0  0  0  0  0  0  0  0  0  0  0  0
  1  2  1  0  0  0  0
  2  3  1  0  0  0  0
  3  4  4  0  0  0  0
  4  5  4  0  0  0  0
  5  6  4  0  0  0  0
  6  7  4  0  0  0  0
  7  8  4  0  0  0  0
  3  8  4  0  0  0  0
  6  9  1  0  0  0  0
  9 10  1  0  0  0  0
 10 11  4  0  0  0  0
 11 12  4  0  0  0  0
 12 13  4  0  0  0  0
 13 14  1  0  0  0  0
 14 15  1  0  0  0  0
 13 16  4  0  0  0  0
 16 17  4  0  0  0  0
 10 17  4  0  0  0  0
  9 18  1  0  0  0  0
 18 19  1  0  0  0  0
 18 20  1  0  0  0  0
 18 21  1  0  0  0  0
  1 22  1  0  0  0  0
  1 23  1  0  0  0  0
  1 24  1  0  0  0  0
  4 25  1  0  0  0  0
  5 26  1  0  0  0  0
  7 27  1  0  0  0  0
  8 28  1  0  0  0  0
  9 29  1  0  0  0  0
 11 30  1  0  0  0  0
 12 31  1  0  0  0  0
 15 32  1  0  0  0  0
 15 33  1  0  0  0  0
 15 34  1  0  0  0  0
 16 35  1  0  0  0  0
 17 36  1  0  0  0  0
M  END
>  <InChIKey>
InChI=1S/C16H15Cl3O2/c1-20-13-7-3-11(4-8-13)15(16(17,18)19)12-5-9-14(21-2)10-6-12/h3-10,15H,1-2H3

>  <CASRN>
72-43-5

> <Outcome>
1

>  <Index>
1734

>  <StandardizerResult>
Dearomatize (ID: Dearomatize)
Clear Stereo (ID: ClearStereo)
Wedge Clean (ID: WedgeClean)
Mesomerize (ID: Mesomerize)
Tautomerize (ID: Tautomerize)
Aromatize (ID: Aromatize)
Add Explicit Hydrogens (ID: AddExplicitH)
Neutralize (ID: Neutralize)
Clean 2D (ID: Clean2D)

> <knn Distance>


> <CpId>
1734

$$$$
1735
  Mrv1532301301811342D          

 28 28  0  0  0  0            999 V2000
    0.7145    2.0625    0.0000 N   0  0  0  0  0  0  0  0  0  0  0  0
    0.7145    1.2375    0.0000 C   0  0  0  0  0  0  0  0  0  0  0  0
    1.4289    0.8250    0.0000 C   0  0  0  0  0  0  0  0  0  0  0  0
    1.4289    0.0000    0.0000 C   0  0  0  0  0  0  0  0  0  0  0  0
    0.7145   -0.4125    0.0000 C   0  0  0  0  0  0  0  0  0  0  0  0
    0.0000    0.0000    0.0000 C   0  0  0  0  0  0  0  0  0  0  0  0
    0.0000    0.8250    0.0000 C   0  0  0  0  0  0  0  0  0  0  0  0
    0.7145   -1.2375    0.0000 S   0  0  0  0  0  0  0  0  0  0  0  0
   -0.1105   -1.2375    0.0000 O   0  0  0  0  0  0  0  0  0  0  0  0
    1.5395   -1.2375    0.0000 O   0  0  0  0  0  0  0  0  0  0  0  0
    0.7145   -2.0625    0.0000 C   0  0  0  0  0  0  0  0  0  0  0  0
    1.4289   -2.4750    0.0000 C   0  0  0  0  0  0  0  0  0  0  0  0
    1.4289   -3.3000    0.0000 O   0  0  0  0  0  0  0  0  0  0  0  0
    2.1434   -3.7125    0.0000 S   0  0  0  0  0  0  0  0  0  0  0  0
    2.8579   -4.1250    0.0000 O   0  0  0  0  0  0  0  0  0  0  0  0
    1.7309   -4.4270    0.0000 O   0  0  0  0  0  0  0  0  0  0  0  0
    2.5559   -2.9980    0.0000 O   0  0  0  0  0  0  0  0  0  0  0  0
    1.4289    2.4750    0.0000 H   0  0  0  0  0  0  0  0  0  0  0  0
    0.0000    2.4750    0.0000 H   0  0  0  0  0  0  0  0  0  0  0  0
    2.1434    1.2375    0.0000 H   0  0  0  0  0  0  0  0  0  0  0  0
    2.1434   -0.4125    0.0000 H   0  0  0  0  0  0  0  0  0  0  0  0
   -0.7145   -0.4125    0.0000 H   0  0  0  0  0  0  0  0  0  0  0  0
   -0.7145    1.2375    0.0000 H   0  0  0  0  0  0  0  0  0  0  0  0
   -0.1091   -2.1105    0.0000 H   0  0  0  0  0  0  0  0  0  0  0  0
    0.2611   -2.7518    0.0000 H   0  0  0  0  0  0  0  0  0  0  0  0
    2.2525   -2.4270    0.0000 H   0  0  0  0  0  0  0  0  0  0  0  0
    1.8823   -1.7857    0.0000 H   0  0  0  0  0  0  0  0  0  0  0  0
    2.8579   -4.9500    0.0000 H   0  0  0  0  0  0  0  0  0  0  0  0
  1  2  1  0  0  0  0
  2  3  4  0  0  0  0
  3  4  4  0  0  0  0
  4  5  4  0  0  0  0
  5  6  4  0  0  0  0
  6  7  4  0  0  0  0
  2  7  4  0  0  0  0
  5  8  1  0  0  0  0
  8  9  2  0  0  0  0
  8 10  2  0  0  0  0
  8 11  1  0  0  0  0
 11 12  1  0  0  0  0
 12 13  1  0  0  0  0
 13 14  1  0  0  0  0
 14 15  1  0  0  0  0
 14 16  2  0  0  0  0
 14 17  2  0  0  0  0
  1 18  1  0  0  0  0
  1 19  1  0  0  0  0
  3 20  1  0  0  0  0
  4 21  1  0  0  0  0
  6 22  1  0  0  0  0
  7 23  1  0  0  0  0
 11 24  1  0  0  0  0
 11 25  1  0  0  0  0
 12 26  1  0  0  0  0
 12 27  1  0  0  0  0
 15 28  1  0  0  0  0
M  END
>  <InChIKey>
InChI=1S/C8H11NO6S2/c9-7-1-3-8(4-2-7)16(10,11)6-5-15-17(12,13)14/h1-4H,5-6,9H2,(H,12,13,14)

>  <UN GHS>
1

>  <CASRN>
2494-89-5

> <Outcome>
1

>  <Index>
1735

>  <StandardizerResult>
Dearomatize (ID: Dearomatize)
Clear Stereo (ID: ClearStereo)
Wedge Clean (ID: WedgeClean)
Mesomerize (ID: Mesomerize)
Tautomerize (ID: Tautomerize)
Aromatize (ID: Aromatize)
Add Explicit Hydrogens (ID: AddExplicitH)
Neutralize (ID: Neutralize)
Clean 2D (ID: Clean2D)

> <knn Distance>


> <CpId>
1735

$$$$
1740
  Mrv1532301301811342D          

 17 16  0  0  0  0            999 V2000
    1.7605    1.8424    0.0000 Br  0  0  0  0  0  0  0  0  0  0  0  0
    2.4750    1.4299    0.0000 C   0  0  0  0  0  0  0  0  0  0  0  0
    3.1895    1.8424    0.0000 C   0  0  0  0  0  0  0  0  0  0  0  0
    3.9039    1.4299    0.0000 C   0  0  0  0  0  0  0  0  0  0  0  0
    4.6184    1.8424    0.0000 C   0  0  0  0  0  0  0  0  0  0  0  0
    5.3329    1.4299    0.0000 C   0  0  0  0  0  0  0  0  0  0  0  0
    6.0474    1.8424    0.0000 Br  0  0  0  0  0  0  0  0  0  0  0  0
    2.1047    0.6927    0.0000 H   0  0  0  0  0  0  0  0  0  0  0  0
    2.8453    0.6927    0.0000 H   0  0  0  0  0  0  0  0  0  0  0  0
    3.5597    2.5797    0.0000 H   0  0  0  0  0  0  0  0  0  0  0  0
    2.8192    2.5797    0.0000 H   0  0  0  0  0  0  0  0  0  0  0  0
    3.5337    0.6927    0.0000 H   0  0  0  0  0  0  0  0  0  0  0  0
    4.2742    0.6927    0.0000 H   0  0  0  0  0  0  0  0  0  0  0  0
    4.9887    2.5797    0.0000 H   0  0  0  0  0  0  0  0  0  0  0  0
    4.2482    2.5797    0.0000 H   0  0  0  0  0  0  0  0  0  0  0  0
    4.9626    0.6927    0.0000 H   0  0  0  0  0  0  0  0  0  0  0  0
    5.7031    0.6927    0.0000 H   0  0  0  0  0  0  0  0  0  0  0  0
  1  2  1  0  0  0  0
  2  3  1  0  0  0  0
  3  4  1  0  0  0  0
  4  5  1  0  0  0  0
  5  6  1  0  0  0  0
  6  7  1  0  0  0  0
  2  8  1  0  0  0  0
  2  9  1  0  0  0  0
  3 10  1  0  0  0  0
  3 11  1  0  0  0  0
  4 12  1  0  0  0  0
  4 13  1  0  0  0  0
  5 14  1  0  0  0  0
  5 15  1  0  0  0  0
  6 16  1  0  0  0  0
  6 17  1  0  0  0  0
M  END
>  <InChIKey>
InChI=1S/C5H10Br2/c6-4-2-1-3-5-7/h1-5H2

>  <CASRN>
111-24-0  111-24-0

> <Outcome>
1

>  <Index>
1740

>  <StandardizerResult>
Clear Stereo (ID: ClearStereo)
Wedge Clean (ID: WedgeClean)
Mesomerize (ID: Mesomerize)
Tautomerize (ID: Tautomerize)
Add Explicit Hydrogens (ID: AddExplicitH)
Neutralize (ID: Neutralize)
Clean 2D (ID: Clean2D)

> <knn Distance>


> <CpId>
1740

$$$$
1744
  Mrv1532301301811342D          

 41 43  0  0  0  0            999 V2000
    5.0555   -0.6034    0.0000 C   0  0  0  0  0  0  0  0  0  0  0  0
    4.2485   -0.7749    0.0000 C   0  0  0  0  0  0  0  0  0  0  0  0
    3.9936   -1.5595    0.0000 O   0  0  0  0  0  0  0  0  0  0  0  0
    3.6965   -0.1618    0.0000 C   0  0  0  0  0  0  0  0  0  0  0  0
    2.8895   -0.3334    0.0000 C   0  0  0  0  0  0  0  0  0  0  0  0
    2.6346   -1.1180    0.0000 O   0  0  0  0  0  0  0  0  0  0  0  0
    2.3375    0.2797    0.0000 C   0  0  0  0  0  0  0  0  0  0  0  0
    2.0019   -0.4739    0.0000 C   0  0  0  0  0  0  0  0  0  0  0  0
    2.5924    1.0644    0.0000 C   0  0  0  0  0  0  0  0  0  0  0  0
    1.9250    1.5493    0.0000 O   0  0  0  0  0  0  0  0  0  0  0  0
    1.2575    1.0644    0.0000 C   0  0  0  0  0  0  0  0  0  0  0  0
    1.5125    0.2797    0.0000 C   0  0  0  0  0  0  0  0  0  0  0  0
    0.9604   -0.3334    0.0000 C   0  0  0  0  0  0  0  0  0  0  0  0
    1.2154   -1.1180    0.0000 O   0  0  0  0  0  0  0  0  0  0  0  0
    0.1535   -0.1618    0.0000 C   0  0  0  0  0  0  0  0  0  0  0  0
   -0.3986   -0.7749    0.0000 C   0  0  0  0  0  0  0  0  0  0  0  0
   -0.1015    0.6228    0.0000 C   0  0  0  0  0  0  0  0  0  0  0  0
   -0.9084    0.7943    0.0000 O   0  0  0  0  0  0  0  0  0  0  0  0
    0.4506    1.2359    0.0000 C   0  0  0  0  0  0  0  0  0  0  0  0
    0.1956    2.0205    0.0000 C   0  0  0  0  0  0  0  0  0  0  0  0
    0.7477    2.6336    0.0000 C   0  0  0  0  0  0  0  0  0  0  0  0
   -0.6114    2.1920    0.0000 O   0  0  0  0  0  0  0  0  0  0  0  0
    3.3994    1.2359    0.0000 C   0  0  0  0  0  0  0  0  0  0  0  0
    3.9514    0.6228    0.0000 C   0  0  0  0  0  0  0  0  0  0  0  0
    4.7584    0.7943    0.0000 O   0  0  0  0  0  0  0  0  0  0  0  0
    5.2270   -1.4104    0.0000 H   0  0  0  0  0  0  0  0  0  0  0  0
    5.8625   -0.4319    0.0000 H   0  0  0  0  0  0  0  0  0  0  0  0
    4.8840    0.2036    0.0000 H   0  0  0  0  0  0  0  0  0  0  0  0
    2.8236   -1.9210    0.0000 H   0  0  0  0  0  0  0  0  0  0  0  0
    1.1874   -0.3431    0.0000 H   0  0  0  0  0  0  0  0  0  0  0  0
    1.3585   -0.9903    0.0000 H   0  0  0  0  0  0  0  0  0  0  0  0
    1.9532   -1.2975    0.0000 H   0  0  0  0  0  0  0  0  0  0  0  0
    0.6544   -1.7229    0.0000 H   0  0  0  0  0  0  0  0  0  0  0  0
   -1.0117   -0.2229    0.0000 H   0  0  0  0  0  0  0  0  0  0  0  0
   -0.9506   -1.3880    0.0000 H   0  0  0  0  0  0  0  0  0  0  0  0
    0.2145   -1.3270    0.0000 H   0  0  0  0  0  0  0  0  0  0  0  0
   -1.1634    1.5789    0.0000 H   0  0  0  0  0  0  0  0  0  0  0  0
    1.3607    2.0816    0.0000 H   0  0  0  0  0  0  0  0  0  0  0  0
    1.2997    3.2467    0.0000 H   0  0  0  0  0  0  0  0  0  0  0  0
    0.1346    3.1856    0.0000 H   0  0  0  0  0  0  0  0  0  0  0  0
    3.6543    2.0205    0.0000 H   0  0  0  0  0  0  0  0  0  0  0  0
  1  2  1  0  0  0  0
  2  3  2  0  0  0  0
  2  4  1  0  0  0  0
  4  5  2  0  0  0  0
  5  6  1  0  0  0  0
  5  7  1  0  0  0  0
  7  8  1  0  0  0  0
  7  9  1  0  0  0  0
  9 10  1  0  0  0  0
 10 11  1  0  0  0  0
 11 12  4  0  0  0  0
  7 12  1  0  0  0  0
 12 13  4  0  0  0  0
 13 14  1  0  0  0  0
 13 15  4  0  0  0  0
 15 16  1  0  0  0  0
 15 17  4  0  0  0  0
 17 18  1  0  0  0  0
 17 19  4  0  0  0  0
 11 19  4  0  0  0  0
 19 20  1  0  0  0  0
 20 21  1  0  0  0  0
 20 22  2  0  0  0  0
  9 23  2  0  0  0  0
 23 24  1  0  0  0  0
  4 24  1  0  0  0  0
 24 25  2  0  0  0  0
  1 26  1  0  0  0  0
  1 27  1  0  0  0  0
  1 28  1  0  0  0  0
  6 29  1  0  0  0  0
  8 30  1  0  0  0  0
  8 31  1  0  0  0  0
  8 32  1  0  0  0  0
 14 33  1  0  0  0  0
 16 34  1  0  0  0  0
 16 35  1  0  0  0  0
 16 36  1  0  0  0  0
 18 37  1  0  0  0  0
 21 38  1  0  0  0  0
 21 39  1  0  0  0  0
 21 40  1  0  0  0  0
 23 41  1  0  0  0  0
M  END
>  <InChIKey>
InChI=1S/C18H16O7/c1-6-14(22)12(8(3)20)16-13(15(6)23)18(4)10(25-16)5-9(21)11(7(2)19)17(18)24/h5,22-24H,1-4H3

>  <CASRN>
7562-61-0

> <Outcome>
1

>  <Index>
1744

>  <StandardizerResult>
Dearomatize (ID: Dearomatize)
Clear Stereo (ID: ClearStereo)
Wedge Clean (ID: WedgeClean)
Mesomerize (ID: Mesomerize)
Tautomerize (ID: Tautomerize)
Aromatize (ID: Aromatize)
Add Explicit Hydrogens (ID: AddExplicitH)
Neutralize (ID: Neutralize)
Clean 2D (ID: Clean2D)

> <knn Distance>


> <CpId>
1744

$$$$
1747
  Mrv1532301301811342D          

 37 36  0  0  0  0            999 V2000
    0.5719    2.5290    0.0000 C   0  0  0  0  0  0  0  0  0  0  0  0
    0.1594    1.8145    0.0000 C   0  0  0  0  0  0  0  0  0  0  0  0
    0.5719    1.1000    0.0000 O   0  0  0  0  0  0  0  0  0  0  0  0
    0.1594    0.3855    0.0000 P   0  0  0  0  0  0  0  0  0  0  0  0
   -0.5551    0.7980    0.0000 O   0  0  0  0  0  0  0  0  0  0  0  0
    0.8738   -0.0270    0.0000 O   0  0  0  0  0  0  0  0  0  0  0  0
    1.5883    0.3855    0.0000 C   0  0  0  0  0  0  0  0  0  0  0  0
    2.3028   -0.0270    0.0000 C   0  0  0  0  0  0  0  0  0  0  0  0
   -0.2531   -0.3289    0.0000 O   0  0  0  0  0  0  0  0  0  0  0  0
    0.1594   -1.0434    0.0000 P   0  0  0  0  0  0  0  0  0  0  0  0
   -0.5551   -1.4559    0.0000 O   0  0  0  0  0  0  0  0  0  0  0  0
    0.5719   -1.7579    0.0000 O   0  0  0  0  0  0  0  0  0  0  0  0
    0.1594   -2.4723    0.0000 C   0  0  0  0  0  0  0  0  0  0  0  0
    0.5719   -3.1868    0.0000 C   0  0  0  0  0  0  0  0  0  0  0  0
    0.8738   -0.6309    0.0000 O   0  0  0  0  0  0  0  0  0  0  0  0
    1.5883   -1.0434    0.0000 C   0  0  0  0  0  0  0  0  0  0  0  0
    1.5883   -1.8684    0.0000 C   0  0  0  0  0  0  0  0  0  0  0  0
    1.2863    2.1165    0.0000 H   0  0  0  0  0  0  0  0  0  0  0  0
    0.9844    3.2434    0.0000 H   0  0  0  0  0  0  0  0  0  0  0  0
   -0.1426    2.9415    0.0000 H   0  0  0  0  0  0  0  0  0  0  0  0
   -0.5779    2.1847    0.0000 H   0  0  0  0  0  0  0  0  0  0  0  0
   -0.5779    1.4442    0.0000 H   0  0  0  0  0  0  0  0  0  0  0  0
    1.9586    1.1228    0.0000 H   0  0  0  0  0  0  0  0  0  0  0  0
    1.2180    1.1228    0.0000 H   0  0  0  0  0  0  0  0  0  0  0  0
    1.8903   -0.7414    0.0000 H   0  0  0  0  0  0  0  0  0  0  0  0
    3.0172   -0.4395    0.0000 H   0  0  0  0  0  0  0  0  0  0  0  0
    2.7153    0.6875    0.0000 H   0  0  0  0  0  0  0  0  0  0  0  0
   -0.5779   -2.1021    0.0000 H   0  0  0  0  0  0  0  0  0  0  0  0
   -0.5779   -2.8426    0.0000 H   0  0  0  0  0  0  0  0  0  0  0  0
   -0.1426   -3.5993    0.0000 H   0  0  0  0  0  0  0  0  0  0  0  0
    0.9844   -3.9013    0.0000 H   0  0  0  0  0  0  0  0  0  0  0  0
    1.2863   -2.7743    0.0000 H   0  0  0  0  0  0  0  0  0  0  0  0
    2.3505   -1.3591    0.0000 H   0  0  0  0  0  0  0  0  0  0  0  0
    1.4806   -0.2255    0.0000 H   0  0  0  0  0  0  0  0  0  0  0  0
    0.9221   -1.3818    0.0000 H   0  0  0  0  0  0  0  0  0  0  0  0
    0.8024   -2.1194    0.0000 H   0  0  0  0  0  0  0  0  0  0  0  0
    2.2442   -2.3688    0.0000 H   0  0  0  0  0  0  0  0  0  0  0  0
  1  2  1  0  0  0  0
  2  3  1  0  0  0  0
  3  4  1  0  0  0  0
  4  5  2  0  0  0  0
  4  6  1  0  0  0  0
  6  7  1  0  0  0  0
  7  8  1  0  0  0  0
  4  9  1  0  0  0  0
  9 10  1  0  0  0  0
 10 11  2  0  0  0  0
 10 12  1  0  0  0  0
 12 13  1  0  0  0  0
 13 14  1  0  0  0  0
 10 15  1  0  0  0  0
 15 16  1  0  0  0  0
 16 17  1  0  0  0  0
  1 18  1  0  0  0  0
  1 19  1  0  0  0  0
  1 20  1  0  0  0  0
  2 21  1  0  0  0  0
  2 22  1  0  0  0  0
  7 23  1  0  0  0  0
  7 24  1  0  0  0  0
  8 25  1  0  0  0  0
  8 26  1  0  0  0  0
  8 27  1  0  0  0  0
 13 28  1  0  0  0  0
 13 29  1  0  0  0  0
 14 30  1  0  0  0  0
 14 31  1  0  0  0  0
 14 32  1  0  0  0  0
 16 33  1  0  0  0  0
 16 34  1  0  0  0  0
 17 35  1  0  0  0  0
 17 36  1  0  0  0  0
 17 37  1  0  0  0  0
M  END
>  <InChIKey>
InChI=1S/C8H20O7P2/c1-5-11-16(9,12-6-2)15-17(10,13-7-3)14-8-4/h5-8H2,1-4H3

>  <CASRN>
107-49-3

> <Outcome>
1

>  <Index>
1747

>  <StandardizerResult>
Clear Stereo (ID: ClearStereo)
Wedge Clean (ID: WedgeClean)
Mesomerize (ID: Mesomerize)
Tautomerize (ID: Tautomerize)
Add Explicit Hydrogens (ID: AddExplicitH)
Neutralize (ID: Neutralize)
Clean 2D (ID: Clean2D)

> <knn Distance>


> <CpId>
1747

$$$$
1748
  Mrv1532301301811342D          

 11 10  0  0  0  0            999 V2000
    1.2375    2.1434    0.0000 N   0  0  0  0  0  0  0  0  0  0  0  0
    0.8250    1.4289    0.0000 C   0  0  0  0  0  0  0  0  0  0  0  0
   -0.0000    1.4289    0.0000 N   0  0  0  0  0  0  0  0  0  0  0  0
    1.2375    0.7145    0.0000 N   0  0  0  0  0  0  0  0  0  0  0  0
    0.8250   -0.0000    0.0000 N   0  0  0  0  0  0  0  0  0  0  0  0
    1.2375   -0.7145    0.0000 O   0  0  0  0  0  0  0  0  0  0  0  0
   -0.0000   -0.0000    0.0000 O   0  0  0  0  0  0  0  0  0  0  0  0
    2.0625    2.1434    0.0000 H   0  0  0  0  0  0  0  0  0  0  0  0
    0.8250    2.8579    0.0000 H   0  0  0  0  0  0  0  0  0  0  0  0
   -0.4125    2.1434    0.0000 H   0  0  0  0  0  0  0  0  0  0  0  0
    2.0625    0.7145    0.0000 H   0  0  0  0  0  0  0  0  0  0  0  0
  1  2  1  0  0  0  0
  2  3  2  0  0  0  0
  2  4  1  0  0  0  0
  4  5  1  0  0  0  0
  5  6  2  0  0  0  0
  5  7  2  0  0  0  0
  1  8  1  0  0  0  0
  1  9  1  0  0  0  0
  3 10  1  0  0  0  0
  4 11  1  0  0  0  0
M  END
>  <InChIKey>
InChI=1S/CH4N4O2/c2-1(3)4-5(6)7/h(H4,2,3,4)

>  <CASRN>
556-88-7

> <Outcome>
1

>  <Index>
1748

>  <StandardizerResult>
Clear Stereo (ID: ClearStereo)
Wedge Clean (ID: WedgeClean)
Mesomerize (ID: Mesomerize)
Tautomerize (ID: Tautomerize)
Add Explicit Hydrogens (ID: AddExplicitH)
Neutralize (ID: Neutralize)
Clean 2D (ID: Clean2D)

> <knn Distance>


> <CpId>
1748

$$$$
1754
  Mrv1532301301811342D          

 16 16  0  0  0  0            999 V2000
   -0.0000    2.4750    0.0000 O   0  0  0  0  0  0  0  0  0  0  0  0
    0.7145    2.0625    0.0000 C   0  0  0  0  0  0  0  0  0  0  0  0
    1.4289    2.4750    0.0000 O   0  0  0  0  0  0  0  0  0  0  0  0
    0.7145    1.2375    0.0000 C   0  0  0  0  0  0  0  0  0  0  0  0
    1.4289    0.8250    0.0000 C   0  0  0  0  0  0  0  0  0  0  0  0
    1.4289   -0.0000    0.0000 C   0  0  0  0  0  0  0  0  0  0  0  0
    2.1434   -0.4125    0.0000 Br  0  0  0  0  0  0  0  0  0  0  0  0
    0.7145   -0.4125    0.0000 C   0  0  0  0  0  0  0  0  0  0  0  0
   -0.0000   -0.0000    0.0000 C   0  0  0  0  0  0  0  0  0  0  0  0
   -0.0000    0.8250    0.0000 C   0  0  0  0  0  0  0  0  0  0  0  0
   -0.7145    1.2375    0.0000 O   0  0  0  0  0  0  0  0  0  0  0  0
   -0.0000    3.3000    0.0000 H   0  0  0  0  0  0  0  0  0  0  0  0
    2.1434    1.2375    0.0000 H   0  0  0  0  0  0  0  0  0  0  0  0
    0.7145   -1.2375    0.0000 H   0  0  0  0  0  0  0  0  0  0  0  0
   -0.7145   -0.4125    0.0000 H   0  0  0  0  0  0  0  0  0  0  0  0
   -0.7145    2.0625    0.0000 H   0  0  0  0  0  0  0  0  0  0  0  0
  1  2  1  0  0  0  0
  2  3  2  0  0  0  0
  2  4  1  0  0  0  0
  4  5  4  0  0  0  0
  5  6  4  0  0  0  0
  6  7  1  0  0  0  0
  6  8  4  0  0  0  0
  8  9  4  0  0  0  0
  9 10  4  0  0  0  0
  4 10  4  0  0  0  0
 10 11  1  0  0  0  0
  1 12  1  0  0  0  0
  5 13  1  0  0  0  0
  8 14  1  0  0  0  0
  9 15  1  0  0  0  0
 11 16  1  0  0  0  0
M  END
>  <InChIKey>
InChI=1S/C7H5BrO3/c8-4-1-2-6(9)5(3-4)7(10)11/h1-3,9H,(H,10,11)

>  <CASRN>
89-55-4

> <Outcome>
1

>  <Index>
1754

>  <StandardizerResult>
Dearomatize (ID: Dearomatize)
Clear Stereo (ID: ClearStereo)
Wedge Clean (ID: WedgeClean)
Mesomerize (ID: Mesomerize)
Tautomerize (ID: Tautomerize)
Aromatize (ID: Aromatize)
Add Explicit Hydrogens (ID: AddExplicitH)
Neutralize (ID: Neutralize)
Clean 2D (ID: Clean2D)

> <knn Distance>


> <CpId>
1754

$$$$
1756
  Mrv1532301301811342D          

 25 25  0  0  0  0            999 V2000
    2.8585    4.9496    0.0000 C   0  0  0  0  0  0  0  0  0  0  0  0
    2.1440    4.5371    0.0000 C   0  0  0  0  0  0  0  0  0  0  0  0
    2.1440    3.7121    0.0000 O   0  0  0  0  0  0  0  0  0  0  0  0
    1.4295    3.2996    0.0000 C   0  0  0  0  0  0  0  0  0  0  0  0
    0.7151    3.7121    0.0000 O   0  0  0  0  0  0  0  0  0  0  0  0
    1.4295    2.4746    0.0000 C   0  0  0  0  0  0  0  0  0  0  0  0
    0.7151    2.0621    0.0000 C   0  0  0  0  0  0  0  0  0  0  0  0
    0.0006    2.4746    0.0000 O   0  0  0  0  0  0  0  0  0  0  0  0
    0.7151    1.2371    0.0000 C   0  0  0  0  0  0  0  0  0  0  0  0
    1.4295    0.8246    0.0000 C   0  0  0  0  0  0  0  0  0  0  0  0
    1.4295   -0.0004    0.0000 C   0  0  0  0  0  0  0  0  0  0  0  0
    2.1440   -0.4129    0.0000 F   0  0  0  0  0  0  0  0  0  0  0  0
    0.7151   -0.4129    0.0000 C   0  0  0  0  0  0  0  0  0  0  0  0
    0.7151   -1.2379    0.0000 Cl  0  0  0  0  0  0  0  0  0  0  0  0
    0.0006   -0.0004    0.0000 N   0  0  0  0  0  0  0  0  0  0  0  0
    0.0006    0.8246    0.0000 C   0  0  0  0  0  0  0  0  0  0  0  0
   -0.7139    1.2371    0.0000 Cl  0  0  0  0  0  0  0  0  0  0  0  0
    3.2710    4.2352    0.0000 H   0  0  0  0  0  0  0  0  0  0  0  0
    3.5730    5.3621    0.0000 H   0  0  0  0  0  0  0  0  0  0  0  0
    2.4460    5.6641    0.0000 H   0  0  0  0  0  0  0  0  0  0  0  0
    1.6907    5.2264    0.0000 H   0  0  0  0  0  0  0  0  0  0  0  0
    1.3204    4.5851    0.0000 H   0  0  0  0  0  0  0  0  0  0  0  0
    2.1440    2.0621    0.0000 H   0  0  0  0  0  0  0  0  0  0  0  0
    0.0006    3.2996    0.0000 H   0  0  0  0  0  0  0  0  0  0  0  0
    2.1440    1.2371    0.0000 H   0  0  0  0  0  0  0  0  0  0  0  0
  1  2  1  0  0  0  0
  2  3  1  0  0  0  0
  3  4  1  0  0  0  0
  4  5  2  0  0  0  0
  6  4  1  4  0  0  0
  6  7  2  0  0  0  0
  7  8  1  0  0  0  0
  7  9  1  0  0  0  0
  9 10  4  0  0  0  0
 10 11  4  0  0  0  0
 11 12  1  0  0  0  0
 11 13  4  0  0  0  0
 13 14  1  0  0  0  0
 13 15  4  0  0  0  0
 15 16  4  0  0  0  0
  9 16  4  0  0  0  0
 16 17  1  0  0  0  0
  1 18  1  0  0  0  0
  1 19  1  0  0  0  0
  1 20  1  0  0  0  0
  2 21  1  0  0  0  0
  2 22  1  0  0  0  0
  6 23  1  0  0  0  0
  8 24  1  0  0  0  0
 10 25  1  0  0  0  0
M  END
>  <InChIKey>
InChI=1S/C10H8Cl2FNO3/c1-2-17-8(16)4-7(15)5-3-6(13)10(12)14-9(5)11/h3-4,15H,2H2,1H3

>  <UN GHS>
2B

>  <CASRN>
96568-04-6

> <Outcome>
1

>  <Index>
1756

>  <StandardizerResult>
Dearomatize (ID: Dearomatize)
Clear Stereo (ID: ClearStereo)
Wedge Clean (ID: WedgeClean)
Mesomerize (ID: Mesomerize)
Tautomerize (ID: Tautomerize)
Aromatize (ID: Aromatize)
Add Explicit Hydrogens (ID: AddExplicitH)
Neutralize (ID: Neutralize)
Clean 2D (ID: Clean2D)

> <knn Distance>


> <CpId>
1756

$$$$
1759
  Mrv1532301301811342D          

 89 93  0  0  0  0            999 V2000
   -5.7237   -2.5162    0.0000 C   0  0  0  0  0  0  0  0  0  0  0  0
   -5.0092   -2.9287    0.0000 C   0  0  0  0  0  0  0  0  0  0  0  0
   -4.2947   -2.5162    0.0000 N   0  0  0  0  0  0  0  0  0  0  0  0
   -3.5803   -2.9287    0.0000 C   0  0  0  0  0  0  0  0  0  0  0  0
   -3.5803   -3.7537    0.0000 C   0  0  0  0  0  0  0  0  0  0  0  0
   -2.8658   -4.1662    0.0000 C   0  0  0  0  0  0  0  0  0  0  0  0
   -2.8658   -4.9912    0.0000 C   0  0  0  0  0  0  0  0  0  0  0  0
   -3.5803   -5.4037    0.0000 C   0  0  0  0  0  0  0  0  0  0  0  0
   -4.2947   -4.9912    0.0000 C   0  0  0  0  0  0  0  0  0  0  0  0
   -4.2947   -4.1662    0.0000 C   0  0  0  0  0  0  0  0  0  0  0  0
   -5.0092   -5.4037    0.0000 S   0  0  0  0  0  0  0  0  0  0  0  0
   -5.7237   -5.8162    0.0000 O   0  0  0  0  0  0  0  0  0  0  0  0
   -4.5967   -6.1182    0.0000 O   0  0  0  0  0  0  0  0  0  0  0  0
   -5.4217   -4.6892    0.0000 O   0  0  0  0  0  0  0  0  0  0  0  0
   -4.2947   -1.6912    0.0000 C   0  0  0  0  0  0  0  0  0  0  0  0
   -5.0092   -1.2787    0.0000 C   0  0  0  0  0  0  0  0  0  0  0  0
   -5.0092   -0.4537    0.0000 C   0  0  0  0  0  0  0  0  0  0  0  0
   -4.2947   -0.0412    0.0000 C   0  0  0  0  0  0  0  0  0  0  0  0
   -3.5803   -0.4537    0.0000 C   0  0  0  0  0  0  0  0  0  0  0  0
   -3.5803   -1.2787    0.0000 C   0  0  0  0  0  0  0  0  0  0  0  0
   -4.2947    0.7838    0.0000 C   0  3  0  0  0  0  0  0  0  0  0  0
   -3.5803    1.1963    0.0000 C   0  0  0  0  0  0  0  0  0  0  0  0
   -3.5803    2.0213    0.0000 C   0  0  0  0  0  0  0  0  0  0  0  0
   -2.8658    2.4338    0.0000 C   0  0  0  0  0  0  0  0  0  0  0  0
   -2.1513    2.0213    0.0000 C   0  0  0  0  0  0  0  0  0  0  0  0
   -2.1513    1.1963    0.0000 C   0  0  0  0  0  0  0  0  0  0  0  0
   -2.8658    0.7838    0.0000 C   0  0  0  0  0  0  0  0  0  0  0  0
   -1.4369    2.4338    0.0000 N   0  0  0  0  0  0  0  0  0  0  0  0
   -0.7224    2.0213    0.0000 C   0  0  0  0  0  0  0  0  0  0  0  0
   -0.0079    2.4338    0.0000 C   0  0  0  0  0  0  0  0  0  0  0  0
   -1.4369    3.2588    0.0000 C   0  0  0  0  0  0  0  0  0  0  0  0
   -2.1513    3.6713    0.0000 C   0  0  0  0  0  0  0  0  0  0  0  0
   -2.8658    3.2588    0.0000 C   0  0  0  0  0  0  0  0  0  0  0  0
   -3.5803    3.6713    0.0000 C   0  0  0  0  0  0  0  0  0  0  0  0
   -3.5803    4.4963    0.0000 C   0  0  0  0  0  0  0  0  0  0  0  0
   -2.8658    4.9088    0.0000 C   0  0  0  0  0  0  0  0  0  0  0  0
   -2.1513    4.4963    0.0000 C   0  0  0  0  0  0  0  0  0  0  0  0
   -2.8658    5.7338    0.0000 S   0  0  0  0  0  0  0  0  0  0  0  0
   -2.8658    6.5588    0.0000 O   0  0  0  0  0  0  0  0  0  0  0  0
   -2.0408    5.7338    0.0000 O   0  0  0  0  0  0  0  0  0  0  0  0
   -3.6908    5.7338    0.0000 O   0  0  0  0  0  0  0  0  0  0  0  0
   -5.0092    1.1963    0.0000 C   0  0  0  0  0  0  0  0  0  0  0  0
   -5.7237    0.7838    0.0000 C   0  0  0  0  0  0  0  0  0  0  0  0
   -6.4381    1.1963    0.0000 C   0  0  0  0  0  0  0  0  0  0  0  0
   -6.4381    2.0213    0.0000 C   0  0  0  0  0  0  0  0  0  0  0  0
   -7.1526    2.4338    0.0000 O   0  0  0  0  0  0  0  0  0  0  0  0
   -5.7237    2.4338    0.0000 C   0  0  0  0  0  0  0  0  0  0  0  0
   -5.0092    2.0213    0.0000 C   0  0  0  0  0  0  0  0  0  0  0  0
   -4.2947    2.4338    0.0000 S   0  0  0  0  0  0  0  0  0  0  0  0
   -3.5803    2.8463    0.0000 O   0  0  0  0  0  0  0  0  0  0  0  0
   -3.8822    1.7193    0.0000 O   0  0  0  0  0  0  0  0  0  0  0  0
   -4.7072    3.1483    0.0000 O   0  0  0  0  0  0  0  0  0  0  0  0
   -5.3112   -1.8017    0.0000 H   0  0  0  0  0  0  0  0  0  0  0  0
   -6.4381   -2.1037    0.0000 H   0  0  0  0  0  0  0  0  0  0  0  0
   -6.1362   -3.2307    0.0000 H   0  0  0  0  0  0  0  0  0  0  0  0
   -5.3795   -3.6660    0.0000 H   0  0  0  0  0  0  0  0  0  0  0  0
   -4.6389   -3.6660    0.0000 H   0  0  0  0  0  0  0  0  0  0  0  0
   -2.7567   -2.8807    0.0000 H   0  0  0  0  0  0  0  0  0  0  0  0
   -3.1269   -2.2394    0.0000 H   0  0  0  0  0  0  0  0  0  0  0  0
   -2.1513   -3.7537    0.0000 H   0  0  0  0  0  0  0  0  0  0  0  0
   -2.1513   -5.4037    0.0000 H   0  0  0  0  0  0  0  0  0  0  0  0
   -3.5803   -6.2287    0.0000 H   0  0  0  0  0  0  0  0  0  0  0  0
   -5.0826   -4.4111    0.0000 H   0  0  0  0  0  0  0  0  0  0  0  0
   -6.4381   -5.4037    0.0000 H   0  0  0  0  0  0  0  0  0  0  0  0
   -5.8061   -1.0652    0.0000 H   0  0  0  0  0  0  0  0  0  0  0  0
   -5.7237   -0.0412    0.0000 H   0  0  0  0  0  0  0  0  0  0  0  0
   -2.8658   -0.0412    0.0000 H   0  0  0  0  0  0  0  0  0  0  0  0
   -2.8658   -1.6912    0.0000 H   0  0  0  0  0  0  0  0  0  0  0  0
   -2.8658    1.6088    0.0000 H   0  0  0  0  0  0  0  0  0  0  0  0
   -2.1513    2.8463    0.0000 H   0  0  0  0  0  0  0  0  0  0  0  0
   -1.4369    0.7838    0.0000 H   0  0  0  0  0  0  0  0  0  0  0  0
   -3.5803    0.3713    0.0000 H   0  0  0  0  0  0  0  0  0  0  0  0
   -1.0926    1.2840    0.0000 H   0  0  0  0  0  0  0  0  0  0  0  0
   -0.3521    1.2840    0.0000 H   0  0  0  0  0  0  0  0  0  0  0  0
    0.4046    1.7193    0.0000 H   0  0  0  0  0  0  0  0  0  0  0  0
    0.7066    2.8463    0.0000 H   0  0  0  0  0  0  0  0  0  0  0  0
   -0.4204    3.1483    0.0000 H   0  0  0  0  0  0  0  0  0  0  0  0
   -0.6132    3.3068    0.0000 H   0  0  0  0  0  0  0  0  0  0  0  0
   -0.9835    3.9481    0.0000 H   0  0  0  0  0  0  0  0  0  0  0  0
   -2.8658    4.0838    0.0000 H   0  0  0  0  0  0  0  0  0  0  0  0
   -4.4053    3.6713    0.0000 H   0  0  0  0  0  0  0  0  0  0  0  0
   -4.2947    4.9088    0.0000 H   0  0  0  0  0  0  0  0  0  0  0  0
   -1.4369    4.9088    0.0000 H   0  0  0  0  0  0  0  0  0  0  0  0
   -2.1513    6.9713    0.0000 H   0  0  0  0  0  0  0  0  0  0  0  0
   -5.0092    0.3713    0.0000 H   0  0  0  0  0  0  0  0  0  0  0  0
   -7.1526    0.7838    0.0000 H   0  0  0  0  0  0  0  0  0  0  0  0
   -7.1526    3.2588    0.0000 H   0  0  0  0  0  0  0  0  0  0  0  0
   -5.7237    3.2588    0.0000 H   0  0  0  0  0  0  0  0  0  0  0  0
   -4.2947    3.2588    0.0000 H   0  0  0  0  0  0  0  0  0  0  0  0
  1  2  1  0  0  0  0
  2  3  1  0  0  0  0
  3  4  1  0  0  0  0
  4  5  1  0  0  0  0
  5  6  4  0  0  0  0
  6  7  4  0  0  0  0
  7  8  4  0  0  0  0
  8  9  4  0  0  0  0
  9 10  4  0  0  0  0
  5 10  4  0  0  0  0
  9 11  1  0  0  0  0
 11 12  1  0  0  0  0
 11 13  2  0  0  0  0
 11 14  2  0  0  0  0
  3 15  1  0  0  0  0
 15 16  4  0  0  0  0
 16 17  4  0  0  0  0
 17 18  4  0  0  0  0
 18 19  4  0  0  0  0
 19 20  4  0  0  0  0
 15 20  4  0  0  0  0
 18 21  1  0  0  0  0
 21 22  1  0  0  0  0
 22 23  4  0  0  0  0
 23 24  4  0  0  0  0
 24 25  4  0  0  0  0
 25 26  4  0  0  0  0
 26 27  4  0  0  0  0
 22 27  4  0  0  0  0
 25 28  1  0  0  0  0
 28 29  1  0  0  0  0
 29 30  1  0  0  0  0
 28 31  1  0  0  0  0
 31 32  1  0  0  0  0
 32 33  4  0  0  0  0
 33 34  4  0  0  0  0
 34 35  4  0  0  0  0
 35 36  4  0  0  0  0
 36 37  4  0  0  0  0
 32 37  4  0  0  0  0
 36 38  1  0  0  0  0
 38 39  1  0  0  0  0
 38 40  2  0  0  0  0
 38 41  2  0  0  0  0
 21 42  1  0  0  0  0
 42 43  4  0  0  0  0
 43 44  4  0  0  0  0
 44 45  4  0  0  0  0
 45 46  1  0  0  0  0
 45 47  4  0  0  0  0
 47 48  4  0  0  0  0
 42 48  4  0  0  0  0
 48 49  1  0  0  0  0
 49 50  1  0  0  0  0
 49 51  2  0  0  0  0
 49 52  2  0  0  0  0
  1 53  1  0  0  0  0
  1 54  1  0  0  0  0
  1 55  1  0  0  0  0
  2 56  1  0  0  0  0
  2 57  1  0  0  0  0
  4 58  1  0  0  0  0
  4 59  1  0  0  0  0
  6 60  1  0  0  0  0
  7 61  1  0  0  0  0
  8 62  1  0  0  0  0
 10 63  1  0  0  0  0
 12 64  1  0  0  0  0
 16 65  1  0  0  0  0
 17 66  1  0  0  0  0
 19 67  1  0  0  0  0
 20 68  1  0  0  0  0
 23 69  1  0  0  0  0
 24 70  1  0  0  0  0
 26 71  1  0  0  0  0
 27 72  1  0  0  0  0
 29 73  1  0  0  0  0
 29 74  1  0  0  0  0
 30 75  1  0  0  0  0
 30 76  1  0  0  0  0
 30 77  1  0  0  0  0
 31 78  1  0  0  0  0
 31 79  1  0  0  0  0
 33 80  1  0  0  0  0
 34 81  1  0  0  0  0
 35 82  1  0  0  0  0
 37 83  1  0  0  0  0
 39 84  1  0  0  0  0
 43 85  1  0  0  0  0
 44 86  1  0  0  0  0
 46 87  1  0  0  0  0
 47 88  1  0  0  0  0
 50 89  1  0  0  0  0
M  CHG  1  21   1
M  END
>  <InChIKey>
InChI=1S/C37H36N2O10S3/c1-3-38(24-26-7-5-9-33(21-26)50(41,42)43)30-15-11-28(12-16-30)37(35-20-19-32(40)23-36(35)52(47,48)49)29-13-17-31(18-14-29)39(4-2)25-27-8-6-10-34(22-27)51(44,45)46/h5-23H,3-4,24-25H2,1-2H3,(H3-,40,41,42,43,44,45,46,47,48,49)/p+1

>  <CASRN>
2353-45-9

> <Outcome>
1

>  <Index>
1759

>  <StandardizerResult>
Dearomatize (ID: Dearomatize)
Clear Stereo (ID: ClearStereo)
Wedge Clean (ID: WedgeClean)
Mesomerize (ID: Mesomerize)
Tautomerize (ID: Tautomerize)
Aromatize (ID: Aromatize)
Add Explicit Hydrogens (ID: AddExplicitH)
Clean 2D (ID: Clean2D)

> <knn Distance>


> <CpId>
1759

$$$$
1765
  Mrv1532301301811342D          

 33 34  0  0  0  0            999 V2000
    1.5339   -1.2375    0.0000 C   0  0  0  0  0  0  0  0  0  0  0  0
    0.7089   -1.2375    0.0000 C   0  0  0  0  0  0  0  0  0  0  0  0
   -0.1161   -1.2375    0.0000 C   0  0  0  0  0  0  0  0  0  0  0  0
    0.7089   -2.0625    0.0000 C   0  0  0  0  0  0  0  0  0  0  0  0
    1.4233   -2.4750    0.0000 C   0  0  0  0  0  0  0  0  0  0  0  0
    1.4233   -3.3000    0.0000 C   0  0  0  0  0  0  0  0  0  0  0  0
    0.7089   -3.7125    0.0000 C   0  0  0  0  0  0  0  0  0  0  0  0
    0.7089   -4.5375    0.0000 O   0  0  0  0  0  0  0  0  0  0  0  0
   -0.0056   -3.3000    0.0000 C   0  0  0  0  0  0  0  0  0  0  0  0
   -0.0056   -2.4750    0.0000 C   0  0  0  0  0  0  0  0  0  0  0  0
    0.7089   -0.4125    0.0000 C   0  0  0  0  0  0  0  0  0  0  0  0
   -0.0056    0.0000    0.0000 C   0  0  0  0  0  0  0  0  0  0  0  0
   -0.0056    0.8250    0.0000 C   0  0  0  0  0  0  0  0  0  0  0  0
    0.7089    1.2375    0.0000 C   0  0  0  0  0  0  0  0  0  0  0  0
    0.7089    2.0625    0.0000 O   0  0  0  0  0  0  0  0  0  0  0  0
    1.4233    0.8250    0.0000 C   0  0  0  0  0  0  0  0  0  0  0  0
    1.4233   -0.0000    0.0000 C   0  0  0  0  0  0  0  0  0  0  0  0
    1.5339   -2.0625    0.0000 H   0  0  0  0  0  0  0  0  0  0  0  0
    2.3589   -1.2375    0.0000 H   0  0  0  0  0  0  0  0  0  0  0  0
    1.5339   -0.4125    0.0000 H   0  0  0  0  0  0  0  0  0  0  0  0
   -0.1161   -0.4125    0.0000 H   0  0  0  0  0  0  0  0  0  0  0  0
   -0.9411   -1.2375    0.0000 H   0  0  0  0  0  0  0  0  0  0  0  0
   -0.1161   -2.0625    0.0000 H   0  0  0  0  0  0  0  0  0  0  0  0
    2.2413   -2.5827    0.0000 H   0  0  0  0  0  0  0  0  0  0  0  0
    2.1378   -3.7125    0.0000 H   0  0  0  0  0  0  0  0  0  0  0  0
   -0.0056   -4.9500    0.0000 H   0  0  0  0  0  0  0  0  0  0  0  0
   -0.7201   -3.7125    0.0000 H   0  0  0  0  0  0  0  0  0  0  0  0
   -0.8235   -2.5827    0.0000 H   0  0  0  0  0  0  0  0  0  0  0  0
   -0.8235    0.1077    0.0000 H   0  0  0  0  0  0  0  0  0  0  0  0
   -0.7201    1.2375    0.0000 H   0  0  0  0  0  0  0  0  0  0  0  0
    1.4233    2.4750    0.0000 H   0  0  0  0  0  0  0  0  0  0  0  0
    2.1378    1.2375    0.0000 H   0  0  0  0  0  0  0  0  0  0  0  0
    2.2413    0.1077    0.0000 H   0  0  0  0  0  0  0  0  0  0  0  0
  1  2  1  0  0  0  0
  2  3  1  0  0  0  0
  2  4  1  0  0  0  0
  4  5  4  0  0  0  0
  5  6  4  0  0  0  0
  6  7  4  0  0  0  0
  7  8  1  0  0  0  0
  7  9  4  0  0  0  0
  9 10  4  0  0  0  0
  4 10  4  0  0  0  0
  2 11  1  0  0  0  0
 11 12  4  0  0  0  0
 12 13  4  0  0  0  0
 13 14  4  0  0  0  0
 14 15  1  0  0  0  0
 14 16  4  0  0  0  0
 16 17  4  0  0  0  0
 11 17  4  0  0  0  0
  1 18  1  0  0  0  0
  1 19  1  0  0  0  0
  1 20  1  0  0  0  0
  3 21  1  0  0  0  0
  3 22  1  0  0  0  0
  3 23  1  0  0  0  0
  5 24  1  0  0  0  0
  6 25  1  0  0  0  0
  8 26  1  0  0  0  0
  9 27  1  0  0  0  0
 10 28  1  0  0  0  0
 12 29  1  0  0  0  0
 13 30  1  0  0  0  0
 15 31  1  0  0  0  0
 16 32  1  0  0  0  0
 17 33  1  0  0  0  0
M  END
>  <InChIKey>
InChI=1S/C15H16O2/c1-15(2,11-3-7-13(16)8-4-11)12-5-9-14(17)10-6-12/h3-10,16-17H,1-2H3

>  <CASRN>
80-05-7

> <Outcome>
1

>  <Index>
1765

>  <StandardizerResult>
Dearomatize (ID: Dearomatize)
Clear Stereo (ID: ClearStereo)
Wedge Clean (ID: WedgeClean)
Mesomerize (ID: Mesomerize)
Tautomerize (ID: Tautomerize)
Aromatize (ID: Aromatize)
Add Explicit Hydrogens (ID: AddExplicitH)
Neutralize (ID: Neutralize)
Clean 2D (ID: Clean2D)

> <knn Distance>


> <CpId>
1765

$$$$
1768
  Mrv1532301301811342D          

 17 18  0  0  0  0            999 V2000
    1.4289   -2.4750    0.0000 O   0  0  0  0  0  0  0  0  0  0  0  0
    1.4289   -1.6500    0.0000 C   0  0  0  0  0  0  0  0  0  0  0  0
    0.7145   -1.2375    0.0000 N   0  0  0  0  0  0  0  0  0  0  0  0
    0.7145   -0.4125    0.0000 N   0  0  0  0  0  0  0  0  0  0  0  0
    1.4289    0.0000    0.0000 C   0  0  0  0  0  0  0  0  0  0  0  0
    2.1434   -0.4125    0.0000 C   0  0  0  0  0  0  0  0  0  0  0  0
    2.8579    0.0000    0.0000 C   0  0  0  0  0  0  0  0  0  0  0  0
    3.5724   -0.4125    0.0000 C   0  0  0  0  0  0  0  0  0  0  0  0
    3.5724   -1.2375    0.0000 C   0  0  0  0  0  0  0  0  0  0  0  0
    2.8579   -1.6500    0.0000 C   0  0  0  0  0  0  0  0  0  0  0  0
    2.1434   -1.2375    0.0000 C   0  0  0  0  0  0  0  0  0  0  0  0
    0.0000   -1.6500    0.0000 H   0  0  0  0  0  0  0  0  0  0  0  0
    1.4289    0.8250    0.0000 H   0  0  0  0  0  0  0  0  0  0  0  0
    2.8579    0.8250    0.0000 H   0  0  0  0  0  0  0  0  0  0  0  0
    4.2868    0.0000    0.0000 H   0  0  0  0  0  0  0  0  0  0  0  0
    4.2868   -1.6500    0.0000 H   0  0  0  0  0  0  0  0  0  0  0  0
    2.8579   -2.4750    0.0000 H   0  0  0  0  0  0  0  0  0  0  0  0
  1  2  2  0  0  0  0
  2  3  1  0  0  0  0
  3  4  1  0  0  0  0
  4  5  2  0  0  0  0
  5  6  1  0  0  0  0
  6  7  4  0  0  0  0
  7  8  4  0  0  0  0
  8  9  4  0  0  0  0
  9 10  4  0  0  0  0
 10 11  4  0  0  0  0
  2 11  1  0  0  0  0
  6 11  4  0  0  0  0
  3 12  1  0  0  0  0
  5 13  1  0  0  0  0
  7 14  1  0  0  0  0
  8 15  1  0  0  0  0
  9 16  1  0  0  0  0
 10 17  1  0  0  0  0
M  END
>  <InChIKey>
InChI=1S/C8H6N2O/c11-8-7-4-2-1-3-6(7)5-9-10-8/h1-5H,(H,10,11)

>  <CASRN>
119-39-1

> <Outcome>
1

>  <Index>
1768

>  <StandardizerResult>
Dearomatize (ID: Dearomatize)
Clear Stereo (ID: ClearStereo)
Wedge Clean (ID: WedgeClean)
Mesomerize (ID: Mesomerize)
Tautomerize (ID: Tautomerize)
Aromatize (ID: Aromatize)
Add Explicit Hydrogens (ID: AddExplicitH)
Neutralize (ID: Neutralize)
Clean 2D (ID: Clean2D)

> <knn Distance>


> <CpId>
1768

$$$$
1778
  Mrv1532301301811342D          

 17 17  0  0  0  0            999 V2000
    0.0009    3.3005    0.0000 Cl  0  0  0  0  0  0  0  0  0  0  0  0
    0.0009    2.4755    0.0000 C   0  0  0  0  0  0  0  0  0  0  0  0
    0.7154    2.0630    0.0000 C   0  0  0  0  0  0  0  0  0  0  0  0
    1.4298    2.4755    0.0000 O   0  0  0  0  0  0  0  0  0  0  0  0
    0.7154    1.2380    0.0000 C   0  0  0  0  0  0  0  0  0  0  0  0
    1.4298    0.8255    0.0000 C   0  0  0  0  0  0  0  0  0  0  0  0
    1.4298    0.0005    0.0000 C   0  0  0  0  0  0  0  0  0  0  0  0
    0.7154   -0.4120    0.0000 C   0  0  0  0  0  0  0  0  0  0  0  0
    0.0009    0.0005    0.0000 C   0  0  0  0  0  0  0  0  0  0  0  0
    0.0009    0.8255    0.0000 C   0  0  0  0  0  0  0  0  0  0  0  0
   -0.8227    2.4275    0.0000 H   0  0  0  0  0  0  0  0  0  0  0  0
   -0.4524    1.7862    0.0000 H   0  0  0  0  0  0  0  0  0  0  0  0
    2.1443    1.2380    0.0000 H   0  0  0  0  0  0  0  0  0  0  0  0
    2.1443   -0.4120    0.0000 H   0  0  0  0  0  0  0  0  0  0  0  0
    0.7154   -1.2370    0.0000 H   0  0  0  0  0  0  0  0  0  0  0  0
   -0.7136   -0.4120    0.0000 H   0  0  0  0  0  0  0  0  0  0  0  0
   -0.7136    1.2380    0.0000 H   0  0  0  0  0  0  0  0  0  0  0  0
  1  2  1  0  0  0  0
  2  3  1  0  0  0  0
  3  4  2  0  0  0  0
  3  5  1  0  0  0  0
  5  6  4  0  0  0  0
  6  7  4  0  0  0  0
  7  8  4  0  0  0  0
  8  9  4  0  0  0  0
  9 10  4  0  0  0  0
  5 10  4  0  0  0  0
  2 11  1  0  0  0  0
  2 12  1  0  0  0  0
  6 13  1  0  0  0  0
  7 14  1  0  0  0  0
  8 15  1  0  0  0  0
  9 16  1  0  0  0  0
 10 17  1  0  0  0  0
M  END
>  <InChIKey>
InChI=1S/C8H7ClO/c9-6-8(10)7-4-2-1-3-5-7/h1-5H,6H2

>  <CASRN>
532-27-4

> <Outcome>
1

>  <Index>
1778

>  <StandardizerResult>
Dearomatize (ID: Dearomatize)
Clear Stereo (ID: ClearStereo)
Wedge Clean (ID: WedgeClean)
Mesomerize (ID: Mesomerize)
Tautomerize (ID: Tautomerize)
Aromatize (ID: Aromatize)
Add Explicit Hydrogens (ID: AddExplicitH)
Neutralize (ID: Neutralize)
Clean 2D (ID: Clean2D)

> <knn Distance>


> <CpId>
1778

$$$$
1779
  Mrv1532301301811342D          

 40 39  0  0  0  0            999 V2000
    5.3013    5.5588    0.0000 C   0  0  0  0  0  0  0  0  0  0  0  0
    4.5869    5.1463    0.0000 C   0  0  0  0  0  0  0  0  0  0  0  0
    4.5869    4.3213    0.0000 C   0  0  0  0  0  0  0  0  0  0  0  0
    3.8724    3.9088    0.0000 C   0  0  0  0  0  0  0  0  0  0  0  0
    3.8724    3.0838    0.0000 N   0  0  0  0  0  0  0  0  0  0  0  0
    3.1579    2.6713    0.0000 C   0  0  0  0  0  0  0  0  0  0  0  0
    3.1579    1.8463    0.0000 C   0  0  0  0  0  0  0  0  0  0  0  0
    2.4435    1.4338    0.0000 C   0  0  0  0  0  0  0  0  0  0  0  0
    2.4435    0.6088    0.0000 C   0  0  0  0  0  0  0  0  0  0  0  0
    4.5869    2.6713    0.0000 C   0  0  0  0  0  0  0  0  0  0  0  0
    4.5869    1.8463    0.0000 C   0  0  0  0  0  0  0  0  0  0  0  0
    5.3013    1.4338    0.0000 C   0  0  0  0  0  0  0  0  0  0  0  0
    5.3013    0.6088    0.0000 C   0  0  0  0  0  0  0  0  0  0  0  0
    5.7138    4.8444    0.0000 H   0  0  0  0  0  0  0  0  0  0  0  0
    6.0158    5.9713    0.0000 H   0  0  0  0  0  0  0  0  0  0  0  0
    4.8888    6.2733    0.0000 H   0  0  0  0  0  0  0  0  0  0  0  0
    4.1335    5.8356    0.0000 H   0  0  0  0  0  0  0  0  0  0  0  0
    3.7633    5.1943    0.0000 H   0  0  0  0  0  0  0  0  0  0  0  0
    5.0402    3.6321    0.0000 H   0  0  0  0  0  0  0  0  0  0  0  0
    5.4105    4.2734    0.0000 H   0  0  0  0  0  0  0  0  0  0  0  0
    3.4191    4.5981    0.0000 H   0  0  0  0  0  0  0  0  0  0  0  0
    3.0488    3.9568    0.0000 H   0  0  0  0  0  0  0  0  0  0  0  0
    2.7046    3.3606    0.0000 H   0  0  0  0  0  0  0  0  0  0  0  0
    2.3343    2.7193    0.0000 H   0  0  0  0  0  0  0  0  0  0  0  0
    3.6113    1.1571    0.0000 H   0  0  0  0  0  0  0  0  0  0  0  0
    3.9815    1.7984    0.0000 H   0  0  0  0  0  0  0  0  0  0  0  0
    1.9901    2.1231    0.0000 H   0  0  0  0  0  0  0  0  0  0  0  0
    1.6199    1.4818    0.0000 H   0  0  0  0  0  0  0  0  0  0  0  0
    1.6185    0.6088    0.0000 H   0  0  0  0  0  0  0  0  0  0  0  0
    2.4435   -0.2162    0.0000 H   0  0  0  0  0  0  0  0  0  0  0  0
    3.2685    0.6088    0.0000 H   0  0  0  0  0  0  0  0  0  0  0  0
    5.4105    2.7193    0.0000 H   0  0  0  0  0  0  0  0  0  0  0  0
    5.0402    3.3606    0.0000 H   0  0  0  0  0  0  0  0  0  0  0  0
    4.4050    1.0416    0.0000 H   0  0  0  0  0  0  0  0  0  0  0  0
    5.3013    2.2588    0.0000 H   0  0  0  0  0  0  0  0  0  0  0  0
    6.0766    1.1517    0.0000 H   0  0  0  0  0  0  0  0  0  0  0  0
    6.0766    1.7160    0.0000 H   0  0  0  0  0  0  0  0  0  0  0  0
    4.5000    0.8049    0.0000 H   0  0  0  0  0  0  0  0  0  0  0  0
    4.9204   -0.1229    0.0000 H   0  0  0  0  0  0  0  0  0  0  0  0
    5.9216    0.0649    0.0000 H   0  0  0  0  0  0  0  0  0  0  0  0
  1  2  1  0  0  0  0
  2  3  1  0  0  0  0
  3  4  1  0  0  0  0
  4  5  1  0  0  0  0
  5  6  1  0  0  0  0
  6  7  1  0  0  0  0
  7  8  1  0  0  0  0
  8  9  1  0  0  0  0
  5 10  1  0  0  0  0
 10 11  1  0  0  0  0
 11 12  1  0  0  0  0
 12 13  1  0  0  0  0
  1 14  1  0  0  0  0
  1 15  1  0  0  0  0
  1 16  1  0  0  0  0
  2 17  1  0  0  0  0
  2 18  1  0  0  0  0
  3 19  1  0  0  0  0
  3 20  1  0  0  0  0
  4 21  1  0  0  0  0
  4 22  1  0  0  0  0
  6 23  1  0  0  0  0
  6 24  1  0  0  0  0
  7 25  1  0  0  0  0
  7 26  1  0  0  0  0
  8 27  1  0  0  0  0
  8 28  1  0  0  0  0
  9 29  1  0  0  0  0
  9 30  1  0  0  0  0
  9 31  1  0  0  0  0
 10 32  1  0  0  0  0
 10 33  1  0  0  0  0
 11 34  1  0  0  0  0
 11 35  1  0  0  0  0
 12 36  1  0  0  0  0
 12 37  1  0  0  0  0
 13 38  1  0  0  0  0
 13 39  1  0  0  0  0
 13 40  1  0  0  0  0
M  END
>  <InChIKey>
InChI=1S/C12H27N/c1-4-7-10-13(11-8-5-2)12-9-6-3/h4-12H2,1-3H3

>  <CASRN>
102-82-9

> <Outcome>
1

>  <Index>
1779

>  <StandardizerResult>
Clear Stereo (ID: ClearStereo)
Wedge Clean (ID: WedgeClean)
Mesomerize (ID: Mesomerize)
Tautomerize (ID: Tautomerize)
Add Explicit Hydrogens (ID: AddExplicitH)
Neutralize (ID: Neutralize)
Clean 2D (ID: Clean2D)

> <knn Distance>


> <CpId>
1779

$$$$
1780
  Mrv1532301301811342D          

 21 22  0  0  0  0            999 V2000
    2.1434   -0.4125    0.0000 Cl  0  0  0  0  0  0  0  0  0  0  0  0
    2.1434   -1.2375    0.0000 C   0  0  0  0  0  0  0  0  0  0  0  0
    2.8579   -1.6500    0.0000 C   0  0  0  0  0  0  0  0  0  0  0  0
    2.8579   -2.4750    0.0000 C   0  0  0  0  0  0  0  0  0  0  0  0
    2.1434   -2.8875    0.0000 C   0  0  0  0  0  0  0  0  0  0  0  0
    1.4289   -2.4750    0.0000 C   0  0  0  0  0  0  0  0  0  0  0  0
    1.4289   -1.6500    0.0000 C   0  0  0  0  0  0  0  0  0  0  0  0
    0.7145   -1.2375    0.0000 N   0  0  0  0  0  0  0  0  0  0  0  0
    0.7145   -0.4125    0.0000 C   0  0  0  0  0  0  0  0  0  0  0  0
   -0.0000    0.0000    0.0000 N   0  0  0  0  0  0  0  0  0  0  0  0
   -0.0000    0.8250    0.0000 C   0  0  0  0  0  0  0  0  0  0  0  0
   -0.7145    1.2375    0.0000 Cl  0  0  0  0  0  0  0  0  0  0  0  0
    0.7145    1.2375    0.0000 N   0  0  0  0  0  0  0  0  0  0  0  0
    1.4289    0.8250    0.0000 C   0  0  0  0  0  0  0  0  0  0  0  0
    2.1434    1.2375    0.0000 Cl  0  0  0  0  0  0  0  0  0  0  0  0
    1.4289    0.0000    0.0000 N   0  0  0  0  0  0  0  0  0  0  0  0
    3.5723   -1.2375    0.0000 H   0  0  0  0  0  0  0  0  0  0  0  0
    3.5723   -2.8875    0.0000 H   0  0  0  0  0  0  0  0  0  0  0  0
    2.1434   -3.7125    0.0000 H   0  0  0  0  0  0  0  0  0  0  0  0
    0.7145   -2.8875    0.0000 H   0  0  0  0  0  0  0  0  0  0  0  0
   -0.0000   -1.6500    0.0000 H   0  0  0  0  0  0  0  0  0  0  0  0
  1  2  1  0  0  0  0
  2  3  4  0  0  0  0
  3  4  4  0  0  0  0
  4  5  4  0  0  0  0
  5  6  4  0  0  0  0
  6  7  4  0  0  0  0
  2  7  4  0  0  0  0
  7  8  1  0  0  0  0
  8  9  1  0  0  0  0
  9 10  4  0  0  0  0
 10 11  4  0  0  0  0
 11 12  1  0  0  0  0
 11 13  4  0  0  0  0
 13 14  4  0  0  0  0
 14 15  1  0  0  0  0
 14 16  4  0  0  0  0
  9 16  4  0  0  0  0
  3 17  1  0  0  0  0
  4 18  1  0  0  0  0
  5 19  1  0  0  0  0
  6 20  1  0  0  0  0
  8 21  1  0  0  0  0
M  END
>  <InChIKey>
InChI=1S/C9H5Cl3N4/c10-5-3-1-2-4-6(5)13-9-15-7(11)14-8(12)16-9/h1-4H,(H,13,14,15,16)

>  <CASRN>
101-05-3

> <Outcome>
1

>  <Index>
1780

>  <StandardizerResult>
Dearomatize (ID: Dearomatize)
Clear Stereo (ID: ClearStereo)
Wedge Clean (ID: WedgeClean)
Mesomerize (ID: Mesomerize)
Tautomerize (ID: Tautomerize)
Aromatize (ID: Aromatize)
Add Explicit Hydrogens (ID: AddExplicitH)
Neutralize (ID: Neutralize)
Clean 2D (ID: Clean2D)

> <knn Distance>


> <CpId>
1780

$$$$
1781
  Mrv1532301301811342D          

 23 22  0  0  0  0            999 V2000
    1.7605    1.8422    0.0000 C   0  0  0  0  0  0  0  0  0  0  0  0
    2.4750    1.4297    0.0000 C   0  0  0  0  0  0  0  0  0  0  0  0
    3.1895    1.8422    0.0000 C   0  0  0  0  0  0  0  0  0  0  0  0
    3.9039    1.4297    0.0000 C   0  0  0  0  0  0  0  0  0  0  0  0
    4.6184    1.8422    0.0000 C   0  0  0  0  0  0  0  0  0  0  0  0
    5.3329    1.4297    0.0000 C   0  0  0  0  0  0  0  0  0  0  0  0
    6.0474    1.8422    0.0000 C   0  0  0  0  0  0  0  0  0  0  0  0
    2.1730    2.5566    0.0000 H   0  0  0  0  0  0  0  0  0  0  0  0
    1.0461    2.2547    0.0000 H   0  0  0  0  0  0  0  0  0  0  0  0
    1.3480    1.1277    0.0000 H   0  0  0  0  0  0  0  0  0  0  0  0
    2.1047    0.6924    0.0000 H   0  0  0  0  0  0  0  0  0  0  0  0
    2.8453    0.6924    0.0000 H   0  0  0  0  0  0  0  0  0  0  0  0
    3.5597    2.5794    0.0000 H   0  0  0  0  0  0  0  0  0  0  0  0
    2.8192    2.5794    0.0000 H   0  0  0  0  0  0  0  0  0  0  0  0
    3.5337    0.6924    0.0000 H   0  0  0  0  0  0  0  0  0  0  0  0
    4.2742    0.6924    0.0000 H   0  0  0  0  0  0  0  0  0  0  0  0
    4.9887    2.5794    0.0000 H   0  0  0  0  0  0  0  0  0  0  0  0
    4.2482    2.5794    0.0000 H   0  0  0  0  0  0  0  0  0  0  0  0
    4.9626    0.6924    0.0000 H   0  0  0  0  0  0  0  0  0  0  0  0
    5.7031    0.6924    0.0000 H   0  0  0  0  0  0  0  0  0  0  0  0
    6.4599    1.1277    0.0000 H   0  0  0  0  0  0  0  0  0  0  0  0
    6.7618    2.2547    0.0000 H   0  0  0  0  0  0  0  0  0  0  0  0
    5.6349    2.5566    0.0000 H   0  0  0  0  0  0  0  0  0  0  0  0
  1  2  1  0  0  0  0
  2  3  1  0  0  0  0
  3  4  1  0  0  0  0
  4  5  1  0  0  0  0
  5  6  1  0  0  0  0
  6  7  1  0  0  0  0
  1  8  1  0  0  0  0
  1  9  1  0  0  0  0
  1 10  1  0  0  0  0
  2 11  1  0  0  0  0
  2 12  1  0  0  0  0
  3 13  1  0  0  0  0
  3 14  1  0  0  0  0
  4 15  1  0  0  0  0
  4 16  1  0  0  0  0
  5 17  1  0  0  0  0
  5 18  1  0  0  0  0
  6 19  1  0  0  0  0
  6 20  1  0  0  0  0
  7 21  1  0  0  0  0
  7 22  1  0  0  0  0
  7 23  1  0  0  0  0
M  END
>  <InChIKey>
InChI=1S/C7H16/c1-3-5-7-6-4-2/h3-7H2,1-2H3

>  <CASRN>
142-82-5

> <Outcome>
1

>  <Index>
1781

>  <StandardizerResult>
Clear Stereo (ID: ClearStereo)
Wedge Clean (ID: WedgeClean)
Mesomerize (ID: Mesomerize)
Tautomerize (ID: Tautomerize)
Add Explicit Hydrogens (ID: AddExplicitH)
Neutralize (ID: Neutralize)
Clean 2D (ID: Clean2D)

> <knn Distance>


> <CpId>
1781

$$$$
1787
  Mrv1532301301811342D          

  6  5  0  0  0  0            999 V2000
    3.1344   -1.6353    0.0000 Br  0  0  0  0  0  0  0  0  0  0  0  0
    2.7219   -0.9208    0.0000 C   0  0  0  0  0  0  0  0  0  0  0  0
    1.8969   -0.9208    0.0000 C   0  0  0  0  0  0  0  0  0  0  0  0
    3.1344   -0.2063    0.0000 H   0  0  0  0  0  0  0  0  0  0  0  0
    1.4844   -0.2063    0.0000 H   0  0  0  0  0  0  0  0  0  0  0  0
    1.4844   -1.6353    0.0000 H   0  0  0  0  0  0  0  0  0  0  0  0
  1  2  1  0  0  0  0
  2  3  2  0  0  0  0
  2  4  1  0  0  0  0
  3  5  1  0  0  0  0
  3  6  1  0  0  0  0
M  END
>  <InChIKey>
InChI=1S/C2H3Br/c1-2-3/h2H,1H2

>  <CASRN>
593-60-2

> <Outcome>
1

>  <Index>
1787

>  <StandardizerResult>
Mesomerize (ID: Mesomerize)
Tautomerize (ID: Tautomerize)
Add Explicit Hydrogens (ID: AddExplicitH)
Neutralize (ID: Neutralize)
Clean 2D (ID: Clean2D)

> <knn Distance>


> <CpId>
1787

$$$$
1789
  Mrv1532301301811342D          

 14 15  0  0  0  0            999 V2000
    0.6538   -0.6979    0.0000 C   0  0  0  0  0  0  0  0  0  0  0  0
    1.1387   -0.0305    0.0000 N   0  0  0  0  0  0  0  0  0  0  0  0
    1.9233   -0.2854    0.0000 C   0  0  0  0  0  0  0  0  0  0  0  0
    2.6378    0.1271    0.0000 C   0  0  0  0  0  0  0  0  0  0  0  0
    3.3523   -0.2854    0.0000 C   0  0  0  0  0  0  0  0  0  0  0  0
    3.3523   -1.1104    0.0000 C   0  0  0  0  0  0  0  0  0  0  0  0
    2.6378   -1.5229    0.0000 C   0  0  0  0  0  0  0  0  0  0  0  0
    1.9233   -1.1104    0.0000 C   0  0  0  0  0  0  0  0  0  0  0  0
    1.1387   -1.3653    0.0000 S   0  0  0  0  0  0  0  0  0  0  0  0
   -0.1712   -0.6979    0.0000 H   0  0  0  0  0  0  0  0  0  0  0  0
    2.6378    0.9521    0.0000 H   0  0  0  0  0  0  0  0  0  0  0  0
    4.0667    0.1271    0.0000 H   0  0  0  0  0  0  0  0  0  0  0  0
    4.0667   -1.5229    0.0000 H   0  0  0  0  0  0  0  0  0  0  0  0
    2.6378   -2.3479    0.0000 H   0  0  0  0  0  0  0  0  0  0  0  0
  1  2  4  0  0  0  0
  2  3  4  0  0  0  0
  3  4  4  0  0  0  0
  4  5  4  0  0  0  0
  5  6  4  0  0  0  0
  6  7  4  0  0  0  0
  7  8  4  0  0  0  0
  3  8  4  0  0  0  0
  8  9  4  0  0  0  0
  1  9  4  0  0  0  0
  1 10  1  0  0  0  0
  4 11  1  0  0  0  0
  5 12  1  0  0  0  0
  6 13  1  0  0  0  0
  7 14  1  0  0  0  0
M  END
>  <InChIKey>
InChI=1S/C7H5NS/c1-2-4-7-6(3-1)8-5-9-7/h1-5H

>  <CASRN>
95-16-9

> <Outcome>
1

>  <Index>
1789

>  <StandardizerResult>
Dearomatize (ID: Dearomatize)
Clear Stereo (ID: ClearStereo)
Wedge Clean (ID: WedgeClean)
Mesomerize (ID: Mesomerize)
Tautomerize (ID: Tautomerize)
Aromatize (ID: Aromatize)
Add Explicit Hydrogens (ID: AddExplicitH)
Neutralize (ID: Neutralize)
Clean 2D (ID: Clean2D)

> <knn Distance>


> <CpId>
1789

$$$$
1795
  Mrv1532301301811342D          

 15 15  0  0  0  0            999 V2000
    0.7145    2.0625    0.0000 O   0  0  0  0  0  0  0  0  0  0  0  0
    0.7145    1.2375    0.0000 C   0  0  0  0  0  0  0  0  0  0  0  0
    1.4289    0.8250    0.0000 C   0  0  0  0  0  0  0  0  0  0  0  0
    1.4289   -0.0000    0.0000 C   0  0  0  0  0  0  0  0  0  0  0  0
    0.7145   -0.4125    0.0000 C   0  0  0  0  0  0  0  0  0  0  0  0
    0.0000   -0.0000    0.0000 C   0  0  0  0  0  0  0  0  0  0  0  0
    0.0000    0.8250    0.0000 C   0  0  0  0  0  0  0  0  0  0  0  0
   -0.7145    1.2375    0.0000 N   0  0  0  0  0  0  0  0  0  0  0  0
   -1.4289    0.8250    0.0000 O   0  0  0  0  0  0  0  0  0  0  0  0
   -0.7145    2.0625    0.0000 O   0  0  0  0  0  0  0  0  0  0  0  0
    1.4289    2.4750    0.0000 H   0  0  0  0  0  0  0  0  0  0  0  0
    2.1434    1.2375    0.0000 H   0  0  0  0  0  0  0  0  0  0  0  0
    2.1434   -0.4125    0.0000 H   0  0  0  0  0  0  0  0  0  0  0  0
    0.7145   -1.2375    0.0000 H   0  0  0  0  0  0  0  0  0  0  0  0
   -0.7145   -0.4125    0.0000 H   0  0  0  0  0  0  0  0  0  0  0  0
  1  2  1  0  0  0  0
  2  3  4  0  0  0  0
  3  4  4  0  0  0  0
  4  5  4  0  0  0  0
  5  6  4  0  0  0  0
  6  7  4  0  0  0  0
  2  7  4  0  0  0  0
  7  8  1  0  0  0  0
  8  9  2  0  0  0  0
  8 10  2  0  0  0  0
  1 11  1  0  0  0  0
  3 12  1  0  0  0  0
  4 13  1  0  0  0  0
  5 14  1  0  0  0  0
  6 15  1  0  0  0  0
M  END
>  <InChIKey>
InChI=1S/C6H5NO3/c8-6-4-2-1-3-5(6)7(9)10/h1-4,8H

>  <CASRN>
88-75-5

> <Outcome>
1

>  <Index>
1795

>  <StandardizerResult>
Dearomatize (ID: Dearomatize)
Clear Stereo (ID: ClearStereo)
Wedge Clean (ID: WedgeClean)
Mesomerize (ID: Mesomerize)
Tautomerize (ID: Tautomerize)
Aromatize (ID: Aromatize)
Add Explicit Hydrogens (ID: AddExplicitH)
Neutralize (ID: Neutralize)
Clean 2D (ID: Clean2D)

> <knn Distance>


> <CpId>
1795

$$$$
1796
  Mrv1532301301811342D          

 17 17  0  0  0  0            999 V2000
    0.7145    2.0625    0.0000 N   0  0  0  0  0  0  0  0  0  0  0  0
    0.7145    1.2375    0.0000 C   0  0  0  0  0  0  0  0  0  0  0  0
    1.4289    0.8250    0.0000 C   0  0  0  0  0  0  0  0  0  0  0  0
    1.4289   -0.0000    0.0000 C   0  0  0  0  0  0  0  0  0  0  0  0
    0.7145   -0.4125    0.0000 C   0  0  0  0  0  0  0  0  0  0  0  0
    0.7145   -1.2375    0.0000 O   0  0  0  0  0  0  0  0  0  0  0  0
    0.0000   -0.0000    0.0000 C   0  0  0  0  0  0  0  0  0  0  0  0
    0.0000    0.8250    0.0000 C   0  0  0  0  0  0  0  0  0  0  0  0
   -0.7145    1.2375    0.0000 N   0  0  0  0  0  0  0  0  0  0  0  0
   -0.7145    2.0625    0.0000 O   0  0  0  0  0  0  0  0  0  0  0  0
   -1.4289    0.8250    0.0000 O   0  0  0  0  0  0  0  0  0  0  0  0
    1.4289    2.4750    0.0000 H   0  0  0  0  0  0  0  0  0  0  0  0
    0.0000    2.4750    0.0000 H   0  0  0  0  0  0  0  0  0  0  0  0
    2.1434    1.2375    0.0000 H   0  0  0  0  0  0  0  0  0  0  0  0
    2.1434   -0.4125    0.0000 H   0  0  0  0  0  0  0  0  0  0  0  0
    0.0000   -1.6500    0.0000 H   0  0  0  0  0  0  0  0  0  0  0  0
   -0.7145   -0.4125    0.0000 H   0  0  0  0  0  0  0  0  0  0  0  0
  1  2  1  0  0  0  0
  2  3  4  0  0  0  0
  3  4  4  0  0  0  0
  4  5  4  0  0  0  0
  5  6  1  0  0  0  0
  5  7  4  0  0  0  0
  7  8  4  0  0  0  0
  2  8  4  0  0  0  0
  8  9  1  0  0  0  0
  9 10  2  0  0  0  0
  9 11  2  0  0  0  0
  1 12  1  0  0  0  0
  1 13  1  0  0  0  0
  3 14  1  0  0  0  0
  4 15  1  0  0  0  0
  6 16  1  0  0  0  0
  7 17  1  0  0  0  0
M  END
>  <InChIKey>
InChI=1S/C6H6N2O3/c7-5-2-1-4(9)3-6(5)8(10)11/h1-3,9H,7H2

>  <UN GHS>
2A

>  <CASRN>
610-81-1

> <Outcome>
1

>  <Index>
1796

>  <StandardizerResult>
Dearomatize (ID: Dearomatize)
Clear Stereo (ID: ClearStereo)
Wedge Clean (ID: WedgeClean)
Mesomerize (ID: Mesomerize)
Tautomerize (ID: Tautomerize)
Aromatize (ID: Aromatize)
Add Explicit Hydrogens (ID: AddExplicitH)
Neutralize (ID: Neutralize)
Clean 2D (ID: Clean2D)

> <knn Distance>


> <CpId>
1796

$$$$
1798
  Mrv1532301301811342D          

 31 32  0  0  0  0            999 V2000
   -1.9355    5.9235    0.0000 N   0  0  0  0  0  0  0  0  0  0  0  0
   -2.4876    5.3104    0.0000 C   0  0  0  0  0  0  0  0  0  0  0  0
   -2.2326    4.5258    0.0000 N   0  0  0  0  0  0  0  0  0  0  0  0
   -2.7847    3.9127    0.0000 C   0  0  0  0  0  0  0  0  0  0  0  0
   -2.6984    3.0922    0.0000 N   0  0  0  0  0  0  0  0  0  0  0  0
   -1.9840    2.6797    0.0000 C   0  0  0  0  0  0  0  0  0  0  0  0
   -1.9840    1.8547    0.0000 O   0  0  0  0  0  0  0  0  0  0  0  0
   -1.2695    1.4422    0.0000 C   0  0  0  0  0  0  0  0  0  0  0  0
   -1.2695    0.6172    0.0000 C   0  0  0  0  0  0  0  0  0  0  0  0
   -0.5550    0.2047    0.0000 O   0  0  0  0  0  0  0  0  0  0  0  0
   -0.5550    1.8547    0.0000 C   0  0  0  0  0  0  0  0  0  0  0  0
    0.1595    1.4422    0.0000 O   0  0  0  0  0  0  0  0  0  0  0  0
   -3.4521    2.7567    0.0000 C   0  0  0  0  0  0  0  0  0  0  0  0
   -4.0041    3.3698    0.0000 N   0  0  0  0  0  0  0  0  0  0  0  0
   -3.5916    4.0842    0.0000 C   0  0  0  0  0  0  0  0  0  0  0  0
   -3.8466    4.8689    0.0000 C   0  0  0  0  0  0  0  0  0  0  0  0
   -4.6535    5.0404    0.0000 O   0  0  0  0  0  0  0  0  0  0  0  0
   -3.2945    5.4820    0.0000 N   0  0  0  0  0  0  0  0  0  0  0  0
   -1.1286    5.7520    0.0000 H   0  0  0  0  0  0  0  0  0  0  0  0
   -2.1905    6.7082    0.0000 H   0  0  0  0  0  0  0  0  0  0  0  0
   -1.1604    2.7277    0.0000 H   0  0  0  0  0  0  0  0  0  0  0  0
   -1.5306    3.3690    0.0000 H   0  0  0  0  0  0  0  0  0  0  0  0
   -1.9840    1.0297    0.0000 H   0  0  0  0  0  0  0  0  0  0  0  0
   -1.9015    0.0869    0.0000 H   0  0  0  0  0  0  0  0  0  0  0  0
   -1.4127   -0.1952    0.0000 H   0  0  0  0  0  0  0  0  0  0  0  0
    0.2692    0.1688    0.0000 H   0  0  0  0  0  0  0  0  0  0  0  0
   -0.1848    2.5920    0.0000 H   0  0  0  0  0  0  0  0  0  0  0  0
   -0.9253    2.5920    0.0000 H   0  0  0  0  0  0  0  0  0  0  0  0
    0.1595    0.6172    0.0000 H   0  0  0  0  0  0  0  0  0  0  0  0
   -3.6236    1.9497    0.0000 H   0  0  0  0  0  0  0  0  0  0  0  0
   -3.5495    6.2666    0.0000 H   0  0  0  0  0  0  0  0  0  0  0  0
  1  2  1  0  0  0  0
  2  3  2  0  0  0  0
  3  4  1  0  0  0  0
  4  5  4  0  0  0  0
  5  6  1  0  0  0  0
  6  7  1  0  0  0  0
  7  8  1  0  0  0  0
  8  9  1  0  0  0  0
  9 10  1  0  0  0  0
  8 11  1  0  0  0  0
 11 12  1  0  0  0  0
  5 13  4  0  0  0  0
 13 14  4  0  0  0  0
 14 15  4  0  0  0  0
  4 15  4  0  0  0  0
 15 16  1  0  0  0  0
 16 17  2  0  0  0  0
 16 18  1  0  0  0  0
  2 18  1  0  0  0  0
  1 19  1  0  0  0  0
  1 20  1  0  0  0  0
  6 21  1  0  0  0  0
  6 22  1  0  0  0  0
  8 23  1  0  0  0  0
  9 24  1  0  0  0  0
  9 25  1  0  0  0  0
 10 26  1  0  0  0  0
 11 27  1  0  0  0  0
 11 28  1  0  0  0  0
 12 29  1  0  0  0  0
 13 30  1  0  0  0  0
 18 31  1  0  0  0  0
M  END
>  <InChIKey>
InChI=1S/C9H13N5O4/c10-9-12-7-6(8(17)13-9)11-3-14(7)4-18-5(1-15)2-16/h3,5,15-16H,1-2,4H2,(H3,10,12,13,17)

>  <CASRN>
82410-32-0

> <Outcome>
1

>  <Index>
1798

>  <StandardizerResult>
Dearomatize (ID: Dearomatize)
Clear Stereo (ID: ClearStereo)
Wedge Clean (ID: WedgeClean)
Mesomerize (ID: Mesomerize)
Tautomerize (ID: Tautomerize)
Aromatize (ID: Aromatize)
Add Explicit Hydrogens (ID: AddExplicitH)
Neutralize (ID: Neutralize)
Clean 2D (ID: Clean2D)

> <knn Distance>


> <CpId>
1798

$$$$
1801
  Mrv1532301301811342D          

 35 35  0  0  0  0            999 V2000
    0.0000    2.4514    0.0000 C   0  0  0  0  0  0  0  0  0  0  0  0
    0.7145    2.0389    0.0000 O   0  0  0  0  0  0  0  0  0  0  0  0
    0.7145    1.2139    0.0000 C   0  0  0  0  0  0  0  0  0  0  0  0
    1.4290    0.8014    0.0000 N   0  0  0  0  0  0  0  0  0  0  0  0
    1.4290   -0.0236    0.0000 C   0  0  0  0  0  0  0  0  0  0  0  0
    2.1434   -0.4361    0.0000 N   0  0  0  0  0  0  0  0  0  0  0  0
    2.8579   -0.0236    0.0000 C   0  0  0  0  0  0  0  0  0  0  0  0
    3.5724   -0.4361    0.0000 C   0  0  0  0  0  0  0  0  0  0  0  0
    2.8579    0.8014    0.0000 C   0  0  0  0  0  0  0  0  0  0  0  0
    0.7145   -0.4361    0.0000 N   0  0  0  0  0  0  0  0  0  0  0  0
    0.0000   -0.0236    0.0000 C   0  0  0  0  0  0  0  0  0  0  0  0
   -0.7145   -0.4361    0.0000 N   0  0  0  0  0  0  0  0  0  0  0  0
   -1.4289   -0.0236    0.0000 C   0  0  0  0  0  0  0  0  0  0  0  0
   -2.1434   -0.4361    0.0000 C   0  0  0  0  0  0  0  0  0  0  0  0
   -1.4289    0.8014    0.0000 C   0  0  0  0  0  0  0  0  0  0  0  0
    0.0000    0.8014    0.0000 N   0  0  0  0  0  0  0  0  0  0  0  0
    0.4125    3.1659    0.0000 H   0  0  0  0  0  0  0  0  0  0  0  0
   -0.7145    2.8639    0.0000 H   0  0  0  0  0  0  0  0  0  0  0  0
   -0.4125    1.7370    0.0000 H   0  0  0  0  0  0  0  0  0  0  0  0
    2.1434   -1.2611    0.0000 H   0  0  0  0  0  0  0  0  0  0  0  0
    2.8579   -0.8486    0.0000 H   0  0  0  0  0  0  0  0  0  0  0  0
    3.7859   -1.2330    0.0000 H   0  0  0  0  0  0  0  0  0  0  0  0
    4.3974   -0.4361    0.0000 H   0  0  0  0  0  0  0  0  0  0  0  0
    3.7859    0.3608    0.0000 H   0  0  0  0  0  0  0  0  0  0  0  0
    3.6829    0.8014    0.0000 H   0  0  0  0  0  0  0  0  0  0  0  0
    2.8579    1.6264    0.0000 H   0  0  0  0  0  0  0  0  0  0  0  0
    2.0329    0.8014    0.0000 H   0  0  0  0  0  0  0  0  0  0  0  0
   -0.7145   -1.2611    0.0000 H   0  0  0  0  0  0  0  0  0  0  0  0
   -1.4289   -0.8486    0.0000 H   0  0  0  0  0  0  0  0  0  0  0  0
   -2.3569    0.3608    0.0000 H   0  0  0  0  0  0  0  0  0  0  0  0
   -2.9684   -0.4361    0.0000 H   0  0  0  0  0  0  0  0  0  0  0  0
   -2.3569   -1.2330    0.0000 H   0  0  0  0  0  0  0  0  0  0  0  0
   -0.6039    0.8014    0.0000 H   0  0  0  0  0  0  0  0  0  0  0  0
   -1.4289    1.6264    0.0000 H   0  0  0  0  0  0  0  0  0  0  0  0
   -2.2539    0.8014    0.0000 H   0  0  0  0  0  0  0  0  0  0  0  0
  1  2  1  0  0  0  0
  2  3  1  0  0  0  0
  3  4  4  0  0  0  0
  4  5  4  0  0  0  0
  5  6  1  0  0  0  0
  6  7  1  0  0  0  0
  7  8  1  0  0  0  0
  7  9  1  0  0  0  0
  5 10  4  0  0  0  0
 10 11  4  0  0  0  0
 11 12  1  0  0  0  0
 12 13  1  0  0  0  0
 13 14  1  0  0  0  0
 13 15  1  0  0  0  0
 11 16  4  0  0  0  0
  3 16  4  0  0  0  0
  1 17  1  0  0  0  0
  1 18  1  0  0  0  0
  1 19  1  0  0  0  0
  6 20  1  0  0  0  0
  7 21  1  0  0  0  0
  8 22  1  0  0  0  0
  8 23  1  0  0  0  0
  8 24  1  0  0  0  0
  9 25  1  0  0  0  0
  9 26  1  0  0  0  0
  9 27  1  0  0  0  0
 12 28  1  0  0  0  0
 13 29  1  0  0  0  0
 14 30  1  0  0  0  0
 14 31  1  0  0  0  0
 14 32  1  0  0  0  0
 15 33  1  0  0  0  0
 15 34  1  0  0  0  0
 15 35  1  0  0  0  0
M  END
>  <InChIKey>
InChI=1S/C10H19N5O/c1-6(2)11-8-13-9(12-7(3)4)15-10(14-8)16-5/h6-7H,1-5H3,(H2,11,12,13,14,15)

>  <CASRN>
1610-18-0

> <Outcome>
1

>  <Index>
1801

>  <StandardizerResult>
Dearomatize (ID: Dearomatize)
Clear Stereo (ID: ClearStereo)
Wedge Clean (ID: WedgeClean)
Mesomerize (ID: Mesomerize)
Tautomerize (ID: Tautomerize)
Aromatize (ID: Aromatize)
Add Explicit Hydrogens (ID: AddExplicitH)
Neutralize (ID: Neutralize)
Clean 2D (ID: Clean2D)

> <knn Distance>


> <CpId>
1801

$$$$
1807
  Mrv1532301301811342D          

 33 33  0  0  0  0            999 V2000
    0.6593   -3.6968    0.0000 C   0  0  0  0  0  0  0  0  0  0  0  0
    1.3737   -4.1093    0.0000 C   0  0  0  0  0  0  0  0  0  0  0  0
    1.3737   -4.9343    0.0000 C   0  0  0  0  0  0  0  0  0  0  0  0
    2.0882   -3.6968    0.0000 N   0  0  0  0  0  0  0  0  0  0  0  0
    2.8027   -4.1093    0.0000 C   0  0  0  0  0  0  0  0  0  0  0  0
    2.8027   -4.9343    0.0000 N   0  0  0  0  0  0  0  0  0  0  0  0
    3.5172   -3.6968    0.0000 N   0  0  0  0  0  0  0  0  0  0  0  0
    4.2316   -4.1093    0.0000 C   0  0  0  0  0  0  0  0  0  0  0  0
    4.2316   -4.9343    0.0000 N   0  0  0  0  0  0  0  0  0  0  0  0
    4.9461   -3.6968    0.0000 N   0  0  0  0  0  0  0  0  0  0  0  0
    5.6606   -4.1093    0.0000 C   0  0  0  0  0  0  0  0  0  0  0  0
    6.3750   -3.6968    0.0000 C   0  0  0  0  0  0  0  0  0  0  0  0
    7.0895   -4.1093    0.0000 C   0  0  0  0  0  0  0  0  0  0  0  0
    7.0895   -4.9343    0.0000 C   0  0  0  0  0  0  0  0  0  0  0  0
    7.8040   -5.3468    0.0000 Cl  0  0  0  0  0  0  0  0  0  0  0  0
    6.3750   -5.3468    0.0000 C   0  0  0  0  0  0  0  0  0  0  0  0
    6.3750   -6.1718    0.0000 Cl  0  0  0  0  0  0  0  0  0  0  0  0
    5.6606   -4.9343    0.0000 C   0  0  0  0  0  0  0  0  0  0  0  0
    1.0718   -2.9824    0.0000 H   0  0  0  0  0  0  0  0  0  0  0  0
   -0.0552   -3.2843    0.0000 H   0  0  0  0  0  0  0  0  0  0  0  0
    0.2468   -4.4113    0.0000 H   0  0  0  0  0  0  0  0  0  0  0  0
    0.6593   -4.5218    0.0000 H   0  0  0  0  0  0  0  0  0  0  0  0
    0.7904   -5.5177    0.0000 H   0  0  0  0  0  0  0  0  0  0  0  0
    1.7862   -5.6488    0.0000 H   0  0  0  0  0  0  0  0  0  0  0  0
    2.1706   -4.7208    0.0000 H   0  0  0  0  0  0  0  0  0  0  0  0
    2.0882   -2.8718    0.0000 H   0  0  0  0  0  0  0  0  0  0  0  0
    3.2837   -5.6046    0.0000 H   0  0  0  0  0  0  0  0  0  0  0  0
    3.5172   -2.8718    0.0000 H   0  0  0  0  0  0  0  0  0  0  0  0
    3.5172   -5.3468    0.0000 H   0  0  0  0  0  0  0  0  0  0  0  0
    4.9461   -2.8718    0.0000 H   0  0  0  0  0  0  0  0  0  0  0  0
    6.3750   -2.8718    0.0000 H   0  0  0  0  0  0  0  0  0  0  0  0
    7.8040   -3.6968    0.0000 H   0  0  0  0  0  0  0  0  0  0  0  0
    4.9461   -5.3468    0.0000 H   0  0  0  0  0  0  0  0  0  0  0  0
  1  2  1  0  0  0  0
  2  3  1  0  0  0  0
  2  4  1  0  0  0  0
  4  5  1  0  0  0  0
  5  6  2  0  0  0  0
  5  7  1  0  0  0  0
  7  8  1  0  0  0  0
  8  9  2  0  0  0  0
  8 10  1  0  0  0  0
 10 11  1  0  0  0  0
 11 12  4  0  0  0  0
 12 13  4  0  0  0  0
 13 14  4  0  0  0  0
 14 15  1  0  0  0  0
 14 16  4  0  0  0  0
 16 17  1  0  0  0  0
 16 18  4  0  0  0  0
 11 18  4  0  0  0  0
  1 19  1  0  0  0  0
  1 20  1  0  0  0  0
  1 21  1  0  0  0  0
  2 22  1  0  0  0  0
  3 23  1  0  0  0  0
  3 24  1  0  0  0  0
  3 25  1  0  0  0  0
  4 26  1  0  0  0  0
  6 27  1  0  0  0  0
  7 28  1  0  0  0  0
  9 29  1  0  0  0  0
 10 30  1  0  0  0  0
 12 31  1  0  0  0  0
 13 32  1  0  0  0  0
 18 33  1  0  0  0  0
M  END
>  <InChIKey>
InChI=1S/C11H15Cl2N5/c1-6(2)16-10(14)18-11(15)17-7-3-4-8(12)9(13)5-7/h3-6H,1-2H3,(H5,14,15,16,17,18)

>  <UN GHS>
1

>  <CASRN>
537-21-3

> <Outcome>
1

>  <Index>
1807

>  <StandardizerResult>
Dearomatize (ID: Dearomatize)
Clear Stereo (ID: ClearStereo)
Wedge Clean (ID: WedgeClean)
Mesomerize (ID: Mesomerize)
Tautomerize (ID: Tautomerize)
Aromatize (ID: Aromatize)
Add Explicit Hydrogens (ID: AddExplicitH)
Neutralize (ID: Neutralize)
Clean 2D (ID: Clean2D)

> <knn Distance>


> <CpId>
1807

$$$$
1808
  Mrv1532301301811342D          

 40 41  0  0  0  0            999 V2000
    0.6330   -0.4978    0.0000 C   0  0  0  0  0  0  0  0  0  0  0  0
    1.3475   -0.9103    0.0000 C   0  0  0  0  0  0  0  0  0  0  0  0
    1.3475   -1.7353    0.0000 C   0  0  0  0  0  0  0  0  0  0  0  0
    2.0620   -2.1478    0.0000 N   0  0  0  0  0  0  0  0  0  0  0  0
    2.7764   -1.7353    0.0000 C   0  0  0  0  0  0  0  0  0  0  0  0
    2.7764   -0.9103    0.0000 C   0  0  0  0  0  0  0  0  0  0  0  0
    2.3639   -0.1958    0.0000 C   0  0  0  0  0  0  0  0  0  0  0  0
    3.1889   -0.1958    0.0000 C   0  0  0  0  0  0  0  0  0  0  0  0
    2.0620   -2.9728    0.0000 C   0  0  0  0  0  0  0  0  0  0  0  0
    2.7764   -3.3853    0.0000 C   0  0  0  0  0  0  0  0  0  0  0  0
    2.7764   -4.2103    0.0000 C   0  0  0  0  0  0  0  0  0  0  0  0
    2.0620   -4.6228    0.0000 C   0  0  0  0  0  0  0  0  0  0  0  0
    1.3475   -4.2103    0.0000 C   0  0  0  0  0  0  0  0  0  0  0  0
    1.3475   -3.3853    0.0000 C   0  0  0  0  0  0  0  0  0  0  0  0
    0.6330   -2.9728    0.0000 N   0  0  0  0  0  0  0  0  0  0  0  0
    0.6330   -2.1478    0.0000 O   0  0  0  0  0  0  0  0  0  0  0  0
   -0.0815   -3.3853    0.0000 O   0  0  0  0  0  0  0  0  0  0  0  0
    2.0620   -5.4478    0.0000 C   0  0  0  0  0  0  0  0  0  0  0  0
    2.0620   -6.2728    0.0000 F   0  0  0  0  0  0  0  0  0  0  0  0
    1.2370   -5.4478    0.0000 F   0  0  0  0  0  0  0  0  0  0  0  0
    2.8870   -5.4478    0.0000 F   0  0  0  0  0  0  0  0  0  0  0  0
    3.4909   -2.9728    0.0000 N   0  0  0  0  0  0  0  0  0  0  0  0
    4.2054   -3.3853    0.0000 O   0  0  0  0  0  0  0  0  0  0  0  0
    3.4909   -2.1478    0.0000 O   0  0  0  0  0  0  0  0  0  0  0  0
    1.0455    0.2167    0.0000 H   0  0  0  0  0  0  0  0  0  0  0  0
   -0.0815   -0.0853    0.0000 H   0  0  0  0  0  0  0  0  0  0  0  0
    0.2205   -1.2123    0.0000 H   0  0  0  0  0  0  0  0  0  0  0  0
    2.1711   -0.8624    0.0000 H   0  0  0  0  0  0  0  0  0  0  0  0
    1.8008   -0.2210    0.0000 H   0  0  0  0  0  0  0  0  0  0  0  0
    0.6330   -1.3228    0.0000 H   0  0  0  0  0  0  0  0  0  0  0  0
    2.0620   -1.3228    0.0000 H   0  0  0  0  0  0  0  0  0  0  0  0
    2.7764   -2.5603    0.0000 H   0  0  0  0  0  0  0  0  0  0  0  0
    3.4909   -1.3228    0.0000 H   0  0  0  0  0  0  0  0  0  0  0  0
    3.5733   -0.6968    0.0000 H   0  0  0  0  0  0  0  0  0  0  0  0
    2.6326    0.5842    0.0000 H   0  0  0  0  0  0  0  0  0  0  0  0
    2.0607    0.5714    0.0000 H   0  0  0  0  0  0  0  0  0  0  0  0
    4.0081   -0.0977    0.0000 H   0  0  0  0  0  0  0  0  0  0  0  0
    3.5223    0.5588    0.0000 H   0  0  0  0  0  0  0  0  0  0  0  0
    3.4909   -4.6228    0.0000 H   0  0  0  0  0  0  0  0  0  0  0  0
    0.6330   -4.6228    0.0000 H   0  0  0  0  0  0  0  0  0  0  0  0
  1  2  1  0  0  0  0
  2  3  1  0  0  0  0
  3  4  1  0  0  0  0
  4  5  1  0  0  0  0
  5  6  1  0  0  0  0
  6  7  1  0  0  0  0
  7  8  1  0  0  0  0
  6  8  1  0  0  0  0
  4  9  1  0  0  0  0
  9 10  4  0  0  0  0
 10 11  4  0  0  0  0
 11 12  4  0  0  0  0
 12 13  4  0  0  0  0
 13 14  4  0  0  0  0
  9 14  4  0  0  0  0
 14 15  1  0  0  0  0
 15 16  2  0  0  0  0
 15 17  2  0  0  0  0
 12 18  1  0  0  0  0
 18 19  1  0  0  0  0
 18 20  1  0  0  0  0
 18 21  1  0  0  0  0
 10 22  1  0  0  0  0
 22 23  2  0  0  0  0
 22 24  2  0  0  0  0
  1 25  1  0  0  0  0
  1 26  1  0  0  0  0
  1 27  1  0  0  0  0
  2 28  1  0  0  0  0
  2 29  1  0  0  0  0
  3 30  1  0  0  0  0
  3 31  1  0  0  0  0
  5 32  1  0  0  0  0
  5 33  1  0  0  0  0
  6 34  1  0  0  0  0
  7 35  1  0  0  0  0
  7 36  1  0  0  0  0
  8 37  1  0  0  0  0
  8 38  1  0  0  0  0
 11 39  1  0  0  0  0
 13 40  1  0  0  0  0
M  END
>  <InChIKey>
InChI=1S/C14H16F3N3O4/c1-2-5-18(8-9-3-4-9)13-11(19(21)22)6-10(14(15,16)17)7-12(13)20(23)24/h6-7,9H,2-5,8H2,1H3

>  <CASRN>
26399-36-0

> <Outcome>
1

>  <Index>
1808

>  <StandardizerResult>
Dearomatize (ID: Dearomatize)
Clear Stereo (ID: ClearStereo)
Wedge Clean (ID: WedgeClean)
Mesomerize (ID: Mesomerize)
Tautomerize (ID: Tautomerize)
Aromatize (ID: Aromatize)
Add Explicit Hydrogens (ID: AddExplicitH)
Neutralize (ID: Neutralize)
Clean 2D (ID: Clean2D)

> <knn Distance>


> <CpId>
1808

$$$$
1818
  Mrv1532301301811342D          

 35 36  0  0  0  0            999 V2000
    0.7028    1.2196    0.0000 C   0  0  0  0  0  0  0  0  0  0  0  0
    1.4173    0.8071    0.0000 N   0  0  0  0  0  0  0  0  0  0  0  0
    2.1318    1.2196    0.0000 C   0  0  0  0  0  0  0  0  0  0  0  0
    1.4173   -0.0179    0.0000 C   0  0  0  0  0  0  0  0  0  0  0  0
    0.7028   -0.4304    0.0000 O   0  0  0  0  0  0  0  0  0  0  0  0
    2.1318   -0.4304    0.0000 N   0  0  0  0  0  0  0  0  0  0  0  0
    2.1318   -1.2554    0.0000 C   0  0  0  0  0  0  0  0  0  0  0  0
    2.8462   -1.6679    0.0000 C   0  0  0  0  0  0  0  0  0  0  0  0
    2.8462   -2.4929    0.0000 C   0  0  0  0  0  0  0  0  0  0  0  0
    2.1318   -2.9054    0.0000 C   0  0  0  0  0  0  0  0  0  0  0  0
    2.1318   -3.7304    0.0000 O   0  0  0  0  0  0  0  0  0  0  0  0
    1.4173   -4.1429    0.0000 C   0  0  0  0  0  0  0  0  0  0  0  0
    1.4173   -4.9679    0.0000 C   0  0  0  0  0  0  0  0  0  0  0  0
    0.7028   -5.3804    0.0000 C   0  0  0  0  0  0  0  0  0  0  0  0
   -0.0117   -4.9679    0.0000 C   0  0  0  0  0  0  0  0  0  0  0  0
   -0.7261   -5.3804    0.0000 Cl  0  0  0  0  0  0  0  0  0  0  0  0
   -0.0117   -4.1429    0.0000 C   0  0  0  0  0  0  0  0  0  0  0  0
    0.7028   -3.7304    0.0000 C   0  0  0  0  0  0  0  0  0  0  0  0
    1.4173   -2.4929    0.0000 C   0  0  0  0  0  0  0  0  0  0  0  0
    1.4173   -1.6679    0.0000 C   0  0  0  0  0  0  0  0  0  0  0  0
    1.1153    1.9340    0.0000 H   0  0  0  0  0  0  0  0  0  0  0  0
   -0.0117    1.6321    0.0000 H   0  0  0  0  0  0  0  0  0  0  0  0
    0.2903    0.5051    0.0000 H   0  0  0  0  0  0  0  0  0  0  0  0
    2.5443    0.5051    0.0000 H   0  0  0  0  0  0  0  0  0  0  0  0
    2.8462    1.6321    0.0000 H   0  0  0  0  0  0  0  0  0  0  0  0
    1.7193    1.9340    0.0000 H   0  0  0  0  0  0  0  0  0  0  0  0
    2.8462   -0.0179    0.0000 H   0  0  0  0  0  0  0  0  0  0  0  0
    3.5607   -1.2554    0.0000 H   0  0  0  0  0  0  0  0  0  0  0  0
    3.5607   -2.9054    0.0000 H   0  0  0  0  0  0  0  0  0  0  0  0
    2.1318   -5.3804    0.0000 H   0  0  0  0  0  0  0  0  0  0  0  0
    0.7028   -6.2054    0.0000 H   0  0  0  0  0  0  0  0  0  0  0  0
   -0.7261   -3.7304    0.0000 H   0  0  0  0  0  0  0  0  0  0  0  0
    0.7028   -2.9054    0.0000 H   0  0  0  0  0  0  0  0  0  0  0  0
    0.7028   -2.0804    0.0000 H   0  0  0  0  0  0  0  0  0  0  0  0
    1.0048   -0.9535    0.0000 H   0  0  0  0  0  0  0  0  0  0  0  0
  1  2  1  0  0  0  0
  2  3  1  0  0  0  0
  2  4  1  0  0  0  0
  4  5  2  0  0  0  0
  4  6  1  0  0  0  0
  6  7  1  0  0  0  0
  7  8  4  0  0  0  0
  8  9  4  0  0  0  0
  9 10  4  0  0  0  0
 10 11  1  0  0  0  0
 11 12  1  0  0  0  0
 12 13  4  0  0  0  0
 13 14  4  0  0  0  0
 14 15  4  0  0  0  0
 15 16  1  0  0  0  0
 15 17  4  0  0  0  0
 17 18  4  0  0  0  0
 12 18  4  0  0  0  0
 10 19  4  0  0  0  0
 19 20  4  0  0  0  0
  7 20  4  0  0  0  0
  1 21  1  0  0  0  0
  1 22  1  0  0  0  0
  1 23  1  0  0  0  0
  3 24  1  0  0  0  0
  3 25  1  0  0  0  0
  3 26  1  0  0  0  0
  6 27  1  0  0  0  0
  8 28  1  0  0  0  0
  9 29  1  0  0  0  0
 13 30  1  0  0  0  0
 14 31  1  0  0  0  0
 17 32  1  0  0  0  0
 18 33  1  0  0  0  0
 19 34  1  0  0  0  0
 20 35  1  0  0  0  0
M  END
>  <InChIKey>
InChI=1S/C15H15ClN2O2/c1-18(2)15(19)17-12-5-9-14(10-6-12)20-13-7-3-11(16)4-8-13/h3-10H,1-2H3,(H,17,19)

>  <CASRN>
1982-47-4

> <Outcome>
1

>  <Index>
1818

>  <StandardizerResult>
Dearomatize (ID: Dearomatize)
Clear Stereo (ID: ClearStereo)
Wedge Clean (ID: WedgeClean)
Mesomerize (ID: Mesomerize)
Tautomerize (ID: Tautomerize)
Aromatize (ID: Aromatize)
Add Explicit Hydrogens (ID: AddExplicitH)
Neutralize (ID: Neutralize)
Clean 2D (ID: Clean2D)

> <knn Distance>


> <CpId>
1818

$$$$
1820
  Mrv1532301301811342D          

 26 27  0  0  0  0            999 V2000
   -0.3461   -0.4125    0.0000 O   0  0  0  0  0  0  0  0  0  0  0  0
    0.1842   -1.0445    0.0000 C   0  0  0  0  0  0  0  0  0  0  0  0
    0.8986   -1.4570    0.0000 C   0  0  0  0  0  0  0  0  0  0  0  0
    1.6131   -1.0445    0.0000 O   0  0  0  0  0  0  0  0  0  0  0  0
    0.8986   -2.2820    0.0000 N   0  0  0  0  0  0  0  0  0  0  0  0
    0.1842   -2.6945    0.0000 C   0  0  0  0  0  0  0  0  0  0  0  0
    0.1842   -3.5195    0.0000 O   0  0  0  0  0  0  0  0  0  0  0  0
   -0.5303   -2.2820    0.0000 N   0  0  0  0  0  0  0  0  0  0  0  0
   -0.5303   -1.4570    0.0000 C   0  0  0  0  0  0  0  0  0  0  0  0
   -1.2448   -1.0445    0.0000 O   0  0  0  0  0  0  0  0  0  0  0  0
    0.7145   -0.4125    0.0000 C   0  0  0  0  0  0  0  0  0  0  0  0
    1.2448   -1.0445    0.0000 O   0  0  0  0  0  0  0  0  0  0  0  0
   -0.0000    0.0000    0.0000 C   0  0  0  0  0  0  0  0  0  0  0  0
   -0.7145   -0.4125    0.0000 O   0  0  0  0  0  0  0  0  0  0  0  0
   -0.0000    0.8250    0.0000 N   0  0  0  0  0  0  0  0  0  0  0  0
    0.7145    1.2375    0.0000 C   0  0  0  0  0  0  0  0  0  0  0  0
    0.7145    2.0625    0.0000 O   0  0  0  0  0  0  0  0  0  0  0  0
    1.4289    0.8250    0.0000 N   0  0  0  0  0  0  0  0  0  0  0  0
    1.4289    0.0000    0.0000 C   0  0  0  0  0  0  0  0  0  0  0  0
    2.1434   -0.4125    0.0000 O   0  0  0  0  0  0  0  0  0  0  0  0
   -0.6948   -1.1602    0.0000 H   0  0  0  0  0  0  0  0  0  0  0  0
    1.6131   -2.6945    0.0000 H   0  0  0  0  0  0  0  0  0  0  0  0
   -1.2448   -2.6945    0.0000 H   0  0  0  0  0  0  0  0  0  0  0  0
    1.5934   -0.2968    0.0000 H   0  0  0  0  0  0  0  0  0  0  0  0
   -0.7145    1.2375    0.0000 H   0  0  0  0  0  0  0  0  0  0  0  0
    2.1434    1.2375    0.0000 H   0  0  0  0  0  0  0  0  0  0  0  0
  1  2  1  0  0  0  0
  2  3  1  0  0  0  0
  3  4  2  0  0  0  0
  3  5  1  0  0  0  0
  5  6  1  0  0  0  0
  6  7  2  0  0  0  0
  6  8  1  0  0  0  0
  8  9  1  0  0  0  0
  2  9  1  0  0  0  0
  9 10  2  0  0  0  0
  2 11  1  0  0  0  0
 11 12  1  0  0  0  0
 11 13  1  0  0  0  0
 13 14  2  0  0  0  0
 13 15  1  0  0  0  0
 15 16  1  0  0  0  0
 16 17  2  0  0  0  0
 16 18  1  0  0  0  0
 18 19  1  0  0  0  0
 11 19  1  0  0  0  0
 19 20  2  0  0  0  0
  1 21  1  0  0  0  0
  5 22  1  0  0  0  0
  8 23  1  0  0  0  0
 12 24  1  0  0  0  0
 15 25  1  0  0  0  0
 18 26  1  0  0  0  0
M  END
>  <InChIKey>
InChI=1S/C8H6N4O8/c13-1-7(19,2(14)10-5(17)9-1)8(20)3(15)11-6(18)12-4(8)16/h19-20H,(H2,9,10,13,14,17)(H2,11,12,15,16,18)

>  <CASRN>
76-24-4

> <Outcome>
1

>  <Index>
1820

>  <StandardizerResult>
Clear Stereo (ID: ClearStereo)
Wedge Clean (ID: WedgeClean)
Mesomerize (ID: Mesomerize)
Tautomerize (ID: Tautomerize)
Add Explicit Hydrogens (ID: AddExplicitH)
Neutralize (ID: Neutralize)
Clean 2D (ID: Clean2D)

> <knn Distance>


> <CpId>
1820

$$$$
1821
  Mrv1532301301811342D          

 19 19  0  0  0  0            999 V2000
   -0.0318    2.4316    0.0000 C   0  0  0  0  0  0  0  0  0  0  0  0
    0.6827    2.0191    0.0000 O   0  0  0  0  0  0  0  0  0  0  0  0
    0.6827    1.1941    0.0000 C   0  0  0  0  0  0  0  0  0  0  0  0
    1.3972    0.7816    0.0000 C   0  0  0  0  0  0  0  0  0  0  0  0
    2.1116    1.1941    0.0000 Cl  0  0  0  0  0  0  0  0  0  0  0  0
    1.3972   -0.0434    0.0000 C   0  0  0  0  0  0  0  0  0  0  0  0
    0.6827   -0.4559    0.0000 C   0  0  0  0  0  0  0  0  0  0  0  0
   -0.0318   -0.0434    0.0000 C   0  0  0  0  0  0  0  0  0  0  0  0
   -0.7463   -0.4559    0.0000 Cl  0  0  0  0  0  0  0  0  0  0  0  0
   -0.0318    0.7816    0.0000 C   0  0  0  0  0  0  0  0  0  0  0  0
   -0.7463    1.1941    0.0000 C   0  0  0  0  0  0  0  0  0  0  0  0
   -0.7463    2.0191    0.0000 O   0  0  0  0  0  0  0  0  0  0  0  0
   -1.4607    0.7816    0.0000 O   0  0  0  0  0  0  0  0  0  0  0  0
    0.6827    2.8441    0.0000 H   0  0  0  0  0  0  0  0  0  0  0  0
   -0.0318    3.2566    0.0000 H   0  0  0  0  0  0  0  0  0  0  0  0
   -0.7463    2.8441    0.0000 H   0  0  0  0  0  0  0  0  0  0  0  0
    2.1116   -0.4559    0.0000 H   0  0  0  0  0  0  0  0  0  0  0  0
    0.6827   -1.2809    0.0000 H   0  0  0  0  0  0  0  0  0  0  0  0
   -1.5713    2.0191    0.0000 H   0  0  0  0  0  0  0  0  0  0  0  0
  1  2  1  0  0  0  0
  2  3  1  0  0  0  0
  3  4  4  0  0  0  0
  4  5  1  0  0  0  0
  4  6  4  0  0  0  0
  6  7  4  0  0  0  0
  7  8  4  0  0  0  0
  8  9  1  0  0  0  0
  8 10  4  0  0  0  0
  3 10  4  0  0  0  0
 10 11  1  0  0  0  0
 11 12  1  0  0  0  0
 11 13  2  0  0  0  0
  1 14  1  0  0  0  0
  1 15  1  0  0  0  0
  1 16  1  0  0  0  0
  6 17  1  0  0  0  0
  7 18  1  0  0  0  0
 12 19  1  0  0  0  0
M  END
>  <InChIKey>
InChI=1S/C8H6Cl2O3/c1-13-7-5(10)3-2-4(9)6(7)8(11)12/h2-3H,1H3,(H,11,12)

>  <CASRN>
1918-00-9

> <Outcome>
1

>  <Index>
1821

>  <StandardizerResult>
Dearomatize (ID: Dearomatize)
Clear Stereo (ID: ClearStereo)
Wedge Clean (ID: WedgeClean)
Mesomerize (ID: Mesomerize)
Tautomerize (ID: Tautomerize)
Aromatize (ID: Aromatize)
Add Explicit Hydrogens (ID: AddExplicitH)
Neutralize (ID: Neutralize)
Clean 2D (ID: Clean2D)

> <knn Distance>


> <CpId>
1821

$$$$
1824
  Mrv1532301301811342D          

  9  9  0  0  0  0            999 V2000
   -0.3201    2.1630    0.0000 O   0  0  0  0  0  0  0  0  0  0  0  0
    0.3944    1.7505    0.0000 C   0  0  0  0  0  0  0  0  0  0  0  0
    0.3944    0.9255    0.0000 C   0  0  0  0  0  0  0  0  0  0  0  0
    0.8069    0.2110    0.0000 C   0  0  0  0  0  0  0  0  0  0  0  0
   -0.0181    0.2110    0.0000 O   0  0  0  0  0  0  0  0  0  0  0  0
    1.1088    2.1630    0.0000 H   0  0  0  0  0  0  0  0  0  0  0  0
   -0.4025    1.1390    0.0000 H   0  0  0  0  0  0  0  0  0  0  0  0
    1.1771   -0.5262    0.0000 H   0  0  0  0  0  0  0  0  0  0  0  0
    1.6305    0.2590    0.0000 H   0  0  0  0  0  0  0  0  0  0  0  0
  1  2  2  0  0  0  0
  2  3  1  0  0  0  0
  3  4  1  0  0  0  0
  4  5  1  0  0  0  0
  3  5  1  0  0  0  0
  2  6  1  0  0  0  0
  3  7  1  0  0  0  0
  4  8  1  0  0  0  0
  4  9  1  0  0  0  0
M  END
>  <InChIKey>
InChI=1S/C3H4O2/c4-1-3-2-5-3/h1,3H,2H2

>  <CASRN>
765-34-4

> <Outcome>
1

>  <Index>
1824

>  <StandardizerResult>
Clear Stereo (ID: ClearStereo)
Wedge Clean (ID: WedgeClean)
Mesomerize (ID: Mesomerize)
Tautomerize (ID: Tautomerize)
Add Explicit Hydrogens (ID: AddExplicitH)
Neutralize (ID: Neutralize)
Clean 2D (ID: Clean2D)

> <knn Distance>


> <CpId>
1824

$$$$
1825
  Mrv1532301301811342D          

119120  0  0  0  0            999 V2000
   -0.5003    5.2038    0.0000 C   0  0  0  0  0  0  0  0  0  0  0  0
   -1.0784    5.7924    0.0000 O   0  0  0  0  0  0  0  0  0  0  0  0
   -1.8772    5.5860    0.0000 C   0  0  0  0  0  0  0  0  0  0  0  0
   -2.4553    6.1745    0.0000 C   0  0  0  0  0  0  0  0  0  0  0  0
   -2.2347    6.9695    0.0000 C   0  0  0  0  0  0  0  0  0  0  0  0
   -2.8129    7.5580    0.0000 C   0  0  0  0  0  0  0  0  0  0  0  0
   -2.5922    8.3529    0.0000 C   0  0  0  0  0  0  0  0  0  0  0  0
   -1.7935    8.5594    0.0000 C   0  0  0  0  0  0  0  0  0  0  0  0
   -1.2153    7.9708    0.0000 C   0  0  0  0  0  0  0  0  0  0  0  0
   -1.4360    7.1759    0.0000 C   0  0  0  0  0  0  0  0  0  0  0  0
   -2.0978    4.7910    0.0000 C   0  0  0  0  0  0  0  0  0  0  0  0
   -2.8966    4.5846    0.0000 C   0  0  0  0  0  0  0  0  0  0  0  0
   -1.5197    4.2025    0.0000 C   0  0  0  0  0  0  0  0  0  0  0  0
   -1.7403    3.4075    0.0000 C   0  0  0  0  0  0  0  0  0  0  0  0
   -2.5391    3.2011    0.0000 C   0  0  0  0  0  0  0  0  0  0  0  0
   -1.1622    2.8190    0.0000 C   0  0  0  0  0  0  0  0  0  0  0  0
   -1.3828    2.0240    0.0000 C   0  0  0  0  0  0  0  0  0  0  0  0
   -0.8047    1.4355    0.0000 C   0  0  0  0  0  0  0  0  0  0  0  0
   -0.4462    2.1785    0.0000 N   0  0  0  0  0  0  0  0  0  0  0  0
    0.3713    2.0672    0.0000 C   0  0  0  0  0  0  0  0  0  0  0  0
    0.9418    2.6631    0.0000 O   0  0  0  0  0  0  0  0  0  0  0  0
    0.5180    1.2553    0.0000 C   0  0  0  0  0  0  0  0  0  0  0  0
    1.2325    1.6678    0.0000 C   0  0  0  0  0  0  0  0  0  0  0  0
    1.9469    1.2553    0.0000 C   0  0  0  0  0  0  0  0  0  0  0  0
    2.6614    1.6678    0.0000 C   0  0  0  0  0  0  0  0  0  0  0  0
    3.3759    1.2553    0.0000 N   0  0  0  0  0  0  0  0  0  0  0  0
    4.0903    1.6678    0.0000 C   0  0  0  0  0  0  0  0  0  0  0  0
    4.0903    2.4928    0.0000 N   0  0  0  0  0  0  0  0  0  0  0  0
    4.8048    1.2553    0.0000 N   0  0  0  0  0  0  0  0  0  0  0  0
    1.2071    0.6721    0.0000 N   0  0  0  0  0  0  0  0  0  0  0  0
    1.0958   -0.1454    0.0000 C   0  0  0  0  0  0  0  0  0  0  0  0
    0.3322   -0.4577    0.0000 O   0  0  0  0  0  0  0  0  0  0  0  0
    1.7480   -0.6505    0.0000 C   0  0  0  0  0  0  0  0  0  0  0  0
    2.5116   -0.3382    0.0000 C   0  0  0  0  0  0  0  0  0  0  0  0
    1.6367   -1.4680    0.0000 C   0  0  0  0  0  0  0  0  0  0  0  0
    2.2890   -1.9731    0.0000 N   0  0  0  0  0  0  0  0  0  0  0  0
    2.1777   -2.7905    0.0000 C   0  0  0  0  0  0  0  0  0  0  0  0
    2.8299   -3.2957    0.0000 O   0  0  0  0  0  0  0  0  0  0  0  0
    1.4141   -3.1029    0.0000 C   0  0  0  0  0  0  0  0  0  0  0  0
    1.3027   -3.9203    0.0000 C   0  0  0  0  0  0  0  0  0  0  0  0
    1.9550   -4.4255    0.0000 C   0  0  0  0  0  0  0  0  0  0  0  0
    0.7618   -2.5977    0.0000 N   0  0  0  0  0  0  0  0  0  0  0  0
    0.8731   -1.7803    0.0000 C   0  0  0  0  0  0  0  0  0  0  0  0
   -0.0018   -2.9100    0.0000 C   0  0  0  0  0  0  0  0  0  0  0  0
   -0.1132   -3.7275    0.0000 O   0  0  0  0  0  0  0  0  0  0  0  0
   -0.6541   -2.4049    0.0000 C   0  0  0  0  0  0  0  0  0  0  0  0
   -0.5428   -1.5874    0.0000 C   0  0  0  0  0  0  0  0  0  0  0  0
   -1.1950   -1.0823    0.0000 C   0  0  0  0  0  0  0  0  0  0  0  0
   -1.0837   -0.2648    0.0000 N   0  0  0  0  0  0  0  0  0  0  0  0
   -1.7360    0.2403    0.0000 C   0  0  0  0  0  0  0  0  0  0  0  0
   -2.4996   -0.0720    0.0000 O   0  0  0  0  0  0  0  0  0  0  0  0
   -1.6246    1.0578    0.0000 C   0  0  0  0  0  0  0  0  0  0  0  0
   -2.2877    1.5486    0.0000 C   0  0  0  0  0  0  0  0  0  0  0  0
   -1.9586   -1.3946    0.0000 C   0  0  0  0  0  0  0  0  0  0  0  0
   -2.6109   -0.8895    0.0000 O   0  0  0  0  0  0  0  0  0  0  0  0
   -2.0700   -2.2121    0.0000 O   0  0  0  0  0  0  0  0  0  0  0  0
    2.4003   -1.1556    0.0000 C   0  0  0  0  0  0  0  0  0  0  0  0
    3.0526   -1.6608    0.0000 O   0  0  0  0  0  0  0  0  0  0  0  0
    2.9709   -0.5597    0.0000 O   0  0  0  0  0  0  0  0  0  0  0  0
   -1.0888    4.6257    0.0000 H   0  0  0  0  0  0  0  0  0  0  0  0
    0.0778    4.6153    0.0000 H   0  0  0  0  0  0  0  0  0  0  0  0
    0.0882    5.7820    0.0000 H   0  0  0  0  0  0  0  0  0  0  0  0
   -1.6566    6.3809    0.0000 H   0  0  0  0  0  0  0  0  0  0  0  0
   -3.2618    6.3485    0.0000 H   0  0  0  0  0  0  0  0  0  0  0  0
   -3.0765    5.6316    0.0000 H   0  0  0  0  0  0  0  0  0  0  0  0
   -3.6116    7.3516    0.0000 H   0  0  0  0  0  0  0  0  0  0  0  0
   -3.1704    8.9415    0.0000 H   0  0  0  0  0  0  0  0  0  0  0  0
   -1.5729    9.3543    0.0000 H   0  0  0  0  0  0  0  0  0  0  0  0
   -0.4166    8.1772    0.0000 H   0  0  0  0  0  0  0  0  0  0  0  0
   -0.6410    6.9552    0.0000 H   0  0  0  0  0  0  0  0  0  0  0  0
   -2.6760    5.3795    0.0000 H   0  0  0  0  0  0  0  0  0  0  0  0
   -3.6074    5.0034    0.0000 H   0  0  0  0  0  0  0  0  0  0  0  0
   -3.4851    4.0065    0.0000 H   0  0  0  0  0  0  0  0  0  0  0  0
   -2.4905    3.8665    0.0000 H   0  0  0  0  0  0  0  0  0  0  0  0
   -0.8089    3.7836    0.0000 H   0  0  0  0  0  0  0  0  0  0  0  0
   -3.3039    3.5103    0.0000 H   0  0  0  0  0  0  0  0  0  0  0  0
   -3.0677    2.5677    0.0000 H   0  0  0  0  0  0  0  0  0  0  0  0
   -2.0980    2.5039    0.0000 H   0  0  0  0  0  0  0  0  0  0  0  0
   -0.5926    3.4158    0.0000 H   0  0  0  0  0  0  0  0  0  0  0  0
   -1.9096    1.3891    0.0000 H   0  0  0  0  0  0  0  0  0  0  0  0
   -0.2265    0.8469    0.0000 H   0  0  0  0  0  0  0  0  0  0  0  0
   -0.1003    2.9275    0.0000 H   0  0  0  0  0  0  0  0  0  0  0  0
    0.4354    0.4345    0.0000 H   0  0  0  0  0  0  0  0  0  0  0  0
    1.8456    2.2198    0.0000 H   0  0  0  0  0  0  0  0  0  0  0  0
    1.3311    2.4869    0.0000 H   0  0  0  0  0  0  0  0  0  0  0  0
    2.0260    0.4341    0.0000 H   0  0  0  0  0  0  0  0  0  0  0  0
    2.6804    0.8776    0.0000 H   0  0  0  0  0  0  0  0  0  0  0  0
    3.0317    2.4051    0.0000 H   0  0  0  0  0  0  0  0  0  0  0  0
    2.2911    2.4051    0.0000 H   0  0  0  0  0  0  0  0  0  0  0  0
    3.7790    0.5356    0.0000 H   0  0  0  0  0  0  0  0  0  0  0  0
    4.8048    2.9053    0.0000 H   0  0  0  0  0  0  0  0  0  0  0  0
    3.3759    2.9053    0.0000 H   0  0  0  0  0  0  0  0  0  0  0  0
    4.8048    0.4303    0.0000 H   0  0  0  0  0  0  0  0  0  0  0  0
    1.2214    1.4970    0.0000 H   0  0  0  0  0  0  0  0  0  0  0  0
    1.8594    0.1670    0.0000 H   0  0  0  0  0  0  0  0  0  0  0  0
    3.3209   -0.1776    0.0000 H   0  0  0  0  0  0  0  0  0  0  0  0
    3.0615    0.2769    0.0000 H   0  0  0  0  0  0  0  0  0  0  0  0
    2.5809    0.4839    0.0000 H   0  0  0  0  0  0  0  0  0  0  0  0
    1.5254   -2.2854    0.0000 H   0  0  0  0  0  0  0  0  0  0  0  0
    2.9413   -2.4782    0.0000 H   0  0  0  0  0  0  0  0  0  0  0  0
    0.5391   -4.2326    0.0000 H   0  0  0  0  0  0  0  0  0  0  0  0
    1.4499   -5.0777    0.0000 H   0  0  0  0  0  0  0  0  0  0  0  0
    2.6073   -4.9306    0.0000 H   0  0  0  0  0  0  0  0  0  0  0  0
    2.4601   -3.7732    0.0000 H   0  0  0  0  0  0  0  0  0  0  0  0
    0.9844   -0.9628    0.0000 H   0  0  0  0  0  0  0  0  0  0  0  0
    0.2208   -1.2751    0.0000 H   0  0  0  0  0  0  0  0  0  0  0  0
    0.1095   -2.0926    0.0000 H   0  0  0  0  0  0  0  0  0  0  0  0
   -1.4766   -2.3413    0.0000 H   0  0  0  0  0  0  0  0  0  0  0  0
   -1.1963   -3.0267    0.0000 H   0  0  0  0  0  0  0  0  0  0  0  0
   -0.4314   -0.7700    0.0000 H   0  0  0  0  0  0  0  0  0  0  0  0
   -1.3064   -1.8997    0.0000 H   0  0  0  0  0  0  0  0  0  0  0  0
   -1.8473   -0.5772    0.0000 H   0  0  0  0  0  0  0  0  0  0  0  0
   -0.5786    0.3874    0.0000 H   0  0  0  0  0  0  0  0  0  0  0  0
   -0.9616    0.5669    0.0000 H   0  0  0  0  0  0  0  0  0  0  0  0
   -1.9225    2.2883    0.0000 H   0  0  0  0  0  0  0  0  0  0  0  0
   -3.0044    1.9572    0.0000 H   0  0  0  0  0  0  0  0  0  0  0  0
   -2.7383    0.8575    0.0000 H   0  0  0  0  0  0  0  0  0  0  0  0
   -3.3745   -1.2018    0.0000 H   0  0  0  0  0  0  0  0  0  0  0  0
    3.8162   -1.3485    0.0000 H   0  0  0  0  0  0  0  0  0  0  0  0
  1  2  1  0  0  0  0
  2  3  1  0  0  0  0
  3  4  1  0  0  0  0
  4  5  1  0  0  0  0
  5  6  4  0  0  0  0
  6  7  4  0  0  0  0
  7  8  4  0  0  0  0
  8  9  4  0  0  0  0
  9 10  4  0  0  0  0
  5 10  4  0  0  0  0
  3 11  1  0  0  0  0
 11 12  1  0  0  0  0
 13 11  1  0  0  0  0
 13 14  2  0  0  0  0
 14 15  1  0  0  0  0
 16 14  1  0  0  0  0
 16 17  2  0  0  0  0
 17 18  1  0  0  0  0
 18 19  1  0  0  0  0
 19 20  1  0  0  0  0
 20 21  2  0  0  0  0
 20 22  1  0  0  0  0
 22 23  1  0  0  0  0
 23 24  1  0  0  0  0
 24 25  1  0  0  0  0
 25 26  1  0  0  0  0
 26 27  1  0  0  0  0
 27 28  1  0  0  0  0
 27 29  2  0  0  0  0
 22 30  1  0  0  0  0
 30 31  1  0  0  0  0
 31 32  2  0  0  0  0
 31 33  1  0  0  0  0
 33 34  1  0  0  0  0
 33 35  1  0  0  0  0
 35 36  1  0  0  0  0
 36 37  1  0  0  0  0
 37 38  2  0  0  0  0
 37 39  1  0  0  0  0
 39 40  2  0  0  0  0
 40 41  1  0  0  0  0
 39 42  1  0  0  0  0
 42 43  1  0  0  0  0
 42 44  1  0  0  0  0
 44 45  2  0  0  0  0
 44 46  1  0  0  0  0
 46 47  1  0  0  0  0
 47 48  1  0  0  0  0
 48 49  1  0  0  0  0
 49 50  1  0  0  0  0
 50 51  2  0  0  0  0
 50 52  1  0  0  0  0
 18 52  1  0  0  0  0
 52 53  1  0  0  0  0
 48 54  1  0  0  0  0
 54 55  1  0  0  0  0
 54 56  2  0  0  0  0
 35 57  1  0  0  0  0
 57 58  1  0  0  0  0
 57 59  2  0  0  0  0
  1 60  1  0  0  0  0
  1 61  1  0  0  0  0
  1 62  1  0  0  0  0
  3 63  1  0  0  0  0
  4 64  1  0  0  0  0
  4 65  1  0  0  0  0
  6 66  1  0  0  0  0
  7 67  1  0  0  0  0
  8 68  1  0  0  0  0
  9 69  1  0  0  0  0
 10 70  1  0  0  0  0
 11 71  1  0  0  0  0
 12 72  1  0  0  0  0
 12 73  1  0  0  0  0
 12 74  1  0  0  0  0
 13 75  1  4  0  0  0
 15 76  1  0  0  0  0
 15 77  1  0  0  0  0
 15 78  1  0  0  0  0
 16 79  1  4  0  0  0
 17 80  1  0  0  0  0
 18 81  1  0  0  0  0
 19 82  1  0  0  0  0
 22 83  1  0  0  0  0
 23 84  1  0  0  0  0
 23 85  1  0  0  0  0
 24 86  1  0  0  0  0
 24 87  1  0  0  0  0
 25 88  1  0  0  0  0
 25 89  1  0  0  0  0
 26 90  1  0  0  0  0
 28 91  1  0  0  0  0
 28 92  1  0  0  0  0
 29 93  1  0  0  0  0
 30 94  1  0  0  0  0
 33 95  1  0  0  0  0
 34 96  1  0  0  0  0
 34 97  1  0  0  0  0
 34 98  1  0  0  0  0
 35 99  1  0  0  0  0
 36100  1  0  0  0  0
 40101  1  4  0  0  0
 41102  1  0  0  0  0
 41103  1  0  0  0  0
 41104  1  0  0  0  0
 43105  1  0  0  0  0
 43106  1  0  0  0  0
 43107  1  0  0  0  0
 46108  1  0  0  0  0
 46109  1  0  0  0  0
 47110  1  0  0  0  0
 47111  1  0  0  0  0
 48112  1  0  0  0  0
 49113  1  0  0  0  0
 52114  1  0  0  0  0
 53115  1  0  0  0  0
 53116  1  0  0  0  0
 53117  1  0  0  0  0
 55118  1  0  0  0  0
 58119  1  0  0  0  0
M  END
>  <InChIKey>
InChI=1S/C41H60N8O10/c1-8-31-38(54)48-34(40(57)58)26(5)36(52)46-29(15-12-20-44-41(42)43)37(53)45-28(25(4)35(51)47-30(39(55)56)18-19-33(50)49(31)6)17-16-23(2)21-24(3)32(59-7)22-27-13-10-9-11-14-27/h8-11,13-14,16-17,21,24-26,28-30,32,34H,12,15,18-20,22H2,1-7H3,(H,45,53)(H,46,52)(H,47,51)(H,48,54)(H,55,56)(H,57,58)(H4,42,43,44)

>  <CASRN>
118399-22-7

> <Outcome>
1

>  <Index>
1825

>  <StandardizerResult>
Dearomatize (ID: Dearomatize)
Clear Stereo (ID: ClearStereo)
Wedge Clean (ID: WedgeClean)
Mesomerize (ID: Mesomerize)
Tautomerize (ID: Tautomerize)
Aromatize (ID: Aromatize)
Add Explicit Hydrogens (ID: AddExplicitH)
Neutralize (ID: Neutralize)
Clean 2D (ID: Clean2D)

> <knn Distance>


> <CpId>
1825

$$$$
1826
  Mrv1532301301811342D          

 36 37  0  0  0  0            999 V2000
   -1.4589    0.4361    0.0000 C   0  0  0  0  0  0  0  0  0  0  0  0
   -0.8587    1.0021    0.0000 C   0  0  0  0  0  0  0  0  0  0  0  0
   -1.0488    0.1993    0.0000 C   0  0  0  0  0  0  0  0  0  0  0  0
   -1.4701    1.5932    0.0000 C   0  0  0  0  0  0  0  0  0  0  0  0
   -1.4701    0.7682    0.0000 C   0  0  0  0  0  0  0  0  0  0  0  0
   -0.7556    0.3557    0.0000 C   0  0  0  0  0  0  0  0  0  0  0  0
   -0.0411    0.7682    0.0000 C   0  0  0  0  0  0  0  0  0  0  0  0
    0.6733    0.3557    0.0000 C   0  0  0  0  0  0  0  0  0  0  0  0
   -0.0411    1.5932    0.0000 C   0  0  0  0  0  0  0  0  0  0  0  0
   -0.7556    2.0057    0.0000 C   0  0  0  0  0  0  0  0  0  0  0  0
    0.6733    2.0057    0.0000 O   0  0  0  0  0  0  0  0  0  0  0  0
    1.3878    1.5932    0.0000 C   0  0  0  0  0  0  0  0  0  0  0  0
    1.3878    0.7682    0.0000 O   0  0  0  0  0  0  0  0  0  0  0  0
    2.1023    2.0057    0.0000 C   0  0  0  0  0  0  0  0  0  0  0  0
    2.8167    1.5932    0.0000 S   0  0  0  0  0  0  0  0  0  0  0  0
    3.5312    2.0057    0.0000 C   0  0  0  0  0  0  0  0  0  0  0  0
    4.2457    2.4182    0.0000 N   0  0  0  0  0  0  0  0  0  0  0  0
   -2.1836    0.8305    0.0000 H   0  0  0  0  0  0  0  0  0  0  0  0
   -2.1664    0.0116    0.0000 H   0  0  0  0  0  0  0  0  0  0  0  0
   -1.4520   -0.3889    0.0000 H   0  0  0  0  0  0  0  0  0  0  0  0
   -0.9956   -0.6240    0.0000 H   0  0  0  0  0  0  0  0  0  0  0  0
   -0.4987   -0.4155    0.0000 H   0  0  0  0  0  0  0  0  0  0  0  0
   -0.2365    0.0553    0.0000 H   0  0  0  0  0  0  0  0  0  0  0  0
   -2.1846    2.0057    0.0000 H   0  0  0  0  0  0  0  0  0  0  0  0
   -1.8617    1.4943    0.0000 H   0  0  0  0  0  0  0  0  0  0  0  0
   -2.1594    1.2215    0.0000 H   0  0  0  0  0  0  0  0  0  0  0  0
    0.0568    0.2119    0.0000 H   0  0  0  0  0  0  0  0  0  0  0  0
    0.0569    0.4987    0.0000 H   0  0  0  0  0  0  0  0  0  0  0  0
    0.7141   -0.4683    0.0000 H   0  0  0  0  0  0  0  0  0  0  0  0
    1.2611   -0.2232    0.0000 H   0  0  0  0  0  0  0  0  0  0  0  0
    0.6733    1.1807    0.0000 H   0  0  0  0  0  0  0  0  0  0  0  0
   -0.7556    1.1807    0.0000 H   0  0  0  0  0  0  0  0  0  0  0  0
   -0.3854    2.7430    0.0000 H   0  0  0  0  0  0  0  0  0  0  0  0
   -1.1259    2.7430    0.0000 H   0  0  0  0  0  0  0  0  0  0  0  0
    2.4725    2.7430    0.0000 H   0  0  0  0  0  0  0  0  0  0  0  0
    1.7320    2.7430    0.0000 H   0  0  0  0  0  0  0  0  0  0  0  0
  1  2  1  0  0  0  0
  2  3  1  0  0  0  0
  2  4  1  0  0  0  0
  4  5  1  0  0  0  0
  5  6  1  0  0  0  0
  6  7  1  0  0  0  0
  2  7  1  0  0  0  0
  7  8  1  0  0  0  0
  7  9  1  0  0  0  0
  9 10  1  0  0  0  0
  4 10  1  0  0  0  0
  9 11  1  0  0  0  0
 11 12  1  0  0  0  0
 12 13  2  0  0  0  0
 12 14  1  0  0  0  0
 14 15  1  0  0  0  0
 15 16  1  0  0  0  0
 16 17  3  0  0  0  0
  1 18  1  0  0  0  0
  1 19  1  0  0  0  0
  1 20  1  0  0  0  0
  3 21  1  0  0  0  0
  3 22  1  0  0  0  0
  3 23  1  0  0  0  0
  4 24  1  0  0  0  0
  5 25  1  0  0  0  0
  5 26  1  0  0  0  0
  6 27  1  0  0  0  0
  6 28  1  0  0  0  0
  8 29  1  0  0  0  0
  8 30  1  0  0  0  0
  8 31  1  0  0  0  0
  9 32  1  0  0  0  0
 10 33  1  0  0  0  0
 10 34  1  0  0  0  0
 14 35  1  0  0  0  0
 14 36  1  0  0  0  0
M  END
>  <InChIKey>
InChI=1S/C13H19NO2S/c1-12(2)9-4-5-13(12,3)10(6-9)16-11(15)7-17-8-14/h9-10H,4-7H2,1-3H3

>  <CASRN>
115-31-1

> <Outcome>
1

>  <Index>
1826

>  <StandardizerResult>
Clear Stereo (ID: ClearStereo)
Wedge Clean (ID: WedgeClean)
Mesomerize (ID: Mesomerize)
Tautomerize (ID: Tautomerize)
Add Explicit Hydrogens (ID: AddExplicitH)
Neutralize (ID: Neutralize)
Clean 2D (ID: Clean2D)

> <knn Distance>


> <CpId>
1826

$$$$
1830
  Mrv1532301301811342D          

  7  6  0  0  0  0            999 V2000
    3.3000    0.0000    0.0000 C   0  0  0  0  0  0  0  0  0  0  0  0
    2.4750    0.0000    0.0000 C   0  0  0  0  0  0  0  0  0  0  0  0
    1.6500    0.0000    0.0000 C   0  0  0  0  0  0  0  0  0  0  0  0
    3.7125   -0.7145    0.0000 H   0  0  0  0  0  0  0  0  0  0  0  0
    3.7125    0.7145    0.0000 H   0  0  0  0  0  0  0  0  0  0  0  0
    1.2375    0.7145    0.0000 H   0  0  0  0  0  0  0  0  0  0  0  0
    1.2375   -0.7145    0.0000 H   0  0  0  0  0  0  0  0  0  0  0  0
  1  2  2  0  0  0  0
  2  3  2  0  0  0  0
  1  4  1  0  0  0  0
  1  5  1  0  0  0  0
  3  6  1  0  0  0  0
  3  7  1  0  0  0  0
M  END
>  <InChIKey>
InChI=1S/C3H4/c1-3-2/h1-2H2

>  <CASRN>
463-49-0

> <Outcome>
1

>  <Index>
1830

>  <StandardizerResult>
Mesomerize (ID: Mesomerize)
Tautomerize (ID: Tautomerize)
Add Explicit Hydrogens (ID: AddExplicitH)
Neutralize (ID: Neutralize)
Clean 2D (ID: Clean2D)

> <knn Distance>


> <CpId>
1830

$$$$
1831
  Mrv1532301301811342D          

 70 70  0  0  0  0            999 V2000
   -2.8142  -12.2324    0.0000 C   0  0  0  0  0  0  0  0  0  0  0  0
   -2.0997  -11.8199    0.0000 C   0  0  0  0  0  0  0  0  0  0  0  0
   -1.3853  -12.2324    0.0000 C   0  0  0  0  0  0  0  0  0  0  0  0
   -0.6708  -11.8199    0.0000 C   0  0  0  0  0  0  0  0  0  0  0  0
    0.0437  -12.2324    0.0000 C   0  0  0  0  0  0  0  0  0  0  0  0
    0.7581  -11.8199    0.0000 C   0  0  0  0  0  0  0  0  0  0  0  0
    1.4726  -12.2324    0.0000 C   0  0  0  0  0  0  0  0  0  0  0  0
    2.1871  -11.8199    0.0000 C   0  0  0  0  0  0  0  0  0  0  0  0
    2.9016  -12.2324    0.0000 C   0  0  0  0  0  0  0  0  0  0  0  0
    3.6160  -11.8199    0.0000 C   0  0  0  0  0  0  0  0  0  0  0  0
    4.3305  -12.2324    0.0000 C   0  0  0  0  0  0  0  0  0  0  0  0
    5.0450  -11.8199    0.0000 C   0  0  0  0  0  0  0  0  0  0  0  0
    5.7594  -12.2324    0.0000 C   0  0  0  0  0  0  0  0  0  0  0  0
    6.4739  -11.8199    0.0000 C   0  0  0  0  0  0  0  0  0  0  0  0
    7.1884  -12.2324    0.0000 C   0  0  0  0  0  0  0  0  0  0  0  0
    7.9029  -11.8199    0.0000 C   0  0  0  0  0  0  0  0  0  0  0  0
    7.9029  -10.9949    0.0000 O   0  0  0  0  0  0  0  0  0  0  0  0
    8.6173  -12.2324    0.0000 O   0  0  0  0  0  0  0  0  0  0  0  0
    9.3318  -11.8199    0.0000 C   0  0  0  0  0  0  0  0  0  0  0  0
   10.0463  -12.2324    0.0000 C   0  0  0  0  0  0  0  0  0  0  0  0
   10.0463  -13.0574    0.0000 O   0  0  0  0  0  0  0  0  0  0  0  0
   10.7607  -11.8199    0.0000 C   0  0  0  0  0  0  0  0  0  0  0  0
   10.8470  -10.9994    0.0000 O   0  0  0  0  0  0  0  0  0  0  0  0
   11.6539  -10.8279    0.0000 C   0  0  0  0  0  0  0  0  0  0  0  0
   12.0664  -11.5424    0.0000 C   0  0  0  0  0  0  0  0  0  0  0  0
   12.8869  -11.6286    0.0000 O   0  0  0  0  0  0  0  0  0  0  0  0
   11.5144  -12.1555    0.0000 C   0  0  0  0  0  0  0  0  0  0  0  0
   11.6859  -12.9624    0.0000 O   0  0  0  0  0  0  0  0  0  0  0  0
   -3.2267  -11.5179    0.0000 H   0  0  0  0  0  0  0  0  0  0  0  0
   -3.5287  -12.6449    0.0000 H   0  0  0  0  0  0  0  0  0  0  0  0
   -2.4017  -12.9469    0.0000 H   0  0  0  0  0  0  0  0  0  0  0  0
   -1.7295  -11.0827    0.0000 H   0  0  0  0  0  0  0  0  0  0  0  0
   -2.4700  -11.0827    0.0000 H   0  0  0  0  0  0  0  0  0  0  0  0
   -1.7555  -12.9696    0.0000 H   0  0  0  0  0  0  0  0  0  0  0  0
   -1.0150  -12.9696    0.0000 H   0  0  0  0  0  0  0  0  0  0  0  0
   -0.3005  -11.0827    0.0000 H   0  0  0  0  0  0  0  0  0  0  0  0
   -1.0411  -11.0827    0.0000 H   0  0  0  0  0  0  0  0  0  0  0  0
   -0.3266  -12.9696    0.0000 H   0  0  0  0  0  0  0  0  0  0  0  0
    0.4139  -12.9696    0.0000 H   0  0  0  0  0  0  0  0  0  0  0  0
    1.1284  -11.0827    0.0000 H   0  0  0  0  0  0  0  0  0  0  0  0
    0.3879  -11.0827    0.0000 H   0  0  0  0  0  0  0  0  0  0  0  0
    1.1024  -12.9696    0.0000 H   0  0  0  0  0  0  0  0  0  0  0  0
    1.8429  -12.9696    0.0000 H   0  0  0  0  0  0  0  0  0  0  0  0
    2.5573  -11.0827    0.0000 H   0  0  0  0  0  0  0  0  0  0  0  0
    1.8168  -11.0827    0.0000 H   0  0  0  0  0  0  0  0  0  0  0  0
    2.5313  -12.9696    0.0000 H   0  0  0  0  0  0  0  0  0  0  0  0
    3.2718  -12.9696    0.0000 H   0  0  0  0  0  0  0  0  0  0  0  0
    3.9863  -11.0827    0.0000 H   0  0  0  0  0  0  0  0  0  0  0  0
    3.2458  -11.0827    0.0000 H   0  0  0  0  0  0  0  0  0  0  0  0
    3.9602  -12.9696    0.0000 H   0  0  0  0  0  0  0  0  0  0  0  0
    4.7008  -12.9696    0.0000 H   0  0  0  0  0  0  0  0  0  0  0  0
    5.4152  -11.0827    0.0000 H   0  0  0  0  0  0  0  0  0  0  0  0
    4.6747  -11.0827    0.0000 H   0  0  0  0  0  0  0  0  0  0  0  0
    5.3892  -12.9696    0.0000 H   0  0  0  0  0  0  0  0  0  0  0  0
    6.1297  -12.9696    0.0000 H   0  0  0  0  0  0  0  0  0  0  0  0
    6.8442  -11.0827    0.0000 H   0  0  0  0  0  0  0  0  0  0  0  0
    6.1037  -11.0827    0.0000 H   0  0  0  0  0  0  0  0  0  0  0  0
    6.8181  -12.9696    0.0000 H   0  0  0  0  0  0  0  0  0  0  0  0
    7.5586  -12.9696    0.0000 H   0  0  0  0  0  0  0  0  0  0  0  0
    9.7021  -11.0827    0.0000 H   0  0  0  0  0  0  0  0  0  0  0  0
    8.9615  -11.0827    0.0000 H   0  0  0  0  0  0  0  0  0  0  0  0
    9.3318  -12.6449    0.0000 H   0  0  0  0  0  0  0  0  0  0  0  0
   10.4588  -13.7719    0.0000 H   0  0  0  0  0  0  0  0  0  0  0  0
   10.8039  -12.6438    0.0000 H   0  0  0  0  0  0  0  0  0  0  0  0
   12.3041  -10.3200    0.0000 H   0  0  0  0  0  0  0  0  0  0  0  0
   11.5964  -10.0049    0.0000 H   0  0  0  0  0  0  0  0  0  0  0  0
   12.3621  -12.3126    0.0000 H   0  0  0  0  0  0  0  0  0  0  0  0
   13.6449  -11.3029    0.0000 H   0  0  0  0  0  0  0  0  0  0  0  0
   11.3429  -11.3485    0.0000 H   0  0  0  0  0  0  0  0  0  0  0  0
   11.8575  -13.7694    0.0000 H   0  0  0  0  0  0  0  0  0  0  0  0
  1  2  1  0  0  0  0
  2  3  1  0  0  0  0
  3  4  1  0  0  0  0
  4  5  1  0  0  0  0
  5  6  1  0  0  0  0
  6  7  1  0  0  0  0
  7  8  1  0  0  0  0
  8  9  1  0  0  0  0
  9 10  1  0  0  0  0
 10 11  1  0  0  0  0
 11 12  1  0  0  0  0
 12 13  1  0  0  0  0
 13 14  1  0  0  0  0
 14 15  1  0  0  0  0
 15 16  1  0  0  0  0
 16 17  2  0  0  0  0
 16 18  1  0  0  0  0
 18 19  1  0  0  0  0
 19 20  1  0  0  0  0
 20 21  1  0  0  0  0
 20 22  1  0  0  0  0
 22 23  1  0  0  0  0
 23 24  1  0  0  0  0
 24 25  1  0  0  0  0
 25 26  1  0  0  0  0
 25 27  1  0  0  0  0
 22 27  1  0  0  0  0
 27 28  1  0  0  0  0
  1 29  1  0  0  0  0
  1 30  1  0  0  0  0
  1 31  1  0  0  0  0
  2 32  1  0  0  0  0
  2 33  1  0  0  0  0
  3 34  1  0  0  0  0
  3 35  1  0  0  0  0
  4 36  1  0  0  0  0
  4 37  1  0  0  0  0
  5 38  1  0  0  0  0
  5 39  1  0  0  0  0
  6 40  1  0  0  0  0
  6 41  1  0  0  0  0
  7 42  1  0  0  0  0
  7 43  1  0  0  0  0
  8 44  1  0  0  0  0
  8 45  1  0  0  0  0
  9 46  1  0  0  0  0
  9 47  1  0  0  0  0
 10 48  1  0  0  0  0
 10 49  1  0  0  0  0
 11 50  1  0  0  0  0
 11 51  1  0  0  0  0
 12 52  1  0  0  0  0
 12 53  1  0  0  0  0
 13 54  1  0  0  0  0
 13 55  1  0  0  0  0
 14 56  1  0  0  0  0
 14 57  1  0  0  0  0
 15 58  1  0  0  0  0
 15 59  1  0  0  0  0
 19 60  1  0  0  0  0
 19 61  1  0  0  0  0
 20 62  1  0  0  0  0
 21 63  1  0  0  0  0
 22 64  1  0  0  0  0
 24 65  1  0  0  0  0
 24 66  1  0  0  0  0
 25 67  1  0  0  0  0
 26 68  1  0  0  0  0
 27 69  1  0  0  0  0
 28 70  1  0  0  0  0
M  END
>  <InChIKey>
InChI=1S/C22H42O6/c1-2-3-4-5-6-7-8-9-10-11-12-13-14-15-20(25)27-17-19(24)22-21(26)18(23)16-28-22/h18-19,21-24,26H,2-17H2,1H3

>  <CASRN>
26266-57-9

> <Outcome>
1

>  <Index>
1831

>  <StandardizerResult>
Clear Stereo (ID: ClearStereo)
Wedge Clean (ID: WedgeClean)
Mesomerize (ID: Mesomerize)
Tautomerize (ID: Tautomerize)
Add Explicit Hydrogens (ID: AddExplicitH)
Neutralize (ID: Neutralize)
Clean 2D (ID: Clean2D)

> <knn Distance>


> <CpId>
1831

$$$$
1835
  Mrv1532301301811342D          

 32 35  0  0  0  0            999 V2000
   -0.9110   -0.5552    0.0000 O   0  0  0  0  0  0  0  0  0  0  0  0
   -0.7394   -1.3622    0.0000 C   0  0  0  0  0  0  0  0  0  0  0  0
    0.0142   -1.6978    0.0000 C   0  0  0  0  0  0  0  0  0  0  0  0
   -0.0720   -2.5182    0.0000 C   0  0  0  0  0  0  0  0  0  0  0  0
    0.5411   -3.0703    0.0000 O   0  0  0  0  0  0  0  0  0  0  0  0
   -0.8790   -2.6898    0.0000 C   0  0  0  0  0  0  0  0  0  0  0  0
   -1.2915   -3.4042    0.0000 C   0  0  0  0  0  0  0  0  0  0  0  0
   -2.1165   -3.4042    0.0000 C   0  0  0  0  0  0  0  0  0  0  0  0
   -2.5290   -2.6898    0.0000 C   0  0  0  0  0  0  0  0  0  0  0  0
   -2.1165   -1.9753    0.0000 C   0  0  0  0  0  0  0  0  0  0  0  0
   -1.2915   -1.9753    0.0000 C   0  0  0  0  0  0  0  0  0  0  0  0
    0.7287   -1.2853    0.0000 C   0  0  0  0  0  0  0  0  0  0  0  0
    0.7287   -0.4603    0.0000 C   0  0  0  0  0  0  0  0  0  0  0  0
    1.4432   -0.0478    0.0000 C   0  0  0  0  0  0  0  0  0  0  0  0
    2.1577   -0.4603    0.0000 C   0  0  0  0  0  0  0  0  0  0  0  0
    2.8721   -0.0478    0.0000 C   0  0  0  0  0  0  0  0  0  0  0  0
    3.5866   -0.4603    0.0000 C   0  0  0  0  0  0  0  0  0  0  0  0
    3.5866   -1.2853    0.0000 C   0  0  0  0  0  0  0  0  0  0  0  0
    2.8721   -1.6978    0.0000 C   0  0  0  0  0  0  0  0  0  0  0  0
    2.1577   -1.2853    0.0000 C   0  0  0  0  0  0  0  0  0  0  0  0
    1.4432   -1.6978    0.0000 N   0  0  0  0  0  0  0  0  0  0  0  0
   -0.0289   -0.8739    0.0000 H   0  0  0  0  0  0  0  0  0  0  0  0
   -0.8790   -4.1187    0.0000 H   0  0  0  0  0  0  0  0  0  0  0  0
   -2.5290   -4.1187    0.0000 H   0  0  0  0  0  0  0  0  0  0  0  0
   -3.3540   -2.6898    0.0000 H   0  0  0  0  0  0  0  0  0  0  0  0
   -2.5290   -1.2608    0.0000 H   0  0  0  0  0  0  0  0  0  0  0  0
    0.3248    0.2591    0.0000 H   0  0  0  0  0  0  0  0  0  0  0  0
    1.4432    0.7772    0.0000 H   0  0  0  0  0  0  0  0  0  0  0  0
    2.8721    0.7772    0.0000 H   0  0  0  0  0  0  0  0  0  0  0  0
    4.3011   -0.0478    0.0000 H   0  0  0  0  0  0  0  0  0  0  0  0
    4.3011   -1.6978    0.0000 H   0  0  0  0  0  0  0  0  0  0  0  0
    2.8721   -2.5228    0.0000 H   0  0  0  0  0  0  0  0  0  0  0  0
  1  2  2  0  0  0  0
  2  3  1  0  0  0  0
  3  4  1  0  0  0  0
  4  5  2  0  0  0  0
  4  6  1  0  0  0  0
  6  7  4  0  0  0  0
  7  8  4  0  0  0  0
  8  9  4  0  0  0  0
  9 10  4  0  0  0  0
 10 11  4  0  0  0  0
  2 11  1  0  0  0  0
  6 11  4  0  0  0  0
  3 12  1  0  0  0  0
 12 13  4  0  0  0  0
 13 14  4  0  0  0  0
 14 15  4  0  0  0  0
 15 16  4  0  0  0  0
 16 17  4  0  0  0  0
 17 18  4  0  0  0  0
 18 19  4  0  0  0  0
 19 20  4  0  0  0  0
 15 20  4  0  0  0  0
 20 21  4  0  0  0  0
 12 21  4  0  0  0  0
  3 22  1  0  0  0  0
  7 23  1  0  0  0  0
  8 24  1  0  0  0  0
  9 25  1  0  0  0  0
 10 26  1  0  0  0  0
 13 27  1  0  0  0  0
 14 28  1  0  0  0  0
 16 29  1  0  0  0  0
 17 30  1  0  0  0  0
 18 31  1  0  0  0  0
 19 32  1  0  0  0  0
M  END
>  <InChIKey>
InChI=1S/C18H11NO2/c20-17-12-6-2-3-7-13(12)18(21)16(17)15-10-9-11-5-1-4-8-14(11)19-15/h1-10,16H

>  <CASRN>
8003-22-3

> <Outcome>
1

>  <Index>
1835

>  <StandardizerResult>
Dearomatize (ID: Dearomatize)
Clear Stereo (ID: ClearStereo)
Wedge Clean (ID: WedgeClean)
Mesomerize (ID: Mesomerize)
Tautomerize (ID: Tautomerize)
Aromatize (ID: Aromatize)
Add Explicit Hydrogens (ID: AddExplicitH)
Neutralize (ID: Neutralize)
Clean 2D (ID: Clean2D)

> <knn Distance>


> <CpId>
1835

$$$$
1837
  Mrv1532301301811342D          

 13 13  0  0  0  0            999 V2000
    0.7145    2.0625    0.0000 O   0  0  0  0  0  0  0  0  0  0  0  0
    0.7145    1.2375    0.0000 C   0  0  0  0  0  0  0  0  0  0  0  0
    1.4289    0.8250    0.0000 C   0  0  0  0  0  0  0  0  0  0  0  0
    2.1434    1.2375    0.0000 Cl  0  0  0  0  0  0  0  0  0  0  0  0
    1.4289   -0.0000    0.0000 C   0  0  0  0  0  0  0  0  0  0  0  0
    2.1434   -0.4125    0.0000 Cl  0  0  0  0  0  0  0  0  0  0  0  0
    0.7145   -0.4125    0.0000 C   0  0  0  0  0  0  0  0  0  0  0  0
    0.7145   -1.2375    0.0000 Cl  0  0  0  0  0  0  0  0  0  0  0  0
   -0.0000    0.0000    0.0000 C   0  0  0  0  0  0  0  0  0  0  0  0
   -0.7145   -0.4125    0.0000 Cl  0  0  0  0  0  0  0  0  0  0  0  0
   -0.0000    0.8250    0.0000 C   0  0  0  0  0  0  0  0  0  0  0  0
   -0.7145    1.2375    0.0000 Cl  0  0  0  0  0  0  0  0  0  0  0  0
    1.4289    2.4750    0.0000 H   0  0  0  0  0  0  0  0  0  0  0  0
  1  2  1  0  0  0  0
  2  3  4  0  0  0  0
  3  4  1  0  0  0  0
  3  5  4  0  0  0  0
  5  6  1  0  0  0  0
  5  7  4  0  0  0  0
  7  8  1  0  0  0  0
  7  9  4  0  0  0  0
  9 10  1  0  0  0  0
  9 11  4  0  0  0  0
  2 11  4  0  0  0  0
 11 12  1  0  0  0  0
  1 13  1  0  0  0  0
M  END
>  <InChIKey>
InChI=1S/C6HCl5O/c7-1-2(8)4(10)6(12)5(11)3(1)9/h12H

>  <CASRN>
87-86-5

> <Outcome>
1

>  <Index>
1837

>  <StandardizerResult>
Dearomatize (ID: Dearomatize)
Clear Stereo (ID: ClearStereo)
Wedge Clean (ID: WedgeClean)
Mesomerize (ID: Mesomerize)
Tautomerize (ID: Tautomerize)
Aromatize (ID: Aromatize)
Add Explicit Hydrogens (ID: AddExplicitH)
Neutralize (ID: Neutralize)
Clean 2D (ID: Clean2D)

> <knn Distance>


> <CpId>
1837

$$$$
1838
  Mrv1532301301811342D          

 60 59  0  0  0  0            999 V2000
    4.1641   -3.2574    0.0000 C   0  0  0  0  0  0  0  0  0  0  0  0
    4.8786   -2.8449    0.0000 C   0  0  0  0  0  0  0  0  0  0  0  0
    5.5931   -3.2574    0.0000 C   0  0  0  0  0  0  0  0  0  0  0  0
    6.3075   -2.8449    0.0000 C   0  0  0  0  0  0  0  0  0  0  0  0
    7.0220   -3.2574    0.0000 C   0  0  0  0  0  0  0  0  0  0  0  0
    7.7365   -2.8449    0.0000 C   0  0  0  0  0  0  0  0  0  0  0  0
    8.4510   -3.2574    0.0000 C   0  0  0  0  0  0  0  0  0  0  0  0
    9.1654   -2.8449    0.0000 C   0  0  0  0  0  0  0  0  0  0  0  0
    9.8799   -3.2574    0.0000 C   0  0  0  0  0  0  0  0  0  0  0  0
   10.5944   -2.8449    0.0000 C   0  0  0  0  0  0  0  0  0  0  0  0
   11.3088   -3.2574    0.0000 C   0  0  0  0  0  0  0  0  0  0  0  0
   12.0233   -2.8449    0.0000 C   0  0  0  0  0  0  0  0  0  0  0  0
   12.7378   -3.2574    0.0000 N   0  3  0  0  0  0  0  0  0  0  0  0
   12.3253   -3.9719    0.0000 C   0  0  0  0  0  0  0  0  0  0  0  0
   13.1503   -2.5430    0.0000 C   0  0  0  0  0  0  0  0  0  0  0  0
   13.4522   -3.6699    0.0000 C   0  0  0  0  0  0  0  0  0  0  0  0
   14.1667   -3.2574    0.0000 C   0  0  0  0  0  0  0  0  0  0  0  0
   14.8812   -3.6699    0.0000 C   0  0  0  0  0  0  0  0  0  0  0  0
   15.5957   -3.2574    0.0000 S   0  0  0  0  0  0  0  0  0  0  0  0
   16.3101   -2.8449    0.0000 O   0  0  0  0  0  0  0  0  0  0  0  0
   16.0082   -3.9719    0.0000 O   0  0  0  0  0  0  0  0  0  0  0  0
   15.1832   -2.5430    0.0000 O   0  0  0  0  0  0  0  0  0  0  0  0
    3.7516   -2.5430    0.0000 H   0  0  0  0  0  0  0  0  0  0  0  0
    3.4497   -3.6699    0.0000 H   0  0  0  0  0  0  0  0  0  0  0  0
    4.5766   -3.9719    0.0000 H   0  0  0  0  0  0  0  0  0  0  0  0
    5.2489   -2.1077    0.0000 H   0  0  0  0  0  0  0  0  0  0  0  0
    4.5083   -2.1077    0.0000 H   0  0  0  0  0  0  0  0  0  0  0  0
    5.2228   -3.9947    0.0000 H   0  0  0  0  0  0  0  0  0  0  0  0
    5.9633   -3.9947    0.0000 H   0  0  0  0  0  0  0  0  0  0  0  0
    6.6778   -2.1077    0.0000 H   0  0  0  0  0  0  0  0  0  0  0  0
    5.9373   -2.1077    0.0000 H   0  0  0  0  0  0  0  0  0  0  0  0
    6.6518   -3.9947    0.0000 H   0  0  0  0  0  0  0  0  0  0  0  0
    7.3923   -3.9947    0.0000 H   0  0  0  0  0  0  0  0  0  0  0  0
    8.1067   -2.1077    0.0000 H   0  0  0  0  0  0  0  0  0  0  0  0
    7.3662   -2.1077    0.0000 H   0  0  0  0  0  0  0  0  0  0  0  0
    8.0807   -3.9947    0.0000 H   0  0  0  0  0  0  0  0  0  0  0  0
    8.8212   -3.9947    0.0000 H   0  0  0  0  0  0  0  0  0  0  0  0
    9.5357   -2.1077    0.0000 H   0  0  0  0  0  0  0  0  0  0  0  0
    8.7952   -2.1077    0.0000 H   0  0  0  0  0  0  0  0  0  0  0  0
    9.5096   -3.9947    0.0000 H   0  0  0  0  0  0  0  0  0  0  0  0
   10.2502   -3.9947    0.0000 H   0  0  0  0  0  0  0  0  0  0  0  0
   10.9646   -2.1077    0.0000 H   0  0  0  0  0  0  0  0  0  0  0  0
   10.2241   -2.1077    0.0000 H   0  0  0  0  0  0  0  0  0  0  0  0
   10.9386   -3.9947    0.0000 H   0  0  0  0  0  0  0  0  0  0  0  0
   11.6791   -3.9947    0.0000 H   0  0  0  0  0  0  0  0  0  0  0  0
   12.3936   -2.1077    0.0000 H   0  0  0  0  0  0  0  0  0  0  0  0
   11.6530   -2.1077    0.0000 H   0  0  0  0  0  0  0  0  0  0  0  0
   11.9318   -4.6970    0.0000 H   0  0  0  0  0  0  0  0  0  0  0  0
   12.7503   -4.6790    0.0000 H   0  0  0  0  0  0  0  0  0  0  0  0
   13.1502   -3.9646    0.0000 H   0  0  0  0  0  0  0  0  0  0  0  0
   13.6528   -3.1973    0.0000 H   0  0  0  0  0  0  0  0  0  0  0  0
   13.9470   -2.3288    0.0000 H   0  0  0  0  0  0  0  0  0  0  0  0
   13.2570   -1.7249    0.0000 H   0  0  0  0  0  0  0  0  0  0  0  0
   13.5889   -4.4836    0.0000 H   0  0  0  0  0  0  0  0  0  0  0  0
   14.1985   -4.0216    0.0000 H   0  0  0  0  0  0  0  0  0  0  0  0
   14.9657   -3.0518    0.0000 H   0  0  0  0  0  0  0  0  0  0  0  0
   14.5932   -2.5512    0.0000 H   0  0  0  0  0  0  0  0  0  0  0  0
   15.0006   -4.4863    0.0000 H   0  0  0  0  0  0  0  0  0  0  0  0
   15.5032   -4.2119    0.0000 H   0  0  0  0  0  0  0  0  0  0  0  0
   17.0246   -3.2574    0.0000 H   0  0  0  0  0  0  0  0  0  0  0  0
  1  2  1  0  0  0  0
  2  3  1  0  0  0  0
  3  4  1  0  0  0  0
  4  5  1  0  0  0  0
  5  6  1  0  0  0  0
  6  7  1  0  0  0  0
  7  8  1  0  0  0  0
  8  9  1  0  0  0  0
  9 10  1  0  0  0  0
 10 11  1  0  0  0  0
 11 12  1  0  0  0  0
 12 13  1  0  0  0  0
 13 14  1  0  0  0  0
 13 15  1  0  0  0  0
 13 16  1  0  0  0  0
 16 17  1  0  0  0  0
 17 18  1  0  0  0  0
 18 19  1  0  0  0  0
 19 20  1  0  0  0  0
 19 21  2  0  0  0  0
 19 22  2  0  0  0  0
  1 23  1  0  0  0  0
  1 24  1  0  0  0  0
  1 25  1  0  0  0  0
  2 26  1  0  0  0  0
  2 27  1  0  0  0  0
  3 28  1  0  0  0  0
  3 29  1  0  0  0  0
  4 30  1  0  0  0  0
  4 31  1  0  0  0  0
  5 32  1  0  0  0  0
  5 33  1  0  0  0  0
  6 34  1  0  0  0  0
  6 35  1  0  0  0  0
  7 36  1  0  0  0  0
  7 37  1  0  0  0  0
  8 38  1  0  0  0  0
  8 39  1  0  0  0  0
  9 40  1  0  0  0  0
  9 41  1  0  0  0  0
 10 42  1  0  0  0  0
 10 43  1  0  0  0  0
 11 44  1  0  0  0  0
 11 45  1  0  0  0  0
 12 46  1  0  0  0  0
 12 47  1  0  0  0  0
 14 48  1  0  0  0  0
 14 49  1  0  0  0  0
 14 50  1  0  0  0  0
 15 51  1  0  0  0  0
 15 52  1  0  0  0  0
 15 53  1  0  0  0  0
 16 54  1  0  0  0  0
 16 55  1  0  0  0  0
 17 56  1  0  0  0  0
 17 57  1  0  0  0  0
 18 58  1  0  0  0  0
 18 59  1  0  0  0  0
 20 60  1  0  0  0  0
M  CHG  1  13   1
M  END
>  <InChIKey>
InChI=1S/C17H37NO3S/c1-4-5-6-7-8-9-10-11-12-13-15-18(2,3)16-14-17-22(19,20)21/h4-17H2,1-3H3/p+1

>  <UN GHS>
2A

>  <CASRN>
14933-08-5

> <Outcome>
1

>  <Index>
1838

>  <StandardizerResult>
Clear Stereo (ID: ClearStereo)
Wedge Clean (ID: WedgeClean)
Mesomerize (ID: Mesomerize)
Tautomerize (ID: Tautomerize)
Add Explicit Hydrogens (ID: AddExplicitH)
Clean 2D (ID: Clean2D)

> <knn Distance>


> <CpId>
1838

$$$$
1839
  Mrv1532301301811342D          

 34 33  0  0  0  0            999 V2000
    4.2355    3.2704    0.0000 C   0  0  0  0  0  0  0  0  0  0  0  0
    4.9500    2.8579    0.0000 C   0  0  0  0  0  0  0  0  0  0  0  0
    5.6645    3.2704    0.0000 C   0  0  0  0  0  0  0  0  0  0  0  0
    6.3789    2.8579    0.0000 C   0  0  0  0  0  0  0  0  0  0  0  0
    7.0934    3.2704    0.0000 C   0  0  0  0  0  0  0  0  0  0  0  0
    7.8079    2.8579    0.0000 N   0  0  0  0  0  0  0  0  0  0  0  0
    8.5224    3.2704    0.0000 C   0  0  0  0  0  0  0  0  0  0  0  0
    9.2368    2.8579    0.0000 C   0  0  0  0  0  0  0  0  0  0  0  0
    9.9513    3.2704    0.0000 C   0  0  0  0  0  0  0  0  0  0  0  0
   10.6658    2.8579    0.0000 C   0  0  0  0  0  0  0  0  0  0  0  0
   11.3802    3.2704    0.0000 C   0  0  0  0  0  0  0  0  0  0  0  0
    4.6480    3.9849    0.0000 H   0  0  0  0  0  0  0  0  0  0  0  0
    3.5211    3.6829    0.0000 H   0  0  0  0  0  0  0  0  0  0  0  0
    3.8230    2.5559    0.0000 H   0  0  0  0  0  0  0  0  0  0  0  0
    4.5797    2.1207    0.0000 H   0  0  0  0  0  0  0  0  0  0  0  0
    5.3203    2.1207    0.0000 H   0  0  0  0  0  0  0  0  0  0  0  0
    6.0347    4.0076    0.0000 H   0  0  0  0  0  0  0  0  0  0  0  0
    5.2942    4.0076    0.0000 H   0  0  0  0  0  0  0  0  0  0  0  0
    6.0087    2.1207    0.0000 H   0  0  0  0  0  0  0  0  0  0  0  0
    6.7492    2.1207    0.0000 H   0  0  0  0  0  0  0  0  0  0  0  0
    7.4637    4.0076    0.0000 H   0  0  0  0  0  0  0  0  0  0  0  0
    6.7231    4.0076    0.0000 H   0  0  0  0  0  0  0  0  0  0  0  0
    7.8079    2.0329    0.0000 H   0  0  0  0  0  0  0  0  0  0  0  0
    8.8926    4.0076    0.0000 H   0  0  0  0  0  0  0  0  0  0  0  0
    8.1521    4.0076    0.0000 H   0  0  0  0  0  0  0  0  0  0  0  0
    8.8666    2.1207    0.0000 H   0  0  0  0  0  0  0  0  0  0  0  0
    9.6071    2.1207    0.0000 H   0  0  0  0  0  0  0  0  0  0  0  0
   10.3216    4.0076    0.0000 H   0  0  0  0  0  0  0  0  0  0  0  0
    9.5810    4.0076    0.0000 H   0  0  0  0  0  0  0  0  0  0  0  0
   10.2955    2.1207    0.0000 H   0  0  0  0  0  0  0  0  0  0  0  0
   11.0360    2.1207    0.0000 H   0  0  0  0  0  0  0  0  0  0  0  0
   11.7927    2.5559    0.0000 H   0  0  0  0  0  0  0  0  0  0  0  0
   12.0947    3.6829    0.0000 H   0  0  0  0  0  0  0  0  0  0  0  0
   10.9677    3.9849    0.0000 H   0  0  0  0  0  0  0  0  0  0  0  0
  1  2  1  0  0  0  0
  2  3  1  0  0  0  0
  3  4  1  0  0  0  0
  4  5  1  0  0  0  0
  5  6  1  0  0  0  0
  6  7  1  0  0  0  0
  7  8  1  0  0  0  0
  8  9  1  0  0  0  0
  9 10  1  0  0  0  0
 10 11  1  0  0  0  0
  1 12  1  0  0  0  0
  1 13  1  0  0  0  0
  1 14  1  0  0  0  0
  2 15  1  0  0  0  0
  2 16  1  0  0  0  0
  3 17  1  0  0  0  0
  3 18  1  0  0  0  0
  4 19  1  0  0  0  0
  4 20  1  0  0  0  0
  5 21  1  0  0  0  0
  5 22  1  0  0  0  0
  6 23  1  0  0  0  0
  7 24  1  0  0  0  0
  7 25  1  0  0  0  0
  8 26  1  0  0  0  0
  8 27  1  0  0  0  0
  9 28  1  0  0  0  0
  9 29  1  0  0  0  0
 10 30  1  0  0  0  0
 10 31  1  0  0  0  0
 11 32  1  0  0  0  0
 11 33  1  0  0  0  0
 11 34  1  0  0  0  0
M  END
>  <InChIKey>
InChI=1S/C10H23N/c1-3-5-7-9-11-10-8-6-4-2/h11H,3-10H2,1-2H3

>  <CASRN>
2050-92-2

> <Outcome>
1

>  <Index>
1839

>  <StandardizerResult>
Clear Stereo (ID: ClearStereo)
Wedge Clean (ID: WedgeClean)
Mesomerize (ID: Mesomerize)
Tautomerize (ID: Tautomerize)
Add Explicit Hydrogens (ID: AddExplicitH)
Neutralize (ID: Neutralize)
Clean 2D (ID: Clean2D)

> <knn Distance>


> <CpId>
1839

$$$$
1841
  Mrv1532301301811342D          

 19 18  0  0  0  0            999 V2000
    1.7605    1.8414    0.0000 C   0  0  0  0  0  0  0  0  0  0  0  0
    2.4750    1.4289    0.0000 C   0  0  0  0  0  0  0  0  0  0  0  0
    3.1895    1.8414    0.0000 C   0  0  0  0  0  0  0  0  0  0  0  0
    3.9039    1.4289    0.0000 C   0  0  0  0  0  0  0  0  0  0  0  0
    4.6184    1.8414    0.0000 C   0  0  0  0  0  0  0  0  0  0  0  0
    5.3329    1.4289    0.0000 C   0  0  0  0  0  0  0  0  0  0  0  0
    6.0473    1.8414    0.0000 O   0  0  0  0  0  0  0  0  0  0  0  0
    2.1730    2.5559    0.0000 H   0  0  0  0  0  0  0  0  0  0  0  0
    1.0461    2.2539    0.0000 H   0  0  0  0  0  0  0  0  0  0  0  0
    1.3480    1.1269    0.0000 H   0  0  0  0  0  0  0  0  0  0  0  0
    2.1047    0.6917    0.0000 H   0  0  0  0  0  0  0  0  0  0  0  0
    2.8453    0.6917    0.0000 H   0  0  0  0  0  0  0  0  0  0  0  0
    3.5597    2.5786    0.0000 H   0  0  0  0  0  0  0  0  0  0  0  0
    2.8192    2.5786    0.0000 H   0  0  0  0  0  0  0  0  0  0  0  0
    3.5337    0.6917    0.0000 H   0  0  0  0  0  0  0  0  0  0  0  0
    4.2742    0.6917    0.0000 H   0  0  0  0  0  0  0  0  0  0  0  0
    4.9887    2.5786    0.0000 H   0  0  0  0  0  0  0  0  0  0  0  0
    4.2481    2.5786    0.0000 H   0  0  0  0  0  0  0  0  0  0  0  0
    5.3329    0.6039    0.0000 H   0  0  0  0  0  0  0  0  0  0  0  0
  1  2  1  0  0  0  0
  2  3  1  0  0  0  0
  3  4  1  0  0  0  0
  4  5  1  0  0  0  0
  5  6  1  0  0  0  0
  6  7  2  0  0  0  0
  1  8  1  0  0  0  0
  1  9  1  0  0  0  0
  1 10  1  0  0  0  0
  2 11  1  0  0  0  0
  2 12  1  0  0  0  0
  3 13  1  0  0  0  0
  3 14  1  0  0  0  0
  4 15  1  0  0  0  0
  4 16  1  0  0  0  0
  5 17  1  0  0  0  0
  5 18  1  0  0  0  0
  6 19  1  0  0  0  0
M  END
>  <InChIKey>
InChI=1S/C6H12O/c1-2-3-4-5-6-7/h6H,2-5H2,1H3

>  <CASRN>
66-25-1

> <Outcome>
1

>  <Index>
1841

>  <StandardizerResult>
Clear Stereo (ID: ClearStereo)
Wedge Clean (ID: WedgeClean)
Mesomerize (ID: Mesomerize)
Tautomerize (ID: Tautomerize)
Add Explicit Hydrogens (ID: AddExplicitH)
Neutralize (ID: Neutralize)
Clean 2D (ID: Clean2D)

> <knn Distance>


> <CpId>
1841

$$$$
1843
  Mrv1532301301811342D          

 24 26  0  0  0  0            999 V2000
    1.5983   -3.3875    0.0000 N   0  0  0  0  0  0  0  0  0  0  0  0
    1.8532   -2.6029    0.0000 C   0  0  0  0  0  0  0  0  0  0  0  0
    1.3683   -1.9354    0.0000 N   0  0  0  0  0  0  0  0  0  0  0  0
    1.8532   -1.2680    0.0000 C   0  0  0  0  0  0  0  0  0  0  0  0
    1.5983   -0.4834    0.0000 N   0  0  0  0  0  0  0  0  0  0  0  0
    2.6378   -1.5229    0.0000 C   0  0  0  0  0  0  0  0  0  0  0  0
    3.3523   -1.1104    0.0000 C   0  0  0  0  0  0  0  0  0  0  0  0
    4.0668   -1.5229    0.0000 C   0  0  0  0  0  0  0  0  0  0  0  0
    4.7812   -1.1104    0.0000 C   0  0  0  0  0  0  0  0  0  0  0  0
    5.4957   -1.5229    0.0000 C   0  0  0  0  0  0  0  0  0  0  0  0
    5.4957   -2.3479    0.0000 C   0  0  0  0  0  0  0  0  0  0  0  0
    4.7812   -2.7604    0.0000 C   0  0  0  0  0  0  0  0  0  0  0  0
    4.0668   -2.3479    0.0000 C   0  0  0  0  0  0  0  0  0  0  0  0
    3.3523   -2.7604    0.0000 C   0  0  0  0  0  0  0  0  0  0  0  0
    2.6378   -2.3479    0.0000 C   0  0  0  0  0  0  0  0  0  0  0  0
    0.7913   -3.5590    0.0000 H   0  0  0  0  0  0  0  0  0  0  0  0
    0.5433   -1.9354    0.0000 H   0  0  0  0  0  0  0  0  0  0  0  0
    2.1503    0.1297    0.0000 H   0  0  0  0  0  0  0  0  0  0  0  0
    3.3523   -0.2854    0.0000 H   0  0  0  0  0  0  0  0  0  0  0  0
    4.7812   -0.2854    0.0000 H   0  0  0  0  0  0  0  0  0  0  0  0
    6.2102   -1.1104    0.0000 H   0  0  0  0  0  0  0  0  0  0  0  0
    6.2102   -2.7604    0.0000 H   0  0  0  0  0  0  0  0  0  0  0  0
    4.7812   -3.5854    0.0000 H   0  0  0  0  0  0  0  0  0  0  0  0
    3.3523   -3.5854    0.0000 H   0  0  0  0  0  0  0  0  0  0  0  0
  1  2  2  0  0  0  0
  2  3  1  0  0  0  0
  3  4  1  0  0  0  0
  4  5  2  0  0  0  0
  4  6  1  0  0  0  0
  6  7  4  0  0  0  0
  7  8  4  0  0  0  0
  8  9  4  0  0  0  0
  9 10  4  0  0  0  0
 10 11  4  0  0  0  0
 11 12  4  0  0  0  0
 12 13  4  0  0  0  0
  8 13  4  0  0  0  0
 13 14  4  0  0  0  0
 14 15  4  0  0  0  0
  2 15  1  0  0  0  0
  6 15  4  0  0  0  0
  1 16  1  0  0  0  0
  3 17  1  0  0  0  0
  5 18  1  0  0  0  0
  7 19  1  0  0  0  0
  9 20  1  0  0  0  0
 10 21  1  0  0  0  0
 11 22  1  0  0  0  0
 12 23  1  0  0  0  0
 14 24  1  0  0  0  0
M  END
>  <InChIKey>
InChI=1S/C12H9N3/c13-11-9-5-7-3-1-2-4-8(7)6-10(9)12(14)15-11/h1-6H,(H3,13,14,15)

>  <UN GHS>
1

>  <CASRN>
65558-69-2

> <Outcome>
1

>  <Index>
1843

>  <StandardizerResult>
Dearomatize (ID: Dearomatize)
Clear Stereo (ID: ClearStereo)
Wedge Clean (ID: WedgeClean)
Mesomerize (ID: Mesomerize)
Tautomerize (ID: Tautomerize)
Aromatize (ID: Aromatize)
Add Explicit Hydrogens (ID: AddExplicitH)
Neutralize (ID: Neutralize)
Clean 2D (ID: Clean2D)

> <knn Distance>


> <CpId>
1843

$$$$
1845
  Mrv1532301301811342D          

 25 25  0  0  0  0            999 V2000
    0.0536    2.5456    0.0000 C   0  0  0  0  0  0  0  0  0  0  0  0
    0.7681    2.1331    0.0000 O   0  0  0  0  0  0  0  0  0  0  0  0
    0.7681    1.3081    0.0000 C   0  0  0  0  0  0  0  0  0  0  0  0
    1.4825    0.8956    0.0000 C   0  0  0  0  0  0  0  0  0  0  0  0
    1.4825    0.0706    0.0000 C   0  0  0  0  0  0  0  0  0  0  0  0
    0.7681   -0.3419    0.0000 C   0  0  0  0  0  0  0  0  0  0  0  0
    0.7681   -1.1669    0.0000 C   0  0  0  0  0  0  0  0  0  0  0  0
    0.0536    0.0706    0.0000 C   0  0  0  0  0  0  0  0  0  0  0  0
    0.0536    0.8956    0.0000 C   0  0  0  0  0  0  0  0  0  0  0  0
   -0.6609    1.3081    0.0000 N   0  0  0  0  0  0  0  0  0  0  0  0
    2.1970   -0.3419    0.0000 S   0  0  0  0  0  0  0  0  0  0  0  0
    2.9115   -0.7544    0.0000 O   0  0  0  0  0  0  0  0  0  0  0  0
    1.7845   -1.0564    0.0000 O   0  0  0  0  0  0  0  0  0  0  0  0
    2.6095    0.3726    0.0000 O   0  0  0  0  0  0  0  0  0  0  0  0
    0.4661    3.2601    0.0000 H   0  0  0  0  0  0  0  0  0  0  0  0
   -0.6609    2.9581    0.0000 H   0  0  0  0  0  0  0  0  0  0  0  0
   -0.3589    1.8311    0.0000 H   0  0  0  0  0  0  0  0  0  0  0  0
    2.1970    1.3081    0.0000 H   0  0  0  0  0  0  0  0  0  0  0  0
   -0.0569   -1.1669    0.0000 H   0  0  0  0  0  0  0  0  0  0  0  0
    0.7681   -1.9919    0.0000 H   0  0  0  0  0  0  0  0  0  0  0  0
    1.5931   -1.1669    0.0000 H   0  0  0  0  0  0  0  0  0  0  0  0
   -0.6609   -0.3419    0.0000 H   0  0  0  0  0  0  0  0  0  0  0  0
   -1.4578    1.5216    0.0000 H   0  0  0  0  0  0  0  0  0  0  0  0
   -1.2442    0.7247    0.0000 H   0  0  0  0  0  0  0  0  0  0  0  0
    2.9115   -1.5794    0.0000 H   0  0  0  0  0  0  0  0  0  0  0  0
  1  2  1  0  0  0  0
  2  3  1  0  0  0  0
  3  4  4  0  0  0  0
  4  5  4  0  0  0  0
  5  6  4  0  0  0  0
  6  7  1  0  0  0  0
  6  8  4  0  0  0  0
  8  9  4  0  0  0  0
  3  9  4  0  0  0  0
  9 10  1  0  0  0  0
  5 11  1  0  0  0  0
 11 12  1  0  0  0  0
 11 13  2  0  0  0  0
 11 14  2  0  0  0  0
  1 15  1  0  0  0  0
  1 16  1  0  0  0  0
  1 17  1  0  0  0  0
  4 18  1  0  0  0  0
  7 19  1  0  0  0  0
  7 20  1  0  0  0  0
  7 21  1  0  0  0  0
  8 22  1  0  0  0  0
 10 23  1  0  0  0  0
 10 24  1  0  0  0  0
 12 25  1  0  0  0  0
M  END
>  <InChIKey>
InChI=1S/C8H11NO4S/c1-5-3-6(9)7(13-2)4-8(5)14(10,11)12/h3-4H,9H2,1-2H3,(H,10,11,12)

>  <UN GHS>
1

>  <CASRN>
6471-78-9

> <Outcome>
1

>  <Index>
1845

>  <StandardizerResult>
Dearomatize (ID: Dearomatize)
Clear Stereo (ID: ClearStereo)
Wedge Clean (ID: WedgeClean)
Mesomerize (ID: Mesomerize)
Tautomerize (ID: Tautomerize)
Aromatize (ID: Aromatize)
Add Explicit Hydrogens (ID: AddExplicitH)
Neutralize (ID: Neutralize)
Clean 2D (ID: Clean2D)

> <knn Distance>


> <CpId>
1845

$$$$
1847
  Mrv1532301301811342D          

 20 21  0  0  0  0            999 V2000
    0.0000   -1.6500    0.0000 N   0  0  0  0  0  0  0  0  0  0  0  0
    0.7145   -1.2375    0.0000 C   0  0  0  0  0  0  0  0  0  0  0  0
    0.7145   -0.4125    0.0000 C   0  0  0  0  0  0  0  0  0  0  0  0
    1.4289   -0.0000    0.0000 C   0  0  0  0  0  0  0  0  0  0  0  0
    2.1434   -0.4125    0.0000 C   0  0  0  0  0  0  0  0  0  0  0  0
    2.8579   -0.0000    0.0000 C   0  0  0  0  0  0  0  0  0  0  0  0
    3.5724   -0.4125    0.0000 C   0  0  0  0  0  0  0  0  0  0  0  0
    3.5724   -1.2375    0.0000 C   0  0  0  0  0  0  0  0  0  0  0  0
    2.8579   -1.6500    0.0000 C   0  0  0  0  0  0  0  0  0  0  0  0
    2.1434   -1.2375    0.0000 C   0  0  0  0  0  0  0  0  0  0  0  0
    1.4289   -1.6500    0.0000 C   0  0  0  0  0  0  0  0  0  0  0  0
   -0.7145   -1.2375    0.0000 H   0  0  0  0  0  0  0  0  0  0  0  0
    0.0000   -2.4750    0.0000 H   0  0  0  0  0  0  0  0  0  0  0  0
    0.0000   -0.0000    0.0000 H   0  0  0  0  0  0  0  0  0  0  0  0
    1.4289    0.8250    0.0000 H   0  0  0  0  0  0  0  0  0  0  0  0
    2.8579    0.8250    0.0000 H   0  0  0  0  0  0  0  0  0  0  0  0
    4.2868   -0.0000    0.0000 H   0  0  0  0  0  0  0  0  0  0  0  0
    4.2868   -1.6500    0.0000 H   0  0  0  0  0  0  0  0  0  0  0  0
    2.8579   -2.4750    0.0000 H   0  0  0  0  0  0  0  0  0  0  0  0
    1.4289   -2.4750    0.0000 H   0  0  0  0  0  0  0  0  0  0  0  0
  1  2  1  0  0  0  0
  2  3  4  0  0  0  0
  3  4  4  0  0  0  0
  4  5  4  0  0  0  0
  5  6  4  0  0  0  0
  6  7  4  0  0  0  0
  7  8  4  0  0  0  0
  8  9  4  0  0  0  0
  9 10  4  0  0  0  0
  5 10  4  0  0  0  0
 10 11  4  0  0  0  0
  2 11  4  0  0  0  0
  1 12  1  0  0  0  0
  1 13  1  0  0  0  0
  3 14  1  0  0  0  0
  4 15  1  0  0  0  0
  6 16  1  0  0  0  0
  7 17  1  0  0  0  0
  8 18  1  0  0  0  0
  9 19  1  0  0  0  0
 11 20  1  0  0  0  0
M  END
>  <InChIKey>
InChI=1S/C10H9N/c11-10-6-5-8-3-1-2-4-9(8)7-10/h1-7H,11H2

>  <CASRN>
91-59-8

> <Outcome>
1

>  <Index>
1847

>  <StandardizerResult>
Dearomatize (ID: Dearomatize)
Clear Stereo (ID: ClearStereo)
Wedge Clean (ID: WedgeClean)
Mesomerize (ID: Mesomerize)
Tautomerize (ID: Tautomerize)
Aromatize (ID: Aromatize)
Add Explicit Hydrogens (ID: AddExplicitH)
Neutralize (ID: Neutralize)
Clean 2D (ID: Clean2D)

> <knn Distance>


> <CpId>
1847

$$$$
1849
  Mrv1532301301811342D          

 19 19  0  0  0  0            999 V2000
    2.8025   -0.0850    0.0000 O   0  0  0  0  0  0  0  0  0  0  0  0
    1.9982    0.0986    0.0000 C   0  0  0  0  0  0  0  0  0  0  0  0
    1.4838   -0.5464    0.0000 C   0  0  0  0  0  0  0  0  0  0  0  0
    0.6588   -0.5464    0.0000 C   0  0  0  0  0  0  0  0  0  0  0  0
    0.1445    0.0986    0.0000 C   0  0  0  0  0  0  0  0  0  0  0  0
    0.3280    0.9029    0.0000 C   0  0  0  0  0  0  0  0  0  0  0  0
    1.0713    1.2609    0.0000 C   0  0  0  0  0  0  0  0  0  0  0  0
    1.8146    0.9029    0.0000 N   0  0  0  0  0  0  0  0  0  0  0  0
    1.4838   -1.3714    0.0000 H   0  0  0  0  0  0  0  0  0  0  0  0
    2.1288   -1.0608    0.0000 H   0  0  0  0  0  0  0  0  0  0  0  0
    0.0138   -1.0608    0.0000 H   0  0  0  0  0  0  0  0  0  0  0  0
    0.6588   -1.3714    0.0000 H   0  0  0  0  0  0  0  0  0  0  0  0
   -0.6599    0.2822    0.0000 H   0  0  0  0  0  0  0  0  0  0  0  0
   -0.5006   -0.4158    0.0000 H   0  0  0  0  0  0  0  0  0  0  0  0
   -0.0299    1.6462    0.0000 H   0  0  0  0  0  0  0  0  0  0  0  0
   -0.4763    1.0865    0.0000 H   0  0  0  0  0  0  0  0  0  0  0  0
    1.4293    2.0042    0.0000 H   0  0  0  0  0  0  0  0  0  0  0  0
    0.7134    2.0042    0.0000 H   0  0  0  0  0  0  0  0  0  0  0  0
    2.4596    1.4173    0.0000 H   0  0  0  0  0  0  0  0  0  0  0  0
  1  2  2  0  0  0  0
  2  3  1  0  0  0  0
  3  4  1  0  0  0  0
  4  5  1  0  0  0  0
  5  6  1  0  0  0  0
  6  7  1  0  0  0  0
  7  8  1  0  0  0  0
  2  8  1  0  0  0  0
  3  9  1  0  0  0  0
  3 10  1  0  0  0  0
  4 11  1  0  0  0  0
  4 12  1  0  0  0  0
  5 13  1  0  0  0  0
  5 14  1  0  0  0  0
  6 15  1  0  0  0  0
  6 16  1  0  0  0  0
  7 17  1  0  0  0  0
  7 18  1  0  0  0  0
  8 19  1  0  0  0  0
M  END
>  <InChIKey>
InChI=1S/C6H11NO/c8-6-4-2-1-3-5-7-6/h1-5H2,(H,7,8)

>  <CASRN>
105-60-2

> <Outcome>
1

>  <Index>
1849

>  <StandardizerResult>
Clear Stereo (ID: ClearStereo)
Wedge Clean (ID: WedgeClean)
Mesomerize (ID: Mesomerize)
Tautomerize (ID: Tautomerize)
Add Explicit Hydrogens (ID: AddExplicitH)
Neutralize (ID: Neutralize)
Clean 2D (ID: Clean2D)

> <knn Distance>


> <CpId>
1849

$$$$
1850
  Mrv1532301301811342D          

 14 14  0  0  0  0            999 V2000
   -0.0000    2.4750    0.0000 Cl  0  0  0  0  0  0  0  0  0  0  0  0
    0.7145    2.0625    0.0000 C   0  0  0  0  0  0  0  0  0  0  0  0
    1.4289    2.4750    0.0000 O   0  0  0  0  0  0  0  0  0  0  0  0
    0.7145    1.2375    0.0000 C   0  0  0  0  0  0  0  0  0  0  0  0
    1.4289    0.8250    0.0000 C   0  0  0  0  0  0  0  0  0  0  0  0
    2.1434    1.2375    0.0000 Cl  0  0  0  0  0  0  0  0  0  0  0  0
    1.4289    0.0000    0.0000 C   0  0  0  0  0  0  0  0  0  0  0  0
    0.7145   -0.4125    0.0000 C   0  0  0  0  0  0  0  0  0  0  0  0
   -0.0000    0.0000    0.0000 C   0  0  0  0  0  0  0  0  0  0  0  0
   -0.0000    0.8250    0.0000 C   0  0  0  0  0  0  0  0  0  0  0  0
   -0.7145    1.2375    0.0000 Cl  0  0  0  0  0  0  0  0  0  0  0  0
    2.1434   -0.4125    0.0000 H   0  0  0  0  0  0  0  0  0  0  0  0
    0.7145   -1.2375    0.0000 H   0  0  0  0  0  0  0  0  0  0  0  0
   -0.7145   -0.4125    0.0000 H   0  0  0  0  0  0  0  0  0  0  0  0
  1  2  1  0  0  0  0
  2  3  2  0  0  0  0
  2  4  1  0  0  0  0
  4  5  4  0  0  0  0
  5  6  1  0  0  0  0
  5  7  4  0  0  0  0
  7  8  4  0  0  0  0
  8  9  4  0  0  0  0
  9 10  4  0  0  0  0
  4 10  4  0  0  0  0
 10 11  1  0  0  0  0
  7 12  1  0  0  0  0
  8 13  1  0  0  0  0
  9 14  1  0  0  0  0
M  END
>  <InChIKey>
InChI=1S/C7H3Cl3O/c8-4-2-1-3-5(9)6(4)7(10)11/h1-3H

>  <UN GHS>
2A

>  <CASRN>
4659-45-4  4659-45-4

> <Outcome>
1

>  <Index>
1850

>  <StandardizerResult>
Dearomatize (ID: Dearomatize)
Clear Stereo (ID: ClearStereo)
Wedge Clean (ID: WedgeClean)
Mesomerize (ID: Mesomerize)
Tautomerize (ID: Tautomerize)
Aromatize (ID: Aromatize)
Add Explicit Hydrogens (ID: AddExplicitH)
Neutralize (ID: Neutralize)
Clean 2D (ID: Clean2D)

> <knn Distance>


> <CpId>
1850

$$$$
1852
  Mrv1532301301811342D          

 35 37  0  0  0  0            999 V2000
    1.5658    0.4381    0.0000 Cl  0  0  0  0  0  0  0  0  0  0  0  0
    2.3908    0.4381    0.0000 C   0  0  0  0  0  0  0  0  0  0  0  0
    2.3908   -0.3869    0.0000 C   0  0  0  0  0  0  0  0  0  0  0  0
    3.1053   -0.7994    0.0000 C   0  0  0  0  0  0  0  0  0  0  0  0
    3.1053   -1.6244    0.0000 C   0  0  0  0  0  0  0  0  0  0  0  0
    2.3908   -2.0369    0.0000 C   0  0  0  0  0  0  0  0  0  0  0  0
    1.6763   -1.6244    0.0000 C   0  0  0  0  0  0  0  0  0  0  0  0
    1.6763   -0.7994    0.0000 C   0  0  0  0  0  0  0  0  0  0  0  0
    2.3908    1.2631    0.0000 C   0  0  0  0  0  0  0  0  0  0  0  0
    1.6763    1.6756    0.0000 C   0  0  0  0  0  0  0  0  0  0  0  0
    1.6763    2.5006    0.0000 C   0  0  0  0  0  0  0  0  0  0  0  0
    2.3908    2.9131    0.0000 C   0  0  0  0  0  0  0  0  0  0  0  0
    3.1053    2.5006    0.0000 C   0  0  0  0  0  0  0  0  0  0  0  0
    3.1053    1.6756    0.0000 C   0  0  0  0  0  0  0  0  0  0  0  0
    3.2158    0.4381    0.0000 C   0  0  0  0  0  0  0  0  0  0  0  0
    3.6283    1.1525    0.0000 C   0  0  0  0  0  0  0  0  0  0  0  0
    4.4533    1.1525    0.0000 C   0  0  0  0  0  0  0  0  0  0  0  0
    4.8658    0.4381    0.0000 C   0  0  0  0  0  0  0  0  0  0  0  0
    4.4533   -0.2764    0.0000 C   0  0  0  0  0  0  0  0  0  0  0  0
    3.6283   -0.2764    0.0000 C   0  0  0  0  0  0  0  0  0  0  0  0
    3.8675   -1.1151    0.0000 H   0  0  0  0  0  0  0  0  0  0  0  0
    3.5409   -2.3250    0.0000 H   0  0  0  0  0  0  0  0  0  0  0  0
    2.3908   -2.8619    0.0000 H   0  0  0  0  0  0  0  0  0  0  0  0
    0.9618   -2.0369    0.0000 H   0  0  0  0  0  0  0  0  0  0  0  0
    0.9618   -0.3869    0.0000 H   0  0  0  0  0  0  0  0  0  0  0  0
    0.9618    1.2631    0.0000 H   0  0  0  0  0  0  0  0  0  0  0  0
    0.9618    2.9131    0.0000 H   0  0  0  0  0  0  0  0  0  0  0  0
    2.3908    3.7381    0.0000 H   0  0  0  0  0  0  0  0  0  0  0  0
    3.8197    2.9131    0.0000 H   0  0  0  0  0  0  0  0  0  0  0  0
    3.8675    1.9913    0.0000 H   0  0  0  0  0  0  0  0  0  0  0  0
    4.0408    0.4381    0.0000 H   0  0  0  0  0  0  0  0  0  0  0  0
    4.8658    1.8670    0.0000 H   0  0  0  0  0  0  0  0  0  0  0  0
    5.6908    0.4381    0.0000 H   0  0  0  0  0  0  0  0  0  0  0  0
    4.8658   -0.9909    0.0000 H   0  0  0  0  0  0  0  0  0  0  0  0
    2.8103   -0.1687    0.0000 H   0  0  0  0  0  0  0  0  0  0  0  0
  1  2  1  0  0  0  0
  2  3  1  0  0  0  0
  3  4  4  0  0  0  0
  4  5  4  0  0  0  0
  5  6  4  0  0  0  0
  6  7  4  0  0  0  0
  7  8  4  0  0  0  0
  3  8  4  0  0  0  0
  2  9  1  0  0  0  0
  9 10  4  0  0  0  0
 10 11  4  0  0  0  0
 11 12  4  0  0  0  0
 12 13  4  0  0  0  0
 13 14  4  0  0  0  0
  9 14  4  0  0  0  0
  2 15  1  0  0  0  0
 15 16  4  0  0  0  0
 16 17  4  0  0  0  0
 17 18  4  0  0  0  0
 18 19  4  0  0  0  0
 19 20  4  0  0  0  0
 15 20  4  0  0  0  0
  4 21  1  0  0  0  0
  5 22  1  0  0  0  0
  6 23  1  0  0  0  0
  7 24  1  0  0  0  0
  8 25  1  0  0  0  0
 10 26  1  0  0  0  0
 11 27  1  0  0  0  0
 12 28  1  0  0  0  0
 13 29  1  0  0  0  0
 14 30  1  0  0  0  0
 16 31  1  0  0  0  0
 17 32  1  0  0  0  0
 18 33  1  0  0  0  0
 19 34  1  0  0  0  0
 20 35  1  0  0  0  0
M  END
>  <InChIKey>
InChI=1S/C19H15Cl/c20-19(16-10-4-1-5-11-16,17-12-6-2-7-13-17)18-14-8-3-9-15-18/h1-15H

>  <CASRN>
76-83-5

> <Outcome>
1

>  <Index>
1852

>  <StandardizerResult>
Dearomatize (ID: Dearomatize)
Clear Stereo (ID: ClearStereo)
Wedge Clean (ID: WedgeClean)
Mesomerize (ID: Mesomerize)
Tautomerize (ID: Tautomerize)
Aromatize (ID: Aromatize)
Add Explicit Hydrogens (ID: AddExplicitH)
Neutralize (ID: Neutralize)
Clean 2D (ID: Clean2D)

> <knn Distance>


> <CpId>
1852

$$$$
1857
  Mrv1532301301811342D          

 32 33  0  0  0  0            999 V2000
    0.7145   -1.2375    0.0000 C   0  0  0  0  0  0  0  0  0  0  0  0
    1.4289   -1.6500    0.0000 N   0  0  0  0  0  0  0  0  0  0  0  0
    2.1434   -1.2375    0.0000 C   0  0  0  0  0  0  0  0  0  0  0  0
    1.4289   -2.4750    0.0000 C   0  0  0  0  0  0  0  0  0  0  0  0
    2.1434   -2.8875    0.0000 C   0  0  0  0  0  0  0  0  0  0  0  0
    2.1434   -3.7125    0.0000 C   0  0  0  0  0  0  0  0  0  0  0  0
    1.4289   -4.1250    0.0000 C   0  0  0  0  0  0  0  0  0  0  0  0
    0.7145   -3.7125    0.0000 C   0  0  0  0  0  0  0  0  0  0  0  0
    0.7145   -2.8875    0.0000 C   0  0  0  0  0  0  0  0  0  0  0  0
    1.4289   -4.9500    0.0000 N   0  0  0  0  0  0  0  0  0  0  0  0
    2.1434   -5.3625    0.0000 N   0  0  0  0  0  0  0  0  0  0  0  0
    2.1434   -6.1875    0.0000 C   0  0  0  0  0  0  0  0  0  0  0  0
    2.8579   -6.6000    0.0000 C   0  0  0  0  0  0  0  0  0  0  0  0
    2.8579   -7.4250    0.0000 C   0  0  0  0  0  0  0  0  0  0  0  0
    2.1434   -7.8375    0.0000 C   0  0  0  0  0  0  0  0  0  0  0  0
    1.4289   -7.4250    0.0000 C   0  0  0  0  0  0  0  0  0  0  0  0
    1.4289   -6.6000    0.0000 C   0  0  0  0  0  0  0  0  0  0  0  0
    1.1270   -0.5230    0.0000 H   0  0  0  0  0  0  0  0  0  0  0  0
   -0.0000   -0.8250    0.0000 H   0  0  0  0  0  0  0  0  0  0  0  0
    0.3020   -1.9520    0.0000 H   0  0  0  0  0  0  0  0  0  0  0  0
    2.5559   -1.9520    0.0000 H   0  0  0  0  0  0  0  0  0  0  0  0
    2.8579   -0.8250    0.0000 H   0  0  0  0  0  0  0  0  0  0  0  0
    1.7309   -0.5230    0.0000 H   0  0  0  0  0  0  0  0  0  0  0  0
    2.8579   -2.4750    0.0000 H   0  0  0  0  0  0  0  0  0  0  0  0
    2.8579   -4.1250    0.0000 H   0  0  0  0  0  0  0  0  0  0  0  0
   -0.0000   -4.1250    0.0000 H   0  0  0  0  0  0  0  0  0  0  0  0
   -0.0000   -2.4750    0.0000 H   0  0  0  0  0  0  0  0  0  0  0  0
    3.5723   -6.1875    0.0000 H   0  0  0  0  0  0  0  0  0  0  0  0
    3.5723   -7.8375    0.0000 H   0  0  0  0  0  0  0  0  0  0  0  0
    2.1434   -8.6625    0.0000 H   0  0  0  0  0  0  0  0  0  0  0  0
    0.7145   -7.8375    0.0000 H   0  0  0  0  0  0  0  0  0  0  0  0
    0.7145   -6.1875    0.0000 H   0  0  0  0  0  0  0  0  0  0  0  0
  1  2  1  0  0  0  0
  2  3  1  0  0  0  0
  2  4  1  0  0  0  0
  4  5  4  0  0  0  0
  5  6  4  0  0  0  0
  6  7  4  0  0  0  0
  7  8  4  0  0  0  0
  8  9  4  0  0  0  0
  4  9  4  0  0  0  0
 10  7  1  4  0  0  0
 10 11  2  0  0  0  0
 11 12  1  0  0  0  0
 12 13  4  0  0  0  0
 13 14  4  0  0  0  0
 14 15  4  0  0  0  0
 15 16  4  0  0  0  0
 16 17  4  0  0  0  0
 12 17  4  0  0  0  0
  1 18  1  0  0  0  0
  1 19  1  0  0  0  0
  1 20  1  0  0  0  0
  3 21  1  0  0  0  0
  3 22  1  0  0  0  0
  3 23  1  0  0  0  0
  5 24  1  0  0  0  0
  6 25  1  0  0  0  0
  8 26  1  0  0  0  0
  9 27  1  0  0  0  0
 13 28  1  0  0  0  0
 14 29  1  0  0  0  0
 15 30  1  0  0  0  0
 16 31  1  0  0  0  0
 17 32  1  0  0  0  0
M  END
>  <InChIKey>
InChI=1S/C14H15N3/c1-17(2)14-10-8-13(9-11-14)16-15-12-6-4-3-5-7-12/h3-11H,1-2H3

>  <CASRN>
60-11-7

> <Outcome>
1

>  <Index>
1857

>  <StandardizerResult>
Dearomatize (ID: Dearomatize)
Clear Stereo (ID: ClearStereo)
Wedge Clean (ID: WedgeClean)
Mesomerize (ID: Mesomerize)
Tautomerize (ID: Tautomerize)
Aromatize (ID: Aromatize)
Add Explicit Hydrogens (ID: AddExplicitH)
Neutralize (ID: Neutralize)
Clean 2D (ID: Clean2D)

> <knn Distance>


> <CpId>
1857

$$$$
1861
  Mrv1532301301811342D          

 13 13  0  0  0  0            999 V2000
    0.7145    2.8875    0.0000 N   0  0  0  0  0  0  0  0  0  0  0  0
    0.7145    2.0625    0.0000 C   0  0  0  0  0  0  0  0  0  0  0  0
    0.7145    1.2375    0.0000 C   0  0  0  0  0  0  0  0  0  0  0  0
    1.4289    0.8250    0.0000 C   0  0  0  0  0  0  0  0  0  0  0  0
    1.4289    0.0000    0.0000 C   0  0  0  0  0  0  0  0  0  0  0  0
    0.7145   -0.4125    0.0000 C   0  0  0  0  0  0  0  0  0  0  0  0
    0.0000    0.0000    0.0000 C   0  0  0  0  0  0  0  0  0  0  0  0
    0.0000    0.8250    0.0000 C   0  0  0  0  0  0  0  0  0  0  0  0
    2.1434    1.2375    0.0000 H   0  0  0  0  0  0  0  0  0  0  0  0
    2.1434   -0.4125    0.0000 H   0  0  0  0  0  0  0  0  0  0  0  0
    0.7145   -1.2375    0.0000 H   0  0  0  0  0  0  0  0  0  0  0  0
   -0.7145   -0.4125    0.0000 H   0  0  0  0  0  0  0  0  0  0  0  0
   -0.7145    1.2375    0.0000 H   0  0  0  0  0  0  0  0  0  0  0  0
  1  2  3  0  0  0  0
  2  3  1  0  0  0  0
  3  4  4  0  0  0  0
  4  5  4  0  0  0  0
  5  6  4  0  0  0  0
  6  7  4  0  0  0  0
  7  8  4  0  0  0  0
  3  8  4  0  0  0  0
  4  9  1  0  0  0  0
  5 10  1  0  0  0  0
  6 11  1  0  0  0  0
  7 12  1  0  0  0  0
  8 13  1  0  0  0  0
M  END
>  <InChIKey>
InChI=1S/C7H5N/c8-6-7-4-2-1-3-5-7/h1-5H

>  <CASRN>
100-47-0

> <Outcome>
1

>  <Index>
1861

>  <StandardizerResult>
Dearomatize (ID: Dearomatize)
Clear Stereo (ID: ClearStereo)
Wedge Clean (ID: WedgeClean)
Mesomerize (ID: Mesomerize)
Tautomerize (ID: Tautomerize)
Aromatize (ID: Aromatize)
Add Explicit Hydrogens (ID: AddExplicitH)
Neutralize (ID: Neutralize)
Clean 2D (ID: Clean2D)

> <knn Distance>


> <CpId>
1861

$$$$
1868
  Mrv1532301301811342D          

 29 28  0  0  0  0            999 V2000
    2.2836    2.1434    0.0000 C   0  0  0  0  0  0  0  0  0  0  0  0
    2.9980    2.5559    0.0000 C   0  0  0  0  0  0  0  0  0  0  0  0
    3.7125    2.1434    0.0000 C   0  0  0  0  0  0  0  0  0  0  0  0
    4.4270    2.5559    0.0000 C   0  0  0  0  0  0  0  0  0  0  0  0
    5.1414    2.1434    0.0000 C   0  0  0  0  0  0  0  0  0  0  0  0
    5.8559    2.5559    0.0000 C   0  0  0  0  0  0  0  0  0  0  0  0
    6.5704    2.1434    0.0000 C   0  0  0  0  0  0  0  0  0  0  0  0
    7.2849    2.5559    0.0000 C   0  0  0  0  0  0  0  0  0  0  0  0
    7.2849    3.3809    0.0000 O   0  0  0  0  0  0  0  0  0  0  0  0
    7.9993    2.1434    0.0000 O   0  0  0  0  0  0  0  0  0  0  0  0
    8.7138    2.5559    0.0000 C   0  0  0  0  0  0  0  0  0  0  0  0
    1.8711    2.8579    0.0000 H   0  0  0  0  0  0  0  0  0  0  0  0
    1.5691    1.7309    0.0000 H   0  0  0  0  0  0  0  0  0  0  0  0
    2.6961    1.4289    0.0000 H   0  0  0  0  0  0  0  0  0  0  0  0
    3.3683    3.2931    0.0000 H   0  0  0  0  0  0  0  0  0  0  0  0
    2.6278    3.2931    0.0000 H   0  0  0  0  0  0  0  0  0  0  0  0
    3.3422    1.4062    0.0000 H   0  0  0  0  0  0  0  0  0  0  0  0
    4.0828    1.4062    0.0000 H   0  0  0  0  0  0  0  0  0  0  0  0
    4.7972    3.2931    0.0000 H   0  0  0  0  0  0  0  0  0  0  0  0
    4.0567    3.2931    0.0000 H   0  0  0  0  0  0  0  0  0  0  0  0
    4.7712    1.4062    0.0000 H   0  0  0  0  0  0  0  0  0  0  0  0
    5.5117    1.4062    0.0000 H   0  0  0  0  0  0  0  0  0  0  0  0
    6.2262    3.2931    0.0000 H   0  0  0  0  0  0  0  0  0  0  0  0
    5.4857    3.2931    0.0000 H   0  0  0  0  0  0  0  0  0  0  0  0
    6.2001    1.4062    0.0000 H   0  0  0  0  0  0  0  0  0  0  0  0
    6.9406    1.4062    0.0000 H   0  0  0  0  0  0  0  0  0  0  0  0
    9.1263    1.8414    0.0000 H   0  0  0  0  0  0  0  0  0  0  0  0
    9.4283    2.9684    0.0000 H   0  0  0  0  0  0  0  0  0  0  0  0
    8.3013    3.2704    0.0000 H   0  0  0  0  0  0  0  0  0  0  0  0
  1  2  1  0  0  0  0
  2  3  1  0  0  0  0
  3  4  1  0  0  0  0
  4  5  1  0  0  0  0
  5  6  1  0  0  0  0
  6  7  1  0  0  0  0
  7  8  1  0  0  0  0
  8  9  2  0  0  0  0
  8 10  1  0  0  0  0
 10 11  1  0  0  0  0
  1 12  1  0  0  0  0
  1 13  1  0  0  0  0
  1 14  1  0  0  0  0
  2 15  1  0  0  0  0
  2 16  1  0  0  0  0
  3 17  1  0  0  0  0
  3 18  1  0  0  0  0
  4 19  1  0  0  0  0
  4 20  1  0  0  0  0
  5 21  1  0  0  0  0
  5 22  1  0  0  0  0
  6 23  1  0  0  0  0
  6 24  1  0  0  0  0
  7 25  1  0  0  0  0
  7 26  1  0  0  0  0
 11 27  1  0  0  0  0
 11 28  1  0  0  0  0
 11 29  1  0  0  0  0
M  END
>  <InChIKey>
InChI=1S/C9H18O2/c1-3-4-5-6-7-8-9(10)11-2/h3-8H2,1-2H3

>  <CASRN>
111-11-5

> <Outcome>
1

>  <Index>
1868

>  <StandardizerResult>
Clear Stereo (ID: ClearStereo)
Wedge Clean (ID: WedgeClean)
Mesomerize (ID: Mesomerize)
Tautomerize (ID: Tautomerize)
Add Explicit Hydrogens (ID: AddExplicitH)
Neutralize (ID: Neutralize)
Clean 2D (ID: Clean2D)

> <knn Distance>


> <CpId>
1868

$$$$
1873
  Mrv1532301301811342D          

 12 12  0  0  0  0            999 V2000
    0.7145    2.0625    0.0000 Cl  0  0  0  0  0  0  0  0  0  0  0  0
    0.7145    1.2375    0.0000 C   0  0  0  0  0  0  0  0  0  0  0  0
    1.4289    0.8250    0.0000 C   0  0  0  0  0  0  0  0  0  0  0  0
    1.4289   -0.0000    0.0000 C   0  0  0  0  0  0  0  0  0  0  0  0
    2.1434   -0.4125    0.0000 Cl  0  0  0  0  0  0  0  0  0  0  0  0
    0.7145   -0.4125    0.0000 C   0  0  0  0  0  0  0  0  0  0  0  0
    0.7145   -1.2375    0.0000 Cl  0  0  0  0  0  0  0  0  0  0  0  0
   -0.0000   -0.0000    0.0000 C   0  0  0  0  0  0  0  0  0  0  0  0
   -0.0000    0.8250    0.0000 C   0  0  0  0  0  0  0  0  0  0  0  0
   -0.7145    1.2375    0.0000 Cl  0  0  0  0  0  0  0  0  0  0  0  0
    2.1434    1.2375    0.0000 H   0  0  0  0  0  0  0  0  0  0  0  0
   -0.7145   -0.4125    0.0000 H   0  0  0  0  0  0  0  0  0  0  0  0
  1  2  1  0  0  0  0
  2  3  4  0  0  0  0
  3  4  4  0  0  0  0
  4  5  1  0  0  0  0
  4  6  4  0  0  0  0
  6  7  1  0  0  0  0
  6  8  4  0  0  0  0
  8  9  4  0  0  0  0
  2  9  4  0  0  0  0
  9 10  1  0  0  0  0
  3 11  1  0  0  0  0
  8 12  1  0  0  0  0
M  END
>  <InChIKey>
InChI=1S/C6H2Cl4/c7-3-1-4(8)6(10)2-5(3)9/h1-2H

>  <CASRN>
95-94-3

> <Outcome>
1

>  <Index>
1873

>  <StandardizerResult>
Dearomatize (ID: Dearomatize)
Clear Stereo (ID: ClearStereo)
Wedge Clean (ID: WedgeClean)
Mesomerize (ID: Mesomerize)
Tautomerize (ID: Tautomerize)
Aromatize (ID: Aromatize)
Add Explicit Hydrogens (ID: AddExplicitH)
Neutralize (ID: Neutralize)
Clean 2D (ID: Clean2D)

> <knn Distance>


> <CpId>
1873

$$$$
1879
  Mrv1532301301811342D          

 15 14  0  0  0  0            999 V2000
   -0.1913    0.7134    0.0000 C   0  0  0  0  0  0  0  0  0  0  0  0
    0.5231    1.1259    0.0000 C   0  0  0  0  0  0  0  0  0  0  0  0
    1.2376    0.7134    0.0000 O   0  0  0  0  0  0  0  0  0  0  0  0
    1.9521    1.1259    0.0000 C   0  0  0  0  0  0  0  0  0  0  0  0
    1.9521    1.9509    0.0000 O   0  0  0  0  0  0  0  0  0  0  0  0
    2.6665    0.7134    0.0000 C   0  0  0  0  0  0  0  0  0  0  0  0
    3.3810    1.1259    0.0000 C   0  0  0  0  0  0  0  0  0  0  0  0
   -0.6038    1.4279    0.0000 H   0  0  0  0  0  0  0  0  0  0  0  0
   -0.9058    0.3009    0.0000 H   0  0  0  0  0  0  0  0  0  0  0  0
    0.2212   -0.0011    0.0000 H   0  0  0  0  0  0  0  0  0  0  0  0
    0.8934    1.8631    0.0000 H   0  0  0  0  0  0  0  0  0  0  0  0
    0.1529    1.8631    0.0000 H   0  0  0  0  0  0  0  0  0  0  0  0
    2.6665   -0.1116    0.0000 H   0  0  0  0  0  0  0  0  0  0  0  0
    4.0955    0.7134    0.0000 H   0  0  0  0  0  0  0  0  0  0  0  0
    3.3810    1.9509    0.0000 H   0  0  0  0  0  0  0  0  0  0  0  0
  1  2  1  0  0  0  0
  2  3  1  0  0  0  0
  3  4  1  0  0  0  0
  4  5  2  0  0  0  0
  4  6  1  0  0  0  0
  6  7  2  0  0  0  0
  1  8  1  0  0  0  0
  1  9  1  0  0  0  0
  1 10  1  0  0  0  0
  2 11  1  0  0  0  0
  2 12  1  0  0  0  0
  6 13  1  0  0  0  0
  7 14  1  0  0  0  0
  7 15  1  0  0  0  0
M  END
>  <InChIKey>
InChI=1S/C5H8O2/c1-3-5(6)7-4-2/h3H,1,4H2,2H3

>  <CASRN>
140-88-5

> <Outcome>
1

>  <Index>
1879

>  <StandardizerResult>
Clear Stereo (ID: ClearStereo)
Wedge Clean (ID: WedgeClean)
Mesomerize (ID: Mesomerize)
Tautomerize (ID: Tautomerize)
Add Explicit Hydrogens (ID: AddExplicitH)
Neutralize (ID: Neutralize)
Clean 2D (ID: Clean2D)

> <knn Distance>


> <CpId>
1879

$$$$
1884
  Mrv1532301301811342D          

 18 18  0  0  0  0            999 V2000
    0.7145    2.0625    0.0000 Cl  0  0  0  0  0  0  0  0  0  0  0  0
    0.7145    1.2375    0.0000 C   0  0  0  0  0  0  0  0  0  0  0  0
    1.4289    0.8250    0.0000 C   0  0  0  0  0  0  0  0  0  0  0  0
    1.4289   -0.0000    0.0000 C   0  0  0  0  0  0  0  0  0  0  0  0
    0.7145   -0.4125    0.0000 C   0  0  0  0  0  0  0  0  0  0  0  0
   -0.0000   -0.0000    0.0000 C   0  0  0  0  0  0  0  0  0  0  0  0
   -0.0000    0.8250    0.0000 C   0  0  0  0  0  0  0  0  0  0  0  0
   -0.7145    1.2375    0.0000 C   0  0  0  0  0  0  0  0  0  0  0  0
   -0.7145    2.0625    0.0000 C   0  0  0  0  0  0  0  0  0  0  0  0
   -1.4289    2.4750    0.0000 C   0  0  0  0  0  0  0  0  0  0  0  0
   -2.1434    2.8875    0.0000 N   0  0  0  0  0  0  0  0  0  0  0  0
   -0.0000    2.4750    0.0000 C   0  0  0  0  0  0  0  0  0  0  0  0
    0.7145    2.8875    0.0000 N   0  0  0  0  0  0  0  0  0  0  0  0
    2.1434    1.2375    0.0000 H   0  0  0  0  0  0  0  0  0  0  0  0
    2.1434   -0.4125    0.0000 H   0  0  0  0  0  0  0  0  0  0  0  0
    0.7145   -1.2375    0.0000 H   0  0  0  0  0  0  0  0  0  0  0  0
   -0.7145   -0.4125    0.0000 H   0  0  0  0  0  0  0  0  0  0  0  0
   -1.4289    0.8250    0.0000 H   0  0  0  0  0  0  0  0  0  0  0  0
  1  2  1  0  0  0  0
  2  3  4  0  0  0  0
  3  4  4  0  0  0  0
  4  5  4  0  0  0  0
  5  6  4  0  0  0  0
  6  7  4  0  0  0  0
  2  7  4  0  0  0  0
  7  8  1  0  0  0  0
  8  9  2  0  0  0  0
  9 10  1  0  0  0  0
 10 11  3  0  0  0  0
  9 12  1  0  0  0  0
 12 13  3  0  0  0  0
  3 14  1  0  0  0  0
  4 15  1  0  0  0  0
  5 16  1  0  0  0  0
  6 17  1  0  0  0  0
  8 18  1  0  0  0  0
M  END
>  <InChIKey>
InChI=1S/C10H5ClN2/c11-10-4-2-1-3-9(10)5-8(6-12)7-13/h1-5H

>  <CASRN>
2698-41-1

> <Outcome>
1

>  <Index>
1884

>  <StandardizerResult>
Dearomatize (ID: Dearomatize)
Clear Stereo (ID: ClearStereo)
Wedge Clean (ID: WedgeClean)
Mesomerize (ID: Mesomerize)
Tautomerize (ID: Tautomerize)
Aromatize (ID: Aromatize)
Add Explicit Hydrogens (ID: AddExplicitH)
Neutralize (ID: Neutralize)
Clean 2D (ID: Clean2D)

> <knn Distance>


> <CpId>
1884

$$$$
1886
  Mrv1532301301811342D          

 19 19  0  0  0  0            999 V2000
    0.7145    2.0625    0.0000 C   0  0  0  0  0  0  0  0  0  0  0  0
    0.7145    1.2375    0.0000 C   0  0  0  0  0  0  0  0  0  0  0  0
    1.4289    0.8250    0.0000 C   0  0  0  0  0  0  0  0  0  0  0  0
    1.4289   -0.0000    0.0000 C   0  0  0  0  0  0  0  0  0  0  0  0
    0.7145   -0.4125    0.0000 C   0  0  0  0  0  0  0  0  0  0  0  0
    0.7145   -1.2375    0.0000 C   0  0  0  0  0  0  0  0  0  0  0  0
    1.4289   -1.6500    0.0000 C   0  0  0  0  0  0  0  0  0  0  0  0
   -0.0000   -0.0000    0.0000 C   0  0  0  0  0  0  0  0  0  0  0  0
   -0.0000    0.8250    0.0000 C   0  0  0  0  0  0  0  0  0  0  0  0
    1.5395    2.0625    0.0000 H   0  0  0  0  0  0  0  0  0  0  0  0
    0.7145    2.8875    0.0000 H   0  0  0  0  0  0  0  0  0  0  0  0
   -0.1105    2.0625    0.0000 H   0  0  0  0  0  0  0  0  0  0  0  0
    2.1434    1.2375    0.0000 H   0  0  0  0  0  0  0  0  0  0  0  0
    2.1434   -0.4125    0.0000 H   0  0  0  0  0  0  0  0  0  0  0  0
   -0.0000   -1.6500    0.0000 H   0  0  0  0  0  0  0  0  0  0  0  0
    1.4289   -2.4750    0.0000 H   0  0  0  0  0  0  0  0  0  0  0  0
    2.1434   -1.2375    0.0000 H   0  0  0  0  0  0  0  0  0  0  0  0
   -0.7145   -0.4125    0.0000 H   0  0  0  0  0  0  0  0  0  0  0  0
   -0.7145    1.2375    0.0000 H   0  0  0  0  0  0  0  0  0  0  0  0
  1  2  1  0  0  0  0
  2  3  4  0  0  0  0
  3  4  4  0  0  0  0
  4  5  4  0  0  0  0
  5  6  1  0  0  0  0
  6  7  2  0  0  0  0
  5  8  4  0  0  0  0
  8  9  4  0  0  0  0
  2  9  4  0  0  0  0
  1 10  1  0  0  0  0
  1 11  1  0  0  0  0
  1 12  1  0  0  0  0
  3 13  1  0  0  0  0
  4 14  1  0  0  0  0
  6 15  1  0  0  0  0
  7 16  1  0  0  0  0
  7 17  1  0  0  0  0
  8 18  1  0  0  0  0
  9 19  1  0  0  0  0
M  END
>  <InChIKey>
InChI=1S/C9H10/c1-3-9-6-4-8(2)5-7-9/h3-7H,1H2,2H3

>  <CASRN>
622-97-9

> <Outcome>
1

>  <Index>
1886

>  <StandardizerResult>
Dearomatize (ID: Dearomatize)
Clear Stereo (ID: ClearStereo)
Wedge Clean (ID: WedgeClean)
Mesomerize (ID: Mesomerize)
Tautomerize (ID: Tautomerize)
Aromatize (ID: Aromatize)
Add Explicit Hydrogens (ID: AddExplicitH)
Neutralize (ID: Neutralize)
Clean 2D (ID: Clean2D)

> <knn Distance>


> <CpId>
1886

$$$$
1889
  Mrv1532301301811342D          

 28 29  0  0  0  0            999 V2000
    2.0367   -1.2991    0.0000 C   0  0  0  0  0  0  0  0  0  0  0  0
    2.0367   -2.1241    0.0000 C   0  0  0  0  0  0  0  0  0  0  0  0
    2.7041   -2.6090    0.0000 C   0  0  0  0  0  0  0  0  0  0  0  0
    2.4492   -3.3937    0.0000 C   0  0  0  0  0  0  0  0  0  0  0  0
    2.9341   -4.0611    0.0000 N   0  0  0  0  0  0  0  0  0  0  0  0
    2.5986   -4.8148    0.0000 S   0  0  0  0  0  0  0  0  0  0  0  0
    1.8449   -4.4792    0.0000 O   0  0  0  0  0  0  0  0  0  0  0  0
    3.3522   -5.1503    0.0000 O   0  0  0  0  0  0  0  0  0  0  0  0
    2.2630   -5.5685    0.0000 C   0  0  0  0  0  0  0  0  0  0  0  0
    2.7479   -6.2359    0.0000 C   0  0  0  0  0  0  0  0  0  0  0  0
    2.4124   -6.9896    0.0000 C   0  0  0  0  0  0  0  0  0  0  0  0
    1.5919   -7.0758    0.0000 C   0  0  0  0  0  0  0  0  0  0  0  0
    1.2563   -7.8295    0.0000 N   0  0  0  0  0  0  0  0  0  0  0  0
    1.1070   -6.4084    0.0000 C   0  0  0  0  0  0  0  0  0  0  0  0
    1.4425   -5.6547    0.0000 C   0  0  0  0  0  0  0  0  0  0  0  0
    1.6242   -3.3937    0.0000 N   0  0  0  0  0  0  0  0  0  0  0  0
    1.3693   -2.6090    0.0000 O   0  0  0  0  0  0  0  0  0  0  0  0
    2.8617   -1.2991    0.0000 H   0  0  0  0  0  0  0  0  0  0  0  0
    2.0367   -0.4741    0.0000 H   0  0  0  0  0  0  0  0  0  0  0  0
    1.2117   -1.2991    0.0000 H   0  0  0  0  0  0  0  0  0  0  0  0
    3.4888   -2.3541    0.0000 H   0  0  0  0  0  0  0  0  0  0  0  0
    3.7546   -3.9749    0.0000 H   0  0  0  0  0  0  0  0  0  0  0  0
    3.5684   -6.1497    0.0000 H   0  0  0  0  0  0  0  0  0  0  0  0
    2.8973   -7.6570    0.0000 H   0  0  0  0  0  0  0  0  0  0  0  0
    0.4358   -7.9157    0.0000 H   0  0  0  0  0  0  0  0  0  0  0  0
    1.7412   -8.4969    0.0000 H   0  0  0  0  0  0  0  0  0  0  0  0
    0.2865   -6.4946    0.0000 H   0  0  0  0  0  0  0  0  0  0  0  0
    0.9576   -4.9872    0.0000 H   0  0  0  0  0  0  0  0  0  0  0  0
  1  2  1  0  0  0  0
  2  3  4  0  0  0  0
  3  4  4  0  0  0  0
  4  5  1  0  0  0  0
  5  6  1  0  0  0  0
  6  7  2  0  0  0  0
  6  8  2  0  0  0  0
  6  9  1  0  0  0  0
  9 10  4  0  0  0  0
 10 11  4  0  0  0  0
 11 12  4  0  0  0  0
 12 13  1  0  0  0  0
 12 14  4  0  0  0  0
 14 15  4  0  0  0  0
  9 15  4  0  0  0  0
  4 16  4  0  0  0  0
 16 17  4  0  0  0  0
  2 17  4  0  0  0  0
  1 18  1  0  0  0  0
  1 19  1  0  0  0  0
  1 20  1  0  0  0  0
  3 21  1  0  0  0  0
  5 22  1  0  0  0  0
 10 23  1  0  0  0  0
 11 24  1  0  0  0  0
 13 25  1  0  0  0  0
 13 26  1  0  0  0  0
 14 27  1  0  0  0  0
 15 28  1  0  0  0  0
M  END
>  <InChIKey>
InChI=1S/C10H11N3O3S/c1-7-6-10(12-16-7)13-17(14,15)9-4-2-8(11)3-5-9/h2-6H,11H2,1H3,(H,12,13)

>  <CASRN>
723-46-6

> <Outcome>
1

>  <Index>
1889

>  <StandardizerResult>
Dearomatize (ID: Dearomatize)
Clear Stereo (ID: ClearStereo)
Wedge Clean (ID: WedgeClean)
Mesomerize (ID: Mesomerize)
Tautomerize (ID: Tautomerize)
Aromatize (ID: Aromatize)
Add Explicit Hydrogens (ID: AddExplicitH)
Neutralize (ID: Neutralize)
Clean 2D (ID: Clean2D)

> <knn Distance>


> <CpId>
1889

$$$$
1897
  Mrv1532301301811342D          

 17 16  0  0  0  0            999 V2000
    1.2528    2.1802    0.0000 C   0  0  0  0  0  0  0  0  0  0  0  0
    0.8403    1.4657    0.0000 C   0  0  0  0  0  0  0  0  0  0  0  0
    0.0153    1.4657    0.0000 C   0  0  0  0  0  0  0  0  0  0  0  0
    1.2528    0.7513    0.0000 O   0  0  0  0  0  0  0  0  0  0  0  0
    0.8403    0.0368    0.0000 C   0  0  0  0  0  0  0  0  0  0  0  0
    1.2528   -0.6777    0.0000 C   0  0  0  0  0  0  0  0  0  0  0  0
    0.0153    0.0368    0.0000 O   0  0  0  0  0  0  0  0  0  0  0  0
    1.9672    1.7677    0.0000 H   0  0  0  0  0  0  0  0  0  0  0  0
    1.6653    2.8947    0.0000 H   0  0  0  0  0  0  0  0  0  0  0  0
    0.5383    2.5927    0.0000 H   0  0  0  0  0  0  0  0  0  0  0  0
    0.4278    2.1802    0.0000 H   0  0  0  0  0  0  0  0  0  0  0  0
   -0.5681    2.0491    0.0000 H   0  0  0  0  0  0  0  0  0  0  0  0
   -0.6992    1.0532    0.0000 H   0  0  0  0  0  0  0  0  0  0  0  0
    0.2288    0.6689    0.0000 H   0  0  0  0  0  0  0  0  0  0  0  0
    0.5383   -1.0902    0.0000 H   0  0  0  0  0  0  0  0  0  0  0  0
    1.6653   -1.3921    0.0000 H   0  0  0  0  0  0  0  0  0  0  0  0
    1.9672   -0.2652    0.0000 H   0  0  0  0  0  0  0  0  0  0  0  0
  1  2  1  0  0  0  0
  2  3  1  0  0  0  0
  2  4  1  0  0  0  0
  4  5  1  0  0  0  0
  5  6  1  0  0  0  0
  5  7  2  0  0  0  0
  1  8  1  0  0  0  0
  1  9  1  0  0  0  0
  1 10  1  0  0  0  0
  2 11  1  0  0  0  0
  3 12  1  0  0  0  0
  3 13  1  0  0  0  0
  3 14  1  0  0  0  0
  6 15  1  0  0  0  0
  6 16  1  0  0  0  0
  6 17  1  0  0  0  0
M  END
>  <InChIKey>
InChI=1S/C5H10O2/c1-4(2)7-5(3)6/h4H,1-3H3

>  <CASRN>
108-21-4

> <Outcome>
1

>  <Index>
1897

>  <StandardizerResult>
Clear Stereo (ID: ClearStereo)
Wedge Clean (ID: WedgeClean)
Mesomerize (ID: Mesomerize)
Tautomerize (ID: Tautomerize)
Add Explicit Hydrogens (ID: AddExplicitH)
Neutralize (ID: Neutralize)
Clean 2D (ID: Clean2D)

> <knn Distance>


> <CpId>
1897

$$$$
1909
  Mrv1532301301811342D          

 13 12  0  0  0  0            999 V2000
    1.6649    1.4978    0.0000 C   0  0  0  0  0  0  0  0  0  0  0  0
    1.2524    0.7833    0.0000 C   0  0  0  0  0  0  0  0  0  0  0  0
    0.5379    1.1958    0.0000 C   0  0  0  0  0  0  0  0  0  0  0  0
    1.9669    0.3708    0.0000 Cl  0  0  0  0  0  0  0  0  0  0  0  0
    0.8399    0.0689    0.0000 N   0  0  0  0  0  0  0  0  0  0  0  0
    1.2524   -0.6456    0.0000 O   0  0  0  0  0  0  0  0  0  0  0  0
    0.0149    0.0689    0.0000 O   0  0  0  0  0  0  0  0  0  0  0  0
    2.3794    1.0853    0.0000 H   0  0  0  0  0  0  0  0  0  0  0  0
    2.0774    2.2123    0.0000 H   0  0  0  0  0  0  0  0  0  0  0  0
    0.9504    1.9103    0.0000 H   0  0  0  0  0  0  0  0  0  0  0  0
    0.0357    1.8504    0.0000 H   0  0  0  0  0  0  0  0  0  0  0  0
   -0.2590    0.9823    0.0000 H   0  0  0  0  0  0  0  0  0  0  0  0
    0.4302    0.3779    0.0000 H   0  0  0  0  0  0  0  0  0  0  0  0
  1  2  1  0  0  0  0
  2  3  1  0  0  0  0
  2  4  1  0  0  0  0
  2  5  1  0  0  0  0
  5  6  2  0  0  0  0
  5  7  2  0  0  0  0
  1  8  1  0  0  0  0
  1  9  1  0  0  0  0
  1 10  1  0  0  0  0
  3 11  1  0  0  0  0
  3 12  1  0  0  0  0
  3 13  1  0  0  0  0
M  END
>  <InChIKey>
InChI=1S/C3H6ClNO2/c1-3(2,4)5(6)7/h1-2H3

>  <CASRN>
594-71-8

> <Outcome>
1

>  <Index>
1909

>  <StandardizerResult>
Clear Stereo (ID: ClearStereo)
Wedge Clean (ID: WedgeClean)
Mesomerize (ID: Mesomerize)
Tautomerize (ID: Tautomerize)
Add Explicit Hydrogens (ID: AddExplicitH)
Neutralize (ID: Neutralize)
Clean 2D (ID: Clean2D)

> <knn Distance>


> <CpId>
1909

$$$$
1910
  Mrv1532301301811342D          

 15 15  0  0  0  0            999 V2000
   -0.0010    2.4744    0.0000 Cl  0  0  0  0  0  0  0  0  0  0  0  0
    0.7135    2.0619    0.0000 C   0  0  0  0  0  0  0  0  0  0  0  0
    0.7135    1.2369    0.0000 C   0  0  0  0  0  0  0  0  0  0  0  0
    1.4279    0.8244    0.0000 C   0  0  0  0  0  0  0  0  0  0  0  0
    1.4279   -0.0006    0.0000 C   0  0  0  0  0  0  0  0  0  0  0  0
    0.7135   -0.4131    0.0000 C   0  0  0  0  0  0  0  0  0  0  0  0
    0.7135   -1.2381    0.0000 Cl  0  0  0  0  0  0  0  0  0  0  0  0
   -0.0010   -0.0006    0.0000 C   0  0  0  0  0  0  0  0  0  0  0  0
   -0.0010    0.8244    0.0000 C   0  0  0  0  0  0  0  0  0  0  0  0
    1.5371    2.1099    0.0000 H   0  0  0  0  0  0  0  0  0  0  0  0
    1.1668    2.7512    0.0000 H   0  0  0  0  0  0  0  0  0  0  0  0
    2.1424    1.2369    0.0000 H   0  0  0  0  0  0  0  0  0  0  0  0
    2.1424   -0.4131    0.0000 H   0  0  0  0  0  0  0  0  0  0  0  0
   -0.7155   -0.4131    0.0000 H   0  0  0  0  0  0  0  0  0  0  0  0
   -0.7155    1.2369    0.0000 H   0  0  0  0  0  0  0  0  0  0  0  0
  1  2  1  0  0  0  0
  2  3  1  0  0  0  0
  3  4  4  0  0  0  0
  4  5  4  0  0  0  0
  5  6  4  0  0  0  0
  6  7  1  0  0  0  0
  6  8  4  0  0  0  0
  8  9  4  0  0  0  0
  3  9  4  0  0  0  0
  2 10  1  0  0  0  0
  2 11  1  0  0  0  0
  4 12  1  0  0  0  0
  5 13  1  0  0  0  0
  8 14  1  0  0  0  0
  9 15  1  0  0  0  0
M  END
>  <InChIKey>
InChI=1S/C7H6Cl2/c8-5-6-1-3-7(9)4-2-6/h1-4H,5H2

>  <CASRN>
104-83-6

> <Outcome>
1

>  <Index>
1910

>  <StandardizerResult>
Dearomatize (ID: Dearomatize)
Clear Stereo (ID: ClearStereo)
Wedge Clean (ID: WedgeClean)
Mesomerize (ID: Mesomerize)
Tautomerize (ID: Tautomerize)
Aromatize (ID: Aromatize)
Add Explicit Hydrogens (ID: AddExplicitH)
Neutralize (ID: Neutralize)
Clean 2D (ID: Clean2D)

> <knn Distance>


> <CpId>
1910

$$$$
1927
  Mrv1532301301811342D          

 51 55  0  0  0  0            999 V2000
    1.5086   -2.6756    0.0000 C   0  0  0  0  0  0  0  0  0  0  0  0
    1.9102   -1.9550    0.0000 O   0  0  0  0  0  0  0  0  0  0  0  0
    2.7351   -1.9424    0.0000 C   0  0  0  0  0  0  0  0  0  0  0  0
    3.1367   -1.2217    0.0000 C   0  0  0  0  0  0  0  0  0  0  0  0
    3.9616   -1.2092    0.0000 C   0  0  0  0  0  0  0  0  0  0  0  0
    4.3631   -0.4885    0.0000 O   0  0  0  0  0  0  0  0  0  0  0  0
    5.1881   -0.4760    0.0000 C   0  0  0  0  0  0  0  0  0  0  0  0
    5.6114   -1.1841    0.0000 C   0  0  0  0  0  0  0  0  0  0  0  0
    6.4363   -1.1716    0.0000 O   0  0  0  0  0  0  0  0  0  0  0  0
    6.8596   -1.8797    0.0000 C   0  0  0  0  0  0  0  0  0  0  0  0
    7.6845   -1.8671    0.0000 C   0  0  0  0  0  0  0  0  0  0  0  0
    8.2271   -1.2457    0.0000 C   0  0  0  0  0  0  0  0  0  0  0  0
    8.9858   -1.5698    0.0000 C   0  0  0  0  0  0  0  0  0  0  0  0
    8.9121   -2.3915    0.0000 O   0  0  0  0  0  0  0  0  0  0  0  0
    8.1078   -2.5752    0.0000 C   0  0  0  0  0  0  0  0  0  0  0  0
    7.7062   -3.2959    0.0000 C   0  0  0  0  0  0  0  0  0  0  0  0
    6.8813   -3.3084    0.0000 C   0  0  0  0  0  0  0  0  0  0  0  0
    6.4580   -2.6003    0.0000 C   0  0  0  0  0  0  0  0  0  0  0  0
    5.6331   -2.6129    0.0000 C   0  0  0  0  0  0  0  0  0  0  0  0
    5.2315   -3.3335    0.0000 O   0  0  0  0  0  0  0  0  0  0  0  0
    5.2098   -1.9048    0.0000 C   0  0  0  0  0  0  0  0  0  0  0  0
    4.3849   -1.9173    0.0000 C   0  0  0  0  0  0  0  0  0  0  0  0
    3.9833   -2.6380    0.0000 C   0  0  0  0  0  0  0  0  0  0  0  0
    3.1584   -2.6505    0.0000 C   0  0  0  0  0  0  0  0  0  0  0  0
    2.7568   -3.3712    0.0000 O   0  0  0  0  0  0  0  0  0  0  0  0
    1.9319   -3.3837    0.0000 C   0  0  0  0  0  0  0  0  0  0  0  0
    9.6939   -1.1464    0.0000 C   0  0  0  0  0  0  0  0  0  0  0  0
    9.6814   -0.3215    0.0000 C   0  0  0  0  0  0  0  0  0  0  0  0
   10.4146   -1.5480    0.0000 C   0  0  0  0  0  0  0  0  0  0  0  0
    1.0853   -1.9675    0.0000 H   0  0  0  0  0  0  0  0  0  0  0  0
    0.6837   -2.6882    0.0000 H   0  0  0  0  0  0  0  0  0  0  0  0
    1.1070   -3.3963    0.0000 H   0  0  0  0  0  0  0  0  0  0  0  0
    2.7133   -0.5136    0.0000 H   0  0  0  0  0  0  0  0  0  0  0  0
    5.8704   -0.0122    0.0000 H   0  0  0  0  0  0  0  0  0  0  0  0
    5.2235    0.3483    0.0000 H   0  0  0  0  0  0  0  0  0  0  0  0
    6.0347   -1.8922    0.0000 H   0  0  0  0  0  0  0  0  0  0  0  0
    8.4425   -0.4493    0.0000 H   0  0  0  0  0  0  0  0  0  0  0  0
    7.6873   -0.6219    0.0000 H   0  0  0  0  0  0  0  0  0  0  0  0
    9.6845   -2.0085    0.0000 H   0  0  0  0  0  0  0  0  0  0  0  0
    8.1295   -4.0040    0.0000 H   0  0  0  0  0  0  0  0  0  0  0  0
    6.4797   -4.0291    0.0000 H   0  0  0  0  0  0  0  0  0  0  0  0
    4.8082   -2.6254    0.0000 H   0  0  0  0  0  0  0  0  0  0  0  0
    3.9958   -3.4629    0.0000 H   0  0  0  0  0  0  0  0  0  0  0  0
    1.6616   -4.1632    0.0000 H   0  0  0  0  0  0  0  0  0  0  0  0
    2.2258   -4.1546    0.0000 H   0  0  0  0  0  0  0  0  0  0  0  0
    2.3335   -2.6631    0.0000 H   0  0  0  0  0  0  0  0  0  0  0  0
   10.5063   -0.3090    0.0000 H   0  0  0  0  0  0  0  0  0  0  0  0
    9.6689    0.5034    0.0000 H   0  0  0  0  0  0  0  0  0  0  0  0
    8.8565   -0.3341    0.0000 H   0  0  0  0  0  0  0  0  0  0  0  0
   11.1171   -1.9806    0.0000 H   0  0  0  0  0  0  0  0  0  0  0  0
   11.0926   -1.0779    0.0000 H   0  0  0  0  0  0  0  0  0  0  0  0
  1  2  1  0  0  0  0
  2  3  1  0  0  0  0
  3  4  4  0  0  0  0
  4  5  4  0  0  0  0
  5  6  1  0  0  0  0
  6  7  1  0  0  0  0
  7  8  1  0  0  0  0
  8  9  1  0  0  0  0
  9 10  1  0  0  0  0
 10 11  4  0  0  0  0
 11 12  1  0  0  0  0
 12 13  1  0  0  0  0
 13 14  1  0  0  0  0
 14 15  1  0  0  0  0
 11 15  4  0  0  0  0
 15 16  4  0  0  0  0
 16 17  4  0  0  0  0
 17 18  4  0  0  0  0
 10 18  4  0  0  0  0
 18 19  1  0  0  0  0
 19 20  2  0  0  0  0
 19 21  1  0  0  0  0
  8 21  1  0  0  0  0
 21 22  1  0  0  0  0
  5 22  4  0  0  0  0
 22 23  4  0  0  0  0
 23 24  4  0  0  0  0
  3 24  4  0  0  0  0
 24 25  1  0  0  0  0
 25 26  1  0  0  0  0
 13 27  1  0  0  0  0
 27 28  1  0  0  0  0
 27 29  2  0  0  0  0
  1 30  1  0  0  0  0
  1 31  1  0  0  0  0
  1 32  1  0  0  0  0
  4 33  1  0  0  0  0
  7 34  1  0  0  0  0
  7 35  1  0  0  0  0
  8 36  1  0  0  0  0
 12 37  1  0  0  0  0
 12 38  1  0  0  0  0
 13 39  1  0  0  0  0
 16 40  1  0  0  0  0
 17 41  1  0  0  0  0
 21 42  1  0  0  0  0
 23 43  1  0  0  0  0
 26 44  1  0  0  0  0
 26 45  1  0  0  0  0
 26 46  1  0  0  0  0
 28 47  1  0  0  0  0
 28 48  1  0  0  0  0
 28 49  1  0  0  0  0
 29 50  1  0  0  0  0
 29 51  1  0  0  0  0
M  END
>  <InChIKey>
InChI=1S/C23H22O6/c1-11(2)16-8-14-15(28-16)6-5-12-22(24)21-13-7-18(25-3)19(26-4)9-17(13)27-10-20(21)29-23(12)14/h5-7,9,16,20-21H,1,8,10H2,2-4H3

>  <CASRN>
83-79-4

> <Outcome>
1

>  <Index>
1927

>  <StandardizerResult>
Dearomatize (ID: Dearomatize)
Clear Stereo (ID: ClearStereo)
Wedge Clean (ID: WedgeClean)
Mesomerize (ID: Mesomerize)
Tautomerize (ID: Tautomerize)
Aromatize (ID: Aromatize)
Add Explicit Hydrogens (ID: AddExplicitH)
Neutralize (ID: Neutralize)
Clean 2D (ID: Clean2D)

> <knn Distance>


> <CpId>
1927

$$$$
1931
  Mrv1532301301811342D          

 12 11  0  0  0  0            999 V2000
    0.7998    1.4038    0.0000 C   0  0  0  0  0  0  0  0  0  0  0  0
    1.2123    0.6893    0.0000 C   0  0  0  0  0  0  0  0  0  0  0  0
    2.0373    0.6893    0.0000 O   0  0  0  0  0  0  0  0  0  0  0  0
    0.7998   -0.0252    0.0000 C   0  0  0  0  0  0  0  0  0  0  0  0
    1.2123   -0.7396    0.0000 O   0  0  0  0  0  0  0  0  0  0  0  0
   -0.0252   -0.0252    0.0000 O   0  0  0  0  0  0  0  0  0  0  0  0
    1.5143    1.8163    0.0000 H   0  0  0  0  0  0  0  0  0  0  0  0
    0.3873    2.1182    0.0000 H   0  0  0  0  0  0  0  0  0  0  0  0
    0.0854    0.9913    0.0000 H   0  0  0  0  0  0  0  0  0  0  0  0
    1.6248    1.4038    0.0000 H   0  0  0  0  0  0  0  0  0  0  0  0
    2.7518    0.2768    0.0000 H   0  0  0  0  0  0  0  0  0  0  0  0
    0.7998   -1.4541    0.0000 H   0  0  0  0  0  0  0  0  0  0  0  0
  1  2  1  0  0  0  0
  2  3  1  0  0  0  0
  2  4  1  0  0  0  0
  4  5  1  0  0  0  0
  4  6  2  0  0  0  0
  1  7  1  0  0  0  0
  1  8  1  0  0  0  0
  1  9  1  0  0  0  0
  2 10  1  0  0  0  0
  3 11  1  0  0  0  0
  5 12  1  0  0  0  0
M  END
>  <InChIKey>
InChI=1S/C3H6O3/c1-2(4)3(5)6/h2,4H,1H3,(H,5,6)

>  <UN GHS>
1

>  <CASRN>
50-21-5

> <Outcome>
1

>  <Index>
1931

>  <StandardizerResult>
Clear Stereo (ID: ClearStereo)
Wedge Clean (ID: WedgeClean)
Mesomerize (ID: Mesomerize)
Tautomerize (ID: Tautomerize)
Add Explicit Hydrogens (ID: AddExplicitH)
Neutralize (ID: Neutralize)
Clean 2D (ID: Clean2D)

> <knn Distance>


> <CpId>
1931

$$$$
1932
  Mrv1532301301811342D          

 52 54  0  0  0  0            999 V2000
    5.2675   -0.3970    0.0000 C   0  0  0  0  0  0  0  0  0  0  0  0
    4.8550    0.3175    0.0000 C   0  0  0  0  0  0  0  0  0  0  0  0
    5.2675    1.0320    0.0000 C   0  0  0  0  0  0  0  0  0  0  0  0
    4.0300    0.3175    0.0000 C   0  0  0  0  0  0  0  0  0  0  0  0
    3.6175    1.0320    0.0000 C   0  0  0  0  0  0  0  0  0  0  0  0
    2.7925    1.0320    0.0000 C   0  0  0  0  0  0  0  0  0  0  0  0
    2.3800    0.3175    0.0000 C   0  0  0  0  0  0  0  0  0  0  0  0
    2.7925   -0.3970    0.0000 C   0  0  0  0  0  0  0  0  0  0  0  0
    2.3800   -1.1114    0.0000 C   0  0  0  0  0  0  0  0  0  0  0  0
    1.5550   -1.1114    0.0000 C   0  0  0  0  0  0  0  0  0  0  0  0
    1.1425   -0.3970    0.0000 C   0  0  0  0  0  0  0  0  0  0  0  0
    0.3175   -0.3970    0.0000 C   0  0  0  0  0  0  0  0  0  0  0  0
    0.4607   -1.2094    0.0000 C   0  0  0  0  0  0  0  0  0  0  0  0
   -0.4578   -0.6791    0.0000 C   0  0  0  0  0  0  0  0  0  0  0  0
   -0.6011   -1.4916    0.0000 N   0  0  0  0  0  0  0  0  0  0  0  0
   -0.0950    0.3175    0.0000 C   0  0  0  0  0  0  0  0  0  0  0  0
    0.3175    1.0320    0.0000 C   0  0  0  0  0  0  0  0  0  0  0  0
    1.1425    1.0320    0.0000 C   0  0  0  0  0  0  0  0  0  0  0  0
    1.5550    0.3175    0.0000 C   0  0  0  0  0  0  0  0  0  0  0  0
    1.9675    1.0320    0.0000 C   0  0  0  0  0  0  0  0  0  0  0  0
    3.6175   -0.3970    0.0000 C   0  0  0  0  0  0  0  0  0  0  0  0
    4.5530   -0.8095    0.0000 H   0  0  0  0  0  0  0  0  0  0  0  0
    5.6800   -1.1114    0.0000 H   0  0  0  0  0  0  0  0  0  0  0  0
    5.9819    0.0155    0.0000 H   0  0  0  0  0  0  0  0  0  0  0  0
    5.6800    0.3175    0.0000 H   0  0  0  0  0  0  0  0  0  0  0  0
    6.0643    1.2455    0.0000 H   0  0  0  0  0  0  0  0  0  0  0  0
    5.2675    1.8570    0.0000 H   0  0  0  0  0  0  0  0  0  0  0  0
    4.4706    1.2455    0.0000 H   0  0  0  0  0  0  0  0  0  0  0  0
    3.5165    1.8508    0.0000 H   0  0  0  0  0  0  0  0  0  0  0  0
    2.7925    1.8570    0.0000 H   0  0  0  0  0  0  0  0  0  0  0  0
    2.4279   -1.9350    0.0000 H   0  0  0  0  0  0  0  0  0  0  0  0
    3.0692   -1.5648    0.0000 H   0  0  0  0  0  0  0  0  0  0  0  0
    0.8657   -1.5648    0.0000 H   0  0  0  0  0  0  0  0  0  0  0  0
    1.5070   -1.9350    0.0000 H   0  0  0  0  0  0  0  0  0  0  0  0
    0.7300    0.3175    0.0000 H   0  0  0  0  0  0  0  0  0  0  0  0
   -0.3611   -1.2822    0.0000 H   0  0  0  0  0  0  0  0  0  0  0  0
   -0.0280   -1.8741    0.0000 H   0  0  0  0  0  0  0  0  0  0  0  0
    1.1797   -0.8048    0.0000 H   0  0  0  0  0  0  0  0  0  0  0  0
   -0.7846    0.0784    0.0000 H   0  0  0  0  0  0  0  0  0  0  0  0
   -1.2606   -0.4889    0.0000 H   0  0  0  0  0  0  0  0  0  0  0  0
   -1.4238   -1.4308    0.0000 H   0  0  0  0  0  0  0  0  0  0  0  0
   -1.1258   -2.1282    0.0000 H   0  0  0  0  0  0  0  0  0  0  0  0
   -0.3276    1.1091    0.0000 H   0  0  0  0  0  0  0  0  0  0  0  0
   -0.8285    0.6953    0.0000 H   0  0  0  0  0  0  0  0  0  0  0  0
    0.7579    1.7296    0.0000 H   0  0  0  0  0  0  0  0  0  0  0  0
   -0.0372    1.7769    0.0000 H   0  0  0  0  0  0  0  0  0  0  0  0
    1.7779    1.5581    0.0000 H   0  0  0  0  0  0  0  0  0  0  0  0
    1.2964    1.8425    0.0000 H   0  0  0  0  0  0  0  0  0  0  0  0
    2.6996    1.4123    0.0000 H   0  0  0  0  0  0  0  0  0  0  0  0
    2.4418    1.7070    0.0000 H   0  0  0  0  0  0  0  0  0  0  0  0
    2.0772    1.8497    0.0000 H   0  0  0  0  0  0  0  0  0  0  0  0
    4.0300   -1.1114    0.0000 H   0  0  0  0  0  0  0  0  0  0  0  0
  1  2  1  0  0  0  0
  2  3  1  0  0  0  0
  2  4  1  0  0  0  0
  4  5  4  0  0  0  0
  5  6  4  0  0  0  0
  6  7  4  0  0  0  0
  7  8  4  0  0  0  0
  8  9  1  0  0  0  0
  9 10  1  0  0  0  0
 10 11  1  0  0  0  0
 11 12  1  0  0  0  0
 12 13  1  0  0  0  0
 12 14  1  0  0  0  0
 14 15  1  0  0  0  0
 12 16  1  0  0  0  0
 16 17  1  0  0  0  0
 17 18  1  0  0  0  0
 18 19  1  0  0  0  0
  7 19  1  0  0  0  0
 11 19  1  0  0  0  0
 19 20  1  0  0  0  0
  8 21  4  0  0  0  0
  4 21  4  0  0  0  0
  1 22  1  0  0  0  0
  1 23  1  0  0  0  0
  1 24  1  0  0  0  0
  2 25  1  0  0  0  0
  3 26  1  0  0  0  0
  3 27  1  0  0  0  0
  3 28  1  0  0  0  0
  5 29  1  0  0  0  0
  6 30  1  0  0  0  0
  9 31  1  0  0  0  0
  9 32  1  0  0  0  0
 10 33  1  0  0  0  0
 10 34  1  0  0  0  0
 11 35  1  0  0  0  0
 13 36  1  0  0  0  0
 13 37  1  0  0  0  0
 13 38  1  0  0  0  0
 14 39  1  0  0  0  0
 14 40  1  0  0  0  0
 15 41  1  0  0  0  0
 15 42  1  0  0  0  0
 16 43  1  0  0  0  0
 16 44  1  0  0  0  0
 17 45  1  0  0  0  0
 17 46  1  0  0  0  0
 18 47  1  0  0  0  0
 18 48  1  0  0  0  0
 20 49  1  0  0  0  0
 20 50  1  0  0  0  0
 20 51  1  0  0  0  0
 21 52  1  0  0  0  0
M  END
>  <InChIKey>
InChI=1S/C20H31N/c1-14(2)15-6-8-17-16(12-15)7-9-18-19(3,13-21)10-5-11-20(17,18)4/h6,8,12,14,18H,5,7,9-11,13,21H2,1-4H3

>  <CASRN>
1446-61-3

> <Outcome>
1

>  <Index>
1932

>  <StandardizerResult>
Dearomatize (ID: Dearomatize)
Clear Stereo (ID: ClearStereo)
Wedge Clean (ID: WedgeClean)
Mesomerize (ID: Mesomerize)
Tautomerize (ID: Tautomerize)
Aromatize (ID: Aromatize)
Add Explicit Hydrogens (ID: AddExplicitH)
Neutralize (ID: Neutralize)
Clean 2D (ID: Clean2D)

> <knn Distance>


> <CpId>
1932

$$$$
1938
  Mrv1532301301811342D          

  9  8  0  0  0  0            999 V2000
    1.7605   -1.0184    0.0000 N   0  0  0  0  0  0  0  0  0  0  0  0
    2.4750   -1.4309    0.0000 C   0  0  0  0  0  0  0  0  0  0  0  0
    3.1895   -1.8434    0.0000 S   0  0  0  0  0  0  0  0  0  0  0  0
    3.9039   -1.4309    0.0000 C   0  0  0  0  0  0  0  0  0  0  0  0
    4.6184   -1.8434    0.0000 S   0  0  0  0  0  0  0  0  0  0  0  0
    5.3329   -1.4309    0.0000 C   0  0  0  0  0  0  0  0  0  0  0  0
    6.0473   -1.0184    0.0000 N   0  0  0  0  0  0  0  0  0  0  0  0
    4.2742   -0.6936    0.0000 H   0  0  0  0  0  0  0  0  0  0  0  0
    3.5337   -0.6936    0.0000 H   0  0  0  0  0  0  0  0  0  0  0  0
  1  2  3  0  0  0  0
  2  3  1  0  0  0  0
  3  4  1  0  0  0  0
  4  5  1  0  0  0  0
  5  6  1  0  0  0  0
  6  7  3  0  0  0  0
  4  8  1  0  0  0  0
  4  9  1  0  0  0  0
M  END
>  <InChIKey>
InChI=1S/C3H2N2S2/c4-1-6-3-7-2-5/h3H2

>  <CASRN>
6317-18-6

> <Outcome>
1

>  <Index>
1938

>  <StandardizerResult>
Clear Stereo (ID: ClearStereo)
Wedge Clean (ID: WedgeClean)
Mesomerize (ID: Mesomerize)
Tautomerize (ID: Tautomerize)
Add Explicit Hydrogens (ID: AddExplicitH)
Neutralize (ID: Neutralize)
Clean 2D (ID: Clean2D)

> <knn Distance>


> <CpId>
1938

$$$$
1942
  Mrv1532301301811342D          

 34 33  0  0  0  0            999 V2000
    4.9477    2.8451    0.0000 C   0  0  0  0  0  0  0  0  0  0  0  0
    4.5352    2.1306    0.0000 C   0  0  0  0  0  0  0  0  0  0  0  0
    4.9477    1.4161    0.0000 C   0  0  0  0  0  0  0  0  0  0  0  0
    3.7102    2.1306    0.0000 C   0  0  0  0  0  0  0  0  0  0  0  0
    3.2977    1.4161    0.0000 C   0  0  0  0  0  0  0  0  0  0  0  0
    2.4727    1.4161    0.0000 C   0  0  0  0  0  0  0  0  0  0  0  0
    2.0602    0.7016    0.0000 C   0  0  0  0  0  0  0  0  0  0  0  0
    2.4727   -0.0128    0.0000 C   0  0  0  0  0  0  0  0  0  0  0  0
    1.2352    0.7016    0.0000 C   0  0  0  0  0  0  0  0  0  0  0  0
    0.8227   -0.0128    0.0000 C   0  0  0  0  0  0  0  0  0  0  0  0
   -0.0023   -0.0128    0.0000 C   0  0  0  0  0  0  0  0  0  0  0  0
   -0.4148   -0.7273    0.0000 C   0  0  0  0  0  0  0  0  0  0  0  0
   -0.0023   -1.4418    0.0000 C   0  0  0  0  0  0  0  0  0  0  0  0
   -1.2398   -0.7273    0.0000 O   0  0  0  0  0  0  0  0  0  0  0  0
    5.6622    2.4326    0.0000 H   0  0  0  0  0  0  0  0  0  0  0  0
    5.3602    3.5595    0.0000 H   0  0  0  0  0  0  0  0  0  0  0  0
    4.2333    3.2576    0.0000 H   0  0  0  0  0  0  0  0  0  0  0  0
    4.2333    1.0036    0.0000 H   0  0  0  0  0  0  0  0  0  0  0  0
    5.3602    0.7016    0.0000 H   0  0  0  0  0  0  0  0  0  0  0  0
    5.6622    1.8286    0.0000 H   0  0  0  0  0  0  0  0  0  0  0  0
    3.2977    2.8451    0.0000 H   0  0  0  0  0  0  0  0  0  0  0  0
    3.3457    0.5925    0.0000 H   0  0  0  0  0  0  0  0  0  0  0  0
    3.9870    0.9628    0.0000 H   0  0  0  0  0  0  0  0  0  0  0  0
    2.4248    2.2397    0.0000 H   0  0  0  0  0  0  0  0  0  0  0  0
    1.7835    1.8695    0.0000 H   0  0  0  0  0  0  0  0  0  0  0  0
    1.7583   -0.4253    0.0000 H   0  0  0  0  0  0  0  0  0  0  0  0
    2.8852   -0.7273    0.0000 H   0  0  0  0  0  0  0  0  0  0  0  0
    3.1872    0.3997    0.0000 H   0  0  0  0  0  0  0  0  0  0  0  0
    0.8227    1.4161    0.0000 H   0  0  0  0  0  0  0  0  0  0  0  0
    1.2352   -0.7273    0.0000 H   0  0  0  0  0  0  0  0  0  0  0  0
   -0.4148    0.7016    0.0000 H   0  0  0  0  0  0  0  0  0  0  0  0
   -0.7167   -1.8543    0.0000 H   0  0  0  0  0  0  0  0  0  0  0  0
    0.4102   -2.1562    0.0000 H   0  0  0  0  0  0  0  0  0  0  0  0
    0.7122   -1.0293    0.0000 H   0  0  0  0  0  0  0  0  0  0  0  0
  1  2  1  0  0  0  0
  2  3  1  0  0  0  0
  2  4  2  0  0  0  0
  4  5  1  0  0  0  0
  5  6  1  0  0  0  0
  6  7  1  0  0  0  0
  7  8  1  0  0  0  0
  7  9  2  0  0  0  0
  9 10  1  4  0  0  0
 10 11  2  0  0  0  0
 11 12  1  4  0  0  0
 12 13  1  0  0  0  0
 12 14  2  0  0  0  0
  1 15  1  0  0  0  0
  1 16  1  0  0  0  0
  1 17  1  0  0  0  0
  3 18  1  0  0  0  0
  3 19  1  0  0  0  0
  3 20  1  0  0  0  0
  4 21  1  0  0  0  0
  5 22  1  0  0  0  0
  5 23  1  0  0  0  0
  6 24  1  0  0  0  0
  6 25  1  0  0  0  0
  8 26  1  0  0  0  0
  8 27  1  0  0  0  0
  8 28  1  0  0  0  0
  9 29  1  0  0  0  0
 10 30  1  0  0  0  0
 11 31  1  0  0  0  0
 13 32  1  0  0  0  0
 13 33  1  0  0  0  0
 13 34  1  0  0  0  0
M  END
>  <InChIKey>
InChI=1S/C13H20O/c1-11(2)7-5-8-12(3)9-6-10-13(4)14/h6-7,9-10H,5,8H2,1-4H3

>  <UN GHS>
2B

>  <CASRN>
141-10-6

> <Outcome>
1

>  <Index>
1942

>  <StandardizerResult>
Clear Stereo (ID: ClearStereo)
Wedge Clean (ID: WedgeClean)
Mesomerize (ID: Mesomerize)
Tautomerize (ID: Tautomerize)
Add Explicit Hydrogens (ID: AddExplicitH)
Neutralize (ID: Neutralize)
Clean 2D (ID: Clean2D)

> <knn Distance>


> <CpId>
1942

$$$$
1944
  Mrv1532301301811342D          

 44 44  0  0  0  0            999 V2000
   -0.7662    3.8625    0.0000 C   0  0  0  0  0  0  0  0  0  0  0  0
   -0.0517    3.4500    0.0000 C   0  0  0  0  0  0  0  0  0  0  0  0
   -0.4642    2.7355    0.0000 C   0  0  0  0  0  0  0  0  0  0  0  0
    0.3608    4.1645    0.0000 C   0  0  0  0  0  0  0  0  0  0  0  0
    0.6628    3.0375    0.0000 C   0  0  0  0  0  0  0  0  0  0  0  0
    0.6628    2.2125    0.0000 C   0  0  0  0  0  0  0  0  0  0  0  0
   -0.1622    2.2125    0.0000 C   0  0  0  0  0  0  0  0  0  0  0  0
    1.4878    2.2125    0.0000 C   0  0  0  0  0  0  0  0  0  0  0  0
    0.6628    1.3875    0.0000 C   0  0  0  0  0  0  0  0  0  0  0  0
    1.3772    0.9750    0.0000 C   0  0  0  0  0  0  0  0  0  0  0  0
    1.3772    0.1500    0.0000 C   0  0  0  0  0  0  0  0  0  0  0  0
    0.6628   -0.2625    0.0000 C   0  0  0  0  0  0  0  0  0  0  0  0
    0.6628   -1.0875    0.0000 O   0  0  0  0  0  0  0  0  0  0  0  0
    1.3772   -1.5000    0.0000 C   0  0  0  0  0  0  0  0  0  0  0  0
    1.3772   -2.3250    0.0000 C   0  0  0  0  0  0  0  0  0  0  0  0
    2.0917   -2.7375    0.0000 O   0  0  0  0  0  0  0  0  0  0  0  0
   -0.0517    0.1500    0.0000 C   0  0  0  0  0  0  0  0  0  0  0  0
   -0.0517    0.9750    0.0000 C   0  0  0  0  0  0  0  0  0  0  0  0
   -0.3537    4.5770    0.0000 H   0  0  0  0  0  0  0  0  0  0  0  0
   -1.4806    4.2750    0.0000 H   0  0  0  0  0  0  0  0  0  0  0  0
   -1.1787    3.1480    0.0000 H   0  0  0  0  0  0  0  0  0  0  0  0
   -1.2394    2.4534    0.0000 H   0  0  0  0  0  0  0  0  0  0  0  0
   -0.7464    1.9603    0.0000 H   0  0  0  0  0  0  0  0  0  0  0  0
    0.3608    2.7355    0.0000 H   0  0  0  0  0  0  0  0  0  0  0  0
    0.8630    3.5100    0.0000 H   0  0  0  0  0  0  0  0  0  0  0  0
    1.1577    4.3780    0.0000 H   0  0  0  0  0  0  0  0  0  0  0  0
    0.4685    4.9824    0.0000 H   0  0  0  0  0  0  0  0  0  0  0  0
    1.3159    2.5335    0.0000 H   0  0  0  0  0  0  0  0  0  0  0  0
    1.4608    3.2467    0.0000 H   0  0  0  0  0  0  0  0  0  0  0  0
   -0.5430    1.4806    0.0000 H   0  0  0  0  0  0  0  0  0  0  0  0
    0.0047    1.4046    0.0000 H   0  0  0  0  0  0  0  0  0  0  0  0
    0.4774    1.6915    0.0000 H   0  0  0  0  0  0  0  0  0  0  0  0
    1.2679    1.4174    0.0000 H   0  0  0  0  0  0  0  0  0  0  0  0
    2.1955    1.7886    0.0000 H   0  0  0  0  0  0  0  0  0  0  0  0
    2.0850    2.7817    0.0000 H   0  0  0  0  0  0  0  0  0  0  0  0
    2.1962    1.0747    0.0000 H   0  0  0  0  0  0  0  0  0  0  0  0
    2.0917   -0.2625    0.0000 H   0  0  0  0  0  0  0  0  0  0  0  0
    2.2008   -1.4520    0.0000 H   0  0  0  0  0  0  0  0  0  0  0  0
    1.8306   -0.8107    0.0000 H   0  0  0  0  0  0  0  0  0  0  0  0
    0.5536   -2.3730    0.0000 H   0  0  0  0  0  0  0  0  0  0  0  0
    0.9239   -3.0143    0.0000 H   0  0  0  0  0  0  0  0  0  0  0  0
    2.0917   -3.5625    0.0000 H   0  0  0  0  0  0  0  0  0  0  0  0
   -0.7662   -0.2625    0.0000 H   0  0  0  0  0  0  0  0  0  0  0  0
   -0.8162    0.6648    0.0000 H   0  0  0  0  0  0  0  0  0  0  0  0
  1  2  1  0  0  0  0
  2  3  1  0  0  0  0
  2  4  1  0  0  0  0
  2  5  1  0  0  0  0
  5  6  1  0  0  0  0
  6  7  1  0  0  0  0
  6  8  1  0  0  0  0
  6  9  1  0  0  0  0
  9 10  4  0  0  0  0
 10 11  4  0  0  0  0
 11 12  4  0  0  0  0
 12 13  1  0  0  0  0
 13 14  1  0  0  0  0
 14 15  1  0  0  0  0
 15 16  1  0  0  0  0
 12 17  4  0  0  0  0
 17 18  4  0  0  0  0
  9 18  4  0  0  0  0
  1 19  1  0  0  0  0
  1 20  1  0  0  0  0
  1 21  1  0  0  0  0
  3 22  1  0  0  0  0
  3 23  1  0  0  0  0
  3 24  1  0  0  0  0
  4 25  1  0  0  0  0
  4 26  1  0  0  0  0
  4 27  1  0  0  0  0
  5 28  1  0  0  0  0
  5 29  1  0  0  0  0
  7 30  1  0  0  0  0
  7 31  1  0  0  0  0
  7 32  1  0  0  0  0
  8 33  1  0  0  0  0
  8 34  1  0  0  0  0
  8 35  1  0  0  0  0
 10 36  1  0  0  0  0
 11 37  1  0  0  0  0
 14 38  1  0  0  0  0
 14 39  1  0  0  0  0
 15 40  1  0  0  0  0
 15 41  1  0  0  0  0
 16 42  1  0  0  0  0
 17 43  1  0  0  0  0
 18 44  1  0  0  0  0
M  END
>  <InChIKey>
InChI=1S/C16H26O2/c1-15(2,3)12-16(4,5)13-6-8-14(9-7-13)18-11-10-17/h6-9,17H,10-12H2,1-5H3

>  <UN GHS>
1

>  <CASRN>
9002-93-1

> <Outcome>
1

>  <Index>
1944

>  <StandardizerResult>
Dearomatize (ID: Dearomatize)
Clear Stereo (ID: ClearStereo)
Wedge Clean (ID: WedgeClean)
Mesomerize (ID: Mesomerize)
Tautomerize (ID: Tautomerize)
Aromatize (ID: Aromatize)
Add Explicit Hydrogens (ID: AddExplicitH)
Neutralize (ID: Neutralize)
Clean 2D (ID: Clean2D)

> <knn Distance>


> <CpId>
1944

$$$$
1950
  Mrv1532301301811342D          

  8  7  0  0  0  0            999 V2000
    1.2397    2.1434    0.0000 Cl  0  0  0  0  0  0  0  0  0  0  0  0
    0.8272    1.4289    0.0000 C   0  0  0  0  0  0  0  0  0  0  0  0
    1.2397    0.7144    0.0000 O   0  0  0  0  0  0  0  0  0  0  0  0
    0.8272   -0.0000    0.0000 C   0  0  0  0  0  0  0  0  0  0  0  0
    1.2397   -0.7145    0.0000 Cl  0  0  0  0  0  0  0  0  0  0  0  0
    0.0022   -0.0000    0.0000 O   0  0  0  0  0  0  0  0  0  0  0  0
    0.0900    1.7992    0.0000 H   0  0  0  0  0  0  0  0  0  0  0  0
    0.0900    1.0587    0.0000 H   0  0  0  0  0  0  0  0  0  0  0  0
  1  2  1  0  0  0  0
  2  3  1  0  0  0  0
  3  4  1  0  0  0  0
  4  5  1  0  0  0  0
  4  6  2  0  0  0  0
  2  7  1  0  0  0  0
  2  8  1  0  0  0  0
M  END
>  <InChIKey>
InChI=1S/C2H2Cl2O2/c3-1-6-2(4)5/h1H2

>  <CASRN>
22128-62-7

> <Outcome>
1

>  <Index>
1950

>  <StandardizerResult>
Clear Stereo (ID: ClearStereo)
Wedge Clean (ID: WedgeClean)
Mesomerize (ID: Mesomerize)
Tautomerize (ID: Tautomerize)
Add Explicit Hydrogens (ID: AddExplicitH)
Neutralize (ID: Neutralize)
Clean 2D (ID: Clean2D)

> <knn Distance>


> <CpId>
1950

$$$$
1955
  Mrv1532301301811342D          

 47 49  0  0  0  0            999 V2000
    2.5367   -4.1683    0.0000 C   0  0  0  0  0  0  0  0  0  0  0  0
    3.1687   -3.6380    0.0000 C   0  0  0  0  0  0  0  0  0  0  0  0
    3.8007   -4.1683    0.0000 C   0  0  0  0  0  0  0  0  0  0  0  0
    2.7562   -2.9235    0.0000 C   0  0  0  0  0  0  0  0  0  0  0  0
    2.0417   -2.5110    0.0000 C   0  0  0  0  0  0  0  0  0  0  0  0
    2.0417   -1.6860    0.0000 C   0  0  0  0  0  0  0  0  0  0  0  0
    1.3273   -1.2735    0.0000 Cl  0  0  0  0  0  0  0  0  0  0  0  0
    2.7562   -1.2735    0.0000 Cl  0  0  0  0  0  0  0  0  0  0  0  0
    3.5812   -2.9235    0.0000 C   0  0  0  0  0  0  0  0  0  0  0  0
    4.2957   -2.5110    0.0000 C   0  0  0  0  0  0  0  0  0  0  0  0
    5.0102   -2.9235    0.0000 O   0  0  0  0  0  0  0  0  0  0  0  0
    4.2957   -1.6860    0.0000 O   0  0  0  0  0  0  0  0  0  0  0  0
    5.0102   -1.2735    0.0000 C   0  0  0  0  0  0  0  0  0  0  0  0
    5.7246   -1.6860    0.0000 C   0  0  0  0  0  0  0  0  0  0  0  0
    6.4391   -2.0985    0.0000 N   0  0  0  0  0  0  0  0  0  0  0  0
    5.0102   -0.4485    0.0000 C   0  0  0  0  0  0  0  0  0  0  0  0
    4.2957   -0.0360    0.0000 C   0  0  0  0  0  0  0  0  0  0  0  0
    4.2957    0.7890    0.0000 C   0  0  0  0  0  0  0  0  0  0  0  0
    5.0102    1.2015    0.0000 C   0  0  0  0  0  0  0  0  0  0  0  0
    5.7246    0.7890    0.0000 C   0  0  0  0  0  0  0  0  0  0  0  0
    6.4391    1.2015    0.0000 O   0  0  0  0  0  0  0  0  0  0  0  0
    7.1536    0.7890    0.0000 C   0  0  0  0  0  0  0  0  0  0  0  0
    7.8680    1.2015    0.0000 C   0  0  0  0  0  0  0  0  0  0  0  0
    8.5825    0.7890    0.0000 C   0  0  0  0  0  0  0  0  0  0  0  0
    8.5825   -0.0360    0.0000 C   0  0  0  0  0  0  0  0  0  0  0  0
    7.8680   -0.4485    0.0000 C   0  0  0  0  0  0  0  0  0  0  0  0
    7.1536   -0.0360    0.0000 C   0  0  0  0  0  0  0  0  0  0  0  0
    5.7246   -0.0360    0.0000 C   0  0  0  0  0  0  0  0  0  0  0  0
    2.0064   -3.5363    0.0000 H   0  0  0  0  0  0  0  0  0  0  0  0
    1.9047   -4.6986    0.0000 H   0  0  0  0  0  0  0  0  0  0  0  0
    3.0670   -4.8002    0.0000 H   0  0  0  0  0  0  0  0  0  0  0  0
    4.0904   -4.9407    0.0000 H   0  0  0  0  0  0  0  0  0  0  0  0
    4.6257   -4.1629    0.0000 H   0  0  0  0  0  0  0  0  0  0  0  0
    4.0804   -3.3921    0.0000 H   0  0  0  0  0  0  0  0  0  0  0  0
    2.9697   -2.1266    0.0000 H   0  0  0  0  0  0  0  0  0  0  0  0
    1.3273   -2.9235    0.0000 H   0  0  0  0  0  0  0  0  0  0  0  0
    3.3677   -2.1266    0.0000 H   0  0  0  0  0  0  0  0  0  0  0  0
    5.0102   -2.0985    0.0000 H   0  0  0  0  0  0  0  0  0  0  0  0
    3.5812   -0.4485    0.0000 H   0  0  0  0  0  0  0  0  0  0  0  0
    3.5812    1.2015    0.0000 H   0  0  0  0  0  0  0  0  0  0  0  0
    5.0102    2.0265    0.0000 H   0  0  0  0  0  0  0  0  0  0  0  0
    7.8680    2.0265    0.0000 H   0  0  0  0  0  0  0  0  0  0  0  0
    9.2970    1.2015    0.0000 H   0  0  0  0  0  0  0  0  0  0  0  0
    9.2970   -0.4485    0.0000 H   0  0  0  0  0  0  0  0  0  0  0  0
    7.8680   -1.2735    0.0000 H   0  0  0  0  0  0  0  0  0  0  0  0
    6.4391   -0.4485    0.0000 H   0  0  0  0  0  0  0  0  0  0  0  0
    5.7246   -0.8610    0.0000 H   0  0  0  0  0  0  0  0  0  0  0  0
  1  2  1  0  0  0  0
  2  3  1  0  0  0  0
  2  4  1  0  0  0  0
  4  5  1  0  0  0  0
  5  6  2  0  0  0  0
  6  7  1  0  0  0  0
  6  8  1  0  0  0  0
  4  9  1  0  0  0  0
  2  9  1  0  0  0  0
  9 10  1  0  0  0  0
 10 11  2  0  0  0  0
 10 12  1  0  0  0  0
 12 13  1  0  0  0  0
 13 14  1  0  0  0  0
 14 15  3  0  0  0  0
 13 16  1  0  0  0  0
 16 17  4  0  0  0  0
 17 18  4  0  0  0  0
 18 19  4  0  0  0  0
 19 20  4  0  0  0  0
 20 21  1  0  0  0  0
 21 22  1  0  0  0  0
 22 23  4  0  0  0  0
 23 24  4  0  0  0  0
 24 25  4  0  0  0  0
 25 26  4  0  0  0  0
 26 27  4  0  0  0  0
 22 27  4  0  0  0  0
 20 28  4  0  0  0  0
 16 28  4  0  0  0  0
  1 29  1  0  0  0  0
  1 30  1  0  0  0  0
  1 31  1  0  0  0  0
  3 32  1  0  0  0  0
  3 33  1  0  0  0  0
  3 34  1  0  0  0  0
  4 35  1  0  0  0  0
  5 36  1  0  0  0  0
  9 37  1  0  0  0  0
 13 38  1  0  0  0  0
 17 39  1  0  0  0  0
 18 40  1  0  0  0  0
 19 41  1  0  0  0  0
 23 42  1  0  0  0  0
 24 43  1  0  0  0  0
 25 44  1  0  0  0  0
 26 45  1  0  0  0  0
 27 46  1  0  0  0  0
 28 47  1  0  0  0  0
M  END
>  <InChIKey>
InChI=1S/C22H19Cl2NO3/c1-22(2)17(12-19(23)24)20(22)21(26)28-18(13-25)14-7-6-10-16(11-14)27-15-8-4-3-5-9-15/h3-12,17-18,20H,1-2H3

>  <CASRN>
65731-84-2

> <Outcome>
1

>  <Index>
1955

>  <StandardizerResult>
Dearomatize (ID: Dearomatize)
Clear Stereo (ID: ClearStereo)
Wedge Clean (ID: WedgeClean)
Mesomerize (ID: Mesomerize)
Tautomerize (ID: Tautomerize)
Aromatize (ID: Aromatize)
Add Explicit Hydrogens (ID: AddExplicitH)
Neutralize (ID: Neutralize)
Clean 2D (ID: Clean2D)

> <knn Distance>


> <CpId>
1955

$$$$
1959
  Mrv1532301301811342D          

 21 21  0  0  0  0            999 V2000
   -0.0000    2.4750    0.0000 O   0  0  0  0  0  0  0  0  0  0  0  0
    0.7145    2.0625    0.0000 C   0  0  0  0  0  0  0  0  0  0  0  0
    1.4289    2.4750    0.0000 O   0  0  0  0  0  0  0  0  0  0  0  0
    0.7145    1.2375    0.0000 C   0  0  0  0  0  0  0  0  0  0  0  0
    1.4289    0.8250    0.0000 C   0  0  0  0  0  0  0  0  0  0  0  0
    1.4289    0.0000    0.0000 C   0  0  0  0  0  0  0  0  0  0  0  0
    0.7145   -0.4125    0.0000 C   0  0  0  0  0  0  0  0  0  0  0  0
   -0.0000    0.0000    0.0000 C   0  0  0  0  0  0  0  0  0  0  0  0
   -0.0000    0.8250    0.0000 C   0  0  0  0  0  0  0  0  0  0  0  0
   -0.7145    1.2375    0.0000 N   0  0  0  0  0  0  0  0  0  0  0  0
   -0.7145    2.0625    0.0000 O   0  0  0  0  0  0  0  0  0  0  0  0
   -1.4289    0.8250    0.0000 O   0  0  0  0  0  0  0  0  0  0  0  0
    0.7145   -1.2375    0.0000 N   0  0  0  0  0  0  0  0  0  0  0  0
    1.4289   -1.6500    0.0000 O   0  0  0  0  0  0  0  0  0  0  0  0
   -0.0000   -1.6500    0.0000 O   0  0  0  0  0  0  0  0  0  0  0  0
    2.1434    1.2375    0.0000 N   0  0  0  0  0  0  0  0  0  0  0  0
    2.8579    0.8250    0.0000 O   0  0  0  0  0  0  0  0  0  0  0  0
    2.1434    2.0625    0.0000 O   0  0  0  0  0  0  0  0  0  0  0  0
   -0.0000    3.3000    0.0000 H   0  0  0  0  0  0  0  0  0  0  0  0
    2.1434   -0.4125    0.0000 H   0  0  0  0  0  0  0  0  0  0  0  0
   -0.7145   -0.4125    0.0000 H   0  0  0  0  0  0  0  0  0  0  0  0
  1  2  1  0  0  0  0
  2  3  2  0  0  0  0
  2  4  1  0  0  0  0
  4  5  4  0  0  0  0
  5  6  4  0  0  0  0
  6  7  4  0  0  0  0
  7  8  4  0  0  0  0
  8  9  4  0  0  0  0
  4  9  4  0  0  0  0
  9 10  1  0  0  0  0
 10 11  2  0  0  0  0
 10 12  2  0  0  0  0
  7 13  1  0  0  0  0
 13 14  2  0  0  0  0
 13 15  2  0  0  0  0
  5 16  1  0  0  0  0
 16 17  2  0  0  0  0
 16 18  2  0  0  0  0
  1 19  1  0  0  0  0
  6 20  1  0  0  0  0
  8 21  1  0  0  0  0
M  END
>  <InChIKey>
InChI=1S/C7H3N3O8/c11-7(12)6-4(9(15)16)1-3(8(13)14)2-5(6)10(17)18/h1-2H,(H,11,12)

>  <CASRN>
129-66-8

> <Outcome>
1

>  <Index>
1959

>  <StandardizerResult>
Dearomatize (ID: Dearomatize)
Clear Stereo (ID: ClearStereo)
Wedge Clean (ID: WedgeClean)
Mesomerize (ID: Mesomerize)
Tautomerize (ID: Tautomerize)
Aromatize (ID: Aromatize)
Add Explicit Hydrogens (ID: AddExplicitH)
Neutralize (ID: Neutralize)
Clean 2D (ID: Clean2D)

> <knn Distance>


> <CpId>
1959

$$$$
1961
  Mrv1532301301811342D          

 18 18  0  0  0  0            999 V2000
    0.7145    2.0625    0.0000 N   0  0  0  0  0  0  0  0  0  0  0  0
    0.7145    1.2375    0.0000 C   0  0  0  0  0  0  0  0  0  0  0  0
    1.4289    0.8250    0.0000 C   0  0  0  0  0  0  0  0  0  0  0  0
    1.4289    0.0000    0.0000 C   0  0  0  0  0  0  0  0  0  0  0  0
    0.7145   -0.4125    0.0000 C   0  0  0  0  0  0  0  0  0  0  0  0
    0.7145   -1.2375    0.0000 O   0  0  0  0  0  0  0  0  0  0  0  0
    0.0000    0.0000    0.0000 C   0  0  0  0  0  0  0  0  0  0  0  0
    0.0000    0.8250    0.0000 C   0  0  0  0  0  0  0  0  0  0  0  0
   -0.7145   -0.4125    0.0000 C   0  0  0  0  0  0  0  0  0  0  0  0
   -1.4289    0.0000    0.0000 O   0  0  0  0  0  0  0  0  0  0  0  0
   -0.7145   -1.2375    0.0000 O   0  0  0  0  0  0  0  0  0  0  0  0
    1.4289    2.4750    0.0000 H   0  0  0  0  0  0  0  0  0  0  0  0
    0.0000    2.4750    0.0000 H   0  0  0  0  0  0  0  0  0  0  0  0
    2.1434    1.2375    0.0000 H   0  0  0  0  0  0  0  0  0  0  0  0
    2.1434   -0.4125    0.0000 H   0  0  0  0  0  0  0  0  0  0  0  0
    0.0000   -1.6500    0.0000 H   0  0  0  0  0  0  0  0  0  0  0  0
   -0.7145    1.2375    0.0000 H   0  0  0  0  0  0  0  0  0  0  0  0
   -1.4289    0.8250    0.0000 H   0  0  0  0  0  0  0  0  0  0  0  0
  1  2  1  0  0  0  0
  2  3  4  0  0  0  0
  3  4  4  0  0  0  0
  4  5  4  0  0  0  0
  5  6  1  0  0  0  0
  5  7  4  0  0  0  0
  7  8  4  0  0  0  0
  2  8  4  0  0  0  0
  7  9  1  0  0  0  0
  9 10  1  0  0  0  0
  9 11  2  0  0  0  0
  1 12  1  0  0  0  0
  1 13  1  0  0  0  0
  3 14  1  0  0  0  0
  4 15  1  0  0  0  0
  6 16  1  0  0  0  0
  8 17  1  0  0  0  0
 10 18  1  0  0  0  0
M  END
>  <InChIKey>
InChI=1S/C7H7NO3/c8-4-1-2-6(9)5(3-4)7(10)11/h1-3,9H,8H2,(H,10,11)

>  <CASRN>
89-57-6

> <Outcome>
1

>  <Index>
1961

>  <StandardizerResult>
Dearomatize (ID: Dearomatize)
Clear Stereo (ID: ClearStereo)
Wedge Clean (ID: WedgeClean)
Mesomerize (ID: Mesomerize)
Tautomerize (ID: Tautomerize)
Aromatize (ID: Aromatize)
Add Explicit Hydrogens (ID: AddExplicitH)
Neutralize (ID: Neutralize)
Clean 2D (ID: Clean2D)

> <knn Distance>


> <CpId>
1961

$$$$
1963
  Mrv1532301301811342D          

 16 15  0  0  0  0            999 V2000
    2.1224   -0.7737    0.0000 C   0  0  0  0  0  0  0  0  0  0  0  0
    1.2974   -0.7737    0.0000 C   0  0  0  0  0  0  0  0  0  0  0  0
    0.8849   -1.4882    0.0000 C   0  0  0  0  0  0  0  0  0  0  0  0
    0.8849   -0.0593    0.0000 C   0  0  0  0  0  0  0  0  0  0  0  0
    0.0599   -0.0593    0.0000 N   0  0  0  0  0  0  0  0  0  0  0  0
    2.1224   -1.5987    0.0000 H   0  0  0  0  0  0  0  0  0  0  0  0
    2.9474   -0.7737    0.0000 H   0  0  0  0  0  0  0  0  0  0  0  0
    2.1224    0.0513    0.0000 H   0  0  0  0  0  0  0  0  0  0  0  0
    1.7099   -1.4882    0.0000 H   0  0  0  0  0  0  0  0  0  0  0  0
    0.3015   -0.9049    0.0000 H   0  0  0  0  0  0  0  0  0  0  0  0
    0.1704   -1.9007    0.0000 H   0  0  0  0  0  0  0  0  0  0  0  0
    1.0984   -2.2851    0.0000 H   0  0  0  0  0  0  0  0  0  0  0  0
    1.5741    0.3941    0.0000 H   0  0  0  0  0  0  0  0  0  0  0  0
    0.9328    0.7643    0.0000 H   0  0  0  0  0  0  0  0  0  0  0  0
   -0.2385    0.7099    0.0000 H   0  0  0  0  0  0  0  0  0  0  0  0
   -0.7617    0.0163    0.0000 H   0  0  0  0  0  0  0  0  0  0  0  0
  1  2  1  0  0  0  0
  2  3  1  0  0  0  0
  2  4  1  0  0  0  0
  4  5  1  0  0  0  0
  1  6  1  0  0  0  0
  1  7  1  0  0  0  0
  1  8  1  0  0  0  0
  2  9  1  0  0  0  0
  3 10  1  0  0  0  0
  3 11  1  0  0  0  0
  3 12  1  0  0  0  0
  4 13  1  0  0  0  0
  4 14  1  0  0  0  0
  5 15  1  0  0  0  0
  5 16  1  0  0  0  0
M  END
>  <InChIKey>
InChI=1S/C4H11N/c1-4(2)3-5/h4H,3,5H2,1-2H3

>  <CASRN>
78-81-9

> <Outcome>
1

>  <Index>
1963

>  <StandardizerResult>
Clear Stereo (ID: ClearStereo)
Wedge Clean (ID: WedgeClean)
Mesomerize (ID: Mesomerize)
Tautomerize (ID: Tautomerize)
Add Explicit Hydrogens (ID: AddExplicitH)
Neutralize (ID: Neutralize)
Clean 2D (ID: Clean2D)

> <knn Distance>


> <CpId>
1963

$$$$
1968
  Mrv1532301301811342D          

 17 17  0  0  0  0            999 V2000
    1.1495    1.7787    0.0000 C   0  0  0  0  0  0  0  0  0  0  0  0
    0.5974    1.1656    0.0000 C   0  0  0  0  0  0  0  0  0  0  0  0
    0.0454    1.7787    0.0000 C   0  0  0  0  0  0  0  0  0  0  0  0
    1.2649    0.6807    0.0000 N   0  0  0  0  0  0  0  0  0  0  0  0
    2.0495    0.9356    0.0000 Cl  0  0  0  0  0  0  0  0  0  0  0  0
    1.0099   -0.1039    0.0000 C   0  0  0  0  0  0  0  0  0  0  0  0
    1.4949   -0.7714    0.0000 O   0  0  0  0  0  0  0  0  0  0  0  0
    0.1849   -0.1039    0.0000 N   0  0  0  0  0  0  0  0  0  0  0  0
   -0.3000   -0.7714    0.0000 Cl  0  0  0  0  0  0  0  0  0  0  0  0
   -0.0700    0.6807    0.0000 C   0  0  0  0  0  0  0  0  0  0  0  0
   -0.8546    0.9356    0.0000 O   0  0  0  0  0  0  0  0  0  0  0  0
    1.7626    1.2267    0.0000 H   0  0  0  0  0  0  0  0  0  0  0  0
    1.7015    2.3918    0.0000 H   0  0  0  0  0  0  0  0  0  0  0  0
    0.5364    2.3308    0.0000 H   0  0  0  0  0  0  0  0  0  0  0  0
   -0.2936    2.5308    0.0000 H   0  0  0  0  0  0  0  0  0  0  0  0
   -0.7796    1.7762    0.0000 H   0  0  0  0  0  0  0  0  0  0  0  0
   -0.2890    1.0245    0.0000 H   0  0  0  0  0  0  0  0  0  0  0  0
  1  2  1  0  0  0  0
  2  3  1  0  0  0  0
  2  4  1  0  0  0  0
  4  5  1  0  0  0  0
  4  6  1  0  0  0  0
  6  7  2  0  0  0  0
  6  8  1  0  0  0  0
  8  9  1  0  0  0  0
  8 10  1  0  0  0  0
  2 10  1  0  0  0  0
 10 11  2  0  0  0  0
  1 12  1  0  0  0  0
  1 13  1  0  0  0  0
  1 14  1  0  0  0  0
  3 15  1  0  0  0  0
  3 16  1  0  0  0  0
  3 17  1  0  0  0  0
M  END
>  <InChIKey>
InChI=1S/C5H6Cl2N2O2/c1-5(2)3(10)8(6)4(11)9(5)7/h1-2H3

>  <CASRN>
118-52-5

> <Outcome>
1

>  <Index>
1968

>  <StandardizerResult>
Clear Stereo (ID: ClearStereo)
Wedge Clean (ID: WedgeClean)
Mesomerize (ID: Mesomerize)
Tautomerize (ID: Tautomerize)
Add Explicit Hydrogens (ID: AddExplicitH)
Neutralize (ID: Neutralize)
Clean 2D (ID: Clean2D)

> <knn Distance>


> <CpId>
1968

$$$$
1969
  Mrv1532301301811342D          

 18 18  0  0  0  0            999 V2000
    0.7153    2.0630    0.0000 O   0  0  0  0  0  0  0  0  0  0  0  0
    0.7153    1.2380    0.0000 C   0  0  0  0  0  0  0  0  0  0  0  0
    1.4298    0.8255    0.0000 C   0  0  0  0  0  0  0  0  0  0  0  0
    1.4298    0.0005    0.0000 C   0  0  0  0  0  0  0  0  0  0  0  0
    0.7153   -0.4120    0.0000 C   0  0  0  0  0  0  0  0  0  0  0  0
    0.0008    0.0005    0.0000 C   0  0  0  0  0  0  0  0  0  0  0  0
    0.0008    0.8255    0.0000 C   0  0  0  0  0  0  0  0  0  0  0  0
   -0.7136    1.2380    0.0000 C   0  0  0  0  0  0  0  0  0  0  0  0
   -0.7136    2.0630    0.0000 Br  0  0  0  0  0  0  0  0  0  0  0  0
    0.7153   -1.2370    0.0000 N   0  0  0  0  0  0  0  0  0  0  0  0
    1.4298   -1.6495    0.0000 O   0  0  0  0  0  0  0  0  0  0  0  0
    0.0008   -1.6495    0.0000 O   0  0  0  0  0  0  0  0  0  0  0  0
    1.4298    2.4755    0.0000 H   0  0  0  0  0  0  0  0  0  0  0  0
    2.1443    1.2380    0.0000 H   0  0  0  0  0  0  0  0  0  0  0  0
    2.1443   -0.4120    0.0000 H   0  0  0  0  0  0  0  0  0  0  0  0
   -0.7136   -0.4120    0.0000 H   0  0  0  0  0  0  0  0  0  0  0  0
   -1.5372    1.1900    0.0000 H   0  0  0  0  0  0  0  0  0  0  0  0
   -1.1670    0.5487    0.0000 H   0  0  0  0  0  0  0  0  0  0  0  0
  1  2  1  0  0  0  0
  2  3  4  0  0  0  0
  3  4  4  0  0  0  0
  4  5  4  0  0  0  0
  5  6  4  0  0  0  0
  6  7  4  0  0  0  0
  2  7  4  0  0  0  0
  7  8  1  0  0  0  0
  8  9  1  0  0  0  0
  5 10  1  0  0  0  0
 10 11  2  0  0  0  0
 10 12  2  0  0  0  0
  1 13  1  0  0  0  0
  3 14  1  0  0  0  0
  4 15  1  0  0  0  0
  6 16  1  0  0  0  0
  8 17  1  0  0  0  0
  8 18  1  0  0  0  0
M  END
>  <InChIKey>
InChI=1S/C7H6BrNO3/c8-4-5-3-6(9(11)12)1-2-7(5)10/h1-3,10H,4H2

>  <CASRN>
772-33-8

> <Outcome>
1

>  <Index>
1969

>  <StandardizerResult>
Dearomatize (ID: Dearomatize)
Clear Stereo (ID: ClearStereo)
Wedge Clean (ID: WedgeClean)
Mesomerize (ID: Mesomerize)
Tautomerize (ID: Tautomerize)
Aromatize (ID: Aromatize)
Add Explicit Hydrogens (ID: AddExplicitH)
Neutralize (ID: Neutralize)
Clean 2D (ID: Clean2D)

> <knn Distance>


> <CpId>
1969

$$$$
1970
  Mrv1532301301811342D          

 15 15  0  0  0  0            999 V2000
   -0.0000    2.4750    0.0000 C   0  0  0  0  0  0  0  0  0  0  0  0
    0.7145    2.0625    0.0000 C   0  0  0  0  0  0  0  0  0  0  0  0
    0.7145    1.2375    0.0000 C   0  0  0  0  0  0  0  0  0  0  0  0
    1.4289    0.8250    0.0000 C   0  0  0  0  0  0  0  0  0  0  0  0
    1.4289   -0.0000    0.0000 C   0  0  0  0  0  0  0  0  0  0  0  0
    0.7145   -0.4125    0.0000 N   0  0  0  0  0  0  0  0  0  0  0  0
   -0.0000   -0.0000    0.0000 C   0  0  0  0  0  0  0  0  0  0  0  0
   -0.0000    0.8250    0.0000 C   0  0  0  0  0  0  0  0  0  0  0  0
   -0.0000    3.3000    0.0000 H   0  0  0  0  0  0  0  0  0  0  0  0
   -0.7145    2.0625    0.0000 H   0  0  0  0  0  0  0  0  0  0  0  0
    1.4289    2.4750    0.0000 H   0  0  0  0  0  0  0  0  0  0  0  0
    2.1434    1.2375    0.0000 H   0  0  0  0  0  0  0  0  0  0  0  0
    2.1434   -0.4125    0.0000 H   0  0  0  0  0  0  0  0  0  0  0  0
   -0.7145   -0.4125    0.0000 H   0  0  0  0  0  0  0  0  0  0  0  0
   -0.7145    1.2375    0.0000 H   0  0  0  0  0  0  0  0  0  0  0  0
  1  2  2  0  0  0  0
  2  3  1  0  0  0  0
  3  4  4  0  0  0  0
  4  5  4  0  0  0  0
  5  6  4  0  0  0  0
  6  7  4  0  0  0  0
  7  8  4  0  0  0  0
  3  8  4  0  0  0  0
  1  9  1  0  0  0  0
  1 10  1  0  0  0  0
  2 11  1  0  0  0  0
  4 12  1  0  0  0  0
  5 13  1  0  0  0  0
  7 14  1  0  0  0  0
  8 15  1  0  0  0  0
M  END
>  <InChIKey>
InChI=1S/C7H7N/c1-2-7-3-5-8-6-4-7/h2-6H,1H2

>  <CASRN>
100-43-6

> <Outcome>
1

>  <Index>
1970

>  <StandardizerResult>
Dearomatize (ID: Dearomatize)
Clear Stereo (ID: ClearStereo)
Wedge Clean (ID: WedgeClean)
Mesomerize (ID: Mesomerize)
Tautomerize (ID: Tautomerize)
Aromatize (ID: Aromatize)
Add Explicit Hydrogens (ID: AddExplicitH)
Neutralize (ID: Neutralize)
Clean 2D (ID: Clean2D)

> <knn Distance>


> <CpId>
1970

$$$$
1973
  Mrv1532301301811342D          

  6  5  0  0  0  0            999 V2000
    1.2375    0.7145    0.0000 Cl  0  0  0  0  0  0  0  0  0  0  0  0
    0.8250    0.0000    0.0000 C   0  0  0  0  0  0  0  0  0  0  0  0
    0.0000    0.0000    0.0000 C   0  0  0  0  0  0  0  0  0  0  0  0
   -0.4125   -0.7145    0.0000 Cl  0  0  0  0  0  0  0  0  0  0  0  0
    1.2375   -0.7145    0.0000 H   0  0  0  0  0  0  0  0  0  0  0  0
   -0.4125    0.7145    0.0000 H   0  0  0  0  0  0  0  0  0  0  0  0
  2  1  1  4  0  0  0
  2  3  2  0  0  0  0
  3  4  1  0  0  0  0
  2  5  1  0  0  0  0
  3  6  1  0  0  0  0
M  END
>  <InChIKey>
InChI=1S/C2H2Cl2/c3-1-2-4/h1-2H

>  <CASRN>
540-59-0

> <Outcome>
1

>  <Index>
1973

>  <StandardizerResult>
Clear Stereo (ID: ClearStereo)
Wedge Clean (ID: WedgeClean)
Mesomerize (ID: Mesomerize)
Tautomerize (ID: Tautomerize)
Add Explicit Hydrogens (ID: AddExplicitH)
Neutralize (ID: Neutralize)
Clean 2D (ID: Clean2D)

> <knn Distance>


> <CpId>
1973

$$$$
1976
  Mrv1532301301811342D          

 15 15  0  0  0  0            999 V2000
    0.0000    2.4750    0.0000 C   0  0  0  0  0  0  0  0  0  0  0  0
    0.7145    2.0625    0.0000 C   0  0  0  0  0  0  0  0  0  0  0  0
    0.7145    1.2375    0.0000 C   0  0  0  0  0  0  0  0  0  0  0  0
    1.4289    0.8250    0.0000 C   0  0  0  0  0  0  0  0  0  0  0  0
    1.4289   -0.0000    0.0000 C   0  0  0  0  0  0  0  0  0  0  0  0
    0.7145   -0.4125    0.0000 C   0  0  0  0  0  0  0  0  0  0  0  0
    0.0000   -0.0000    0.0000 C   0  0  0  0  0  0  0  0  0  0  0  0
    0.0000    0.8250    0.0000 N   0  0  0  0  0  0  0  0  0  0  0  0
    0.0000    3.3000    0.0000 H   0  0  0  0  0  0  0  0  0  0  0  0
   -0.7145    2.0625    0.0000 H   0  0  0  0  0  0  0  0  0  0  0  0
    1.4289    2.4750    0.0000 H   0  0  0  0  0  0  0  0  0  0  0  0
    2.1434    1.2375    0.0000 H   0  0  0  0  0  0  0  0  0  0  0  0
    2.1434   -0.4125    0.0000 H   0  0  0  0  0  0  0  0  0  0  0  0
    0.7145   -1.2375    0.0000 H   0  0  0  0  0  0  0  0  0  0  0  0
   -0.7145   -0.4125    0.0000 H   0  0  0  0  0  0  0  0  0  0  0  0
  1  2  2  0  0  0  0
  2  3  1  0  0  0  0
  3  4  4  0  0  0  0
  4  5  4  0  0  0  0
  5  6  4  0  0  0  0
  6  7  4  0  0  0  0
  7  8  4  0  0  0  0
  3  8  4  0  0  0  0
  1  9  1  0  0  0  0
  1 10  1  0  0  0  0
  2 11  1  0  0  0  0
  4 12  1  0  0  0  0
  5 13  1  0  0  0  0
  6 14  1  0  0  0  0
  7 15  1  0  0  0  0
M  END
>  <InChIKey>
InChI=1S/C7H7N/c1-2-7-5-3-4-6-8-7/h2-6H,1H2

>  <CASRN>
100-69-6

> <Outcome>
1

>  <Index>
1976

>  <StandardizerResult>
Dearomatize (ID: Dearomatize)
Clear Stereo (ID: ClearStereo)
Wedge Clean (ID: WedgeClean)
Mesomerize (ID: Mesomerize)
Tautomerize (ID: Tautomerize)
Aromatize (ID: Aromatize)
Add Explicit Hydrogens (ID: AddExplicitH)
Neutralize (ID: Neutralize)
Clean 2D (ID: Clean2D)

> <knn Distance>


> <CpId>
1976

$$$$
1979
  Mrv1532301301811342D          

 18 17  0  0  0  0            999 V2000
   -0.1914    0.7145    0.0000 N   0  0  0  0  0  0  0  0  0  0  0  0
    0.5230    1.1270    0.0000 C   0  0  0  0  0  0  0  0  0  0  0  0
    1.2375    0.7145    0.0000 C   0  0  0  0  0  0  0  0  0  0  0  0
    1.9520    1.1270    0.0000 C   0  0  0  0  0  0  0  0  0  0  0  0
    2.6664    0.7145    0.0000 C   0  0  0  0  0  0  0  0  0  0  0  0
    3.3809    1.1270    0.0000 N   0  0  0  0  0  0  0  0  0  0  0  0
   -0.9059    1.1270    0.0000 H   0  0  0  0  0  0  0  0  0  0  0  0
   -0.1914   -0.1105    0.0000 H   0  0  0  0  0  0  0  0  0  0  0  0
    0.8933    1.8642    0.0000 H   0  0  0  0  0  0  0  0  0  0  0  0
    0.1528    1.8642    0.0000 H   0  0  0  0  0  0  0  0  0  0  0  0
    0.8672   -0.0227    0.0000 H   0  0  0  0  0  0  0  0  0  0  0  0
    1.6078   -0.0227    0.0000 H   0  0  0  0  0  0  0  0  0  0  0  0
    2.3222    1.8642    0.0000 H   0  0  0  0  0  0  0  0  0  0  0  0
    1.5817    1.8642    0.0000 H   0  0  0  0  0  0  0  0  0  0  0  0
    2.2962   -0.0227    0.0000 H   0  0  0  0  0  0  0  0  0  0  0  0
    3.0367   -0.0227    0.0000 H   0  0  0  0  0  0  0  0  0  0  0  0
    4.0954    0.7145    0.0000 H   0  0  0  0  0  0  0  0  0  0  0  0
    3.3809    1.9520    0.0000 H   0  0  0  0  0  0  0  0  0  0  0  0
  1  2  1  0  0  0  0
  2  3  1  0  0  0  0
  3  4  1  0  0  0  0
  4  5  1  0  0  0  0
  5  6  1  0  0  0  0
  1  7  1  0  0  0  0
  1  8  1  0  0  0  0
  2  9  1  0  0  0  0
  2 10  1  0  0  0  0
  3 11  1  0  0  0  0
  3 12  1  0  0  0  0
  4 13  1  0  0  0  0
  4 14  1  0  0  0  0
  5 15  1  0  0  0  0
  5 16  1  0  0  0  0
  6 17  1  0  0  0  0
  6 18  1  0  0  0  0
M  END
>  <InChIKey>
InChI=1S/C4H12N2/c5-3-1-2-4-6/h1-6H2

>  <CASRN>
110-60-1

> <Outcome>
1

>  <Index>
1979

>  <StandardizerResult>
Clear Stereo (ID: ClearStereo)
Wedge Clean (ID: WedgeClean)
Mesomerize (ID: Mesomerize)
Tautomerize (ID: Tautomerize)
Add Explicit Hydrogens (ID: AddExplicitH)
Neutralize (ID: Neutralize)
Clean 2D (ID: Clean2D)

> <knn Distance>


> <CpId>
1979

$$$$
1983
  Mrv1532301301811342D          

 34 35  0  0  0  0            999 V2000
   -0.7145   -1.2375    0.0000 O   0  0  0  0  0  0  0  0  0  0  0  0
    0.0000   -1.6500    0.0000 C   0  0  0  0  0  0  0  0  0  0  0  0
    0.7145   -1.2375    0.0000 O   0  0  0  0  0  0  0  0  0  0  0  0
    0.0000   -2.4750    0.0000 C   0  0  0  0  0  0  0  0  0  0  0  0
    0.7145   -2.8875    0.0000 C   0  0  0  0  0  0  0  0  0  0  0  0
    0.7145   -3.7125    0.0000 C   0  0  0  0  0  0  0  0  0  0  0  0
    1.4289   -4.1250    0.0000 S   0  0  0  0  0  0  0  0  0  0  0  0
    1.4289   -4.9500    0.0000 S   0  0  0  0  0  0  0  0  0  0  0  0
    2.1434   -5.3625    0.0000 C   0  0  0  0  0  0  0  0  0  0  0  0
    2.8579   -4.9500    0.0000 C   0  0  0  0  0  0  0  0  0  0  0  0
    3.5724   -5.3625    0.0000 C   0  0  0  0  0  0  0  0  0  0  0  0
    3.5724   -6.1875    0.0000 C   0  0  0  0  0  0  0  0  0  0  0  0
    2.8579   -6.6000    0.0000 C   0  0  0  0  0  0  0  0  0  0  0  0
    2.1434   -6.1875    0.0000 C   0  0  0  0  0  0  0  0  0  0  0  0
    2.8579   -7.4250    0.0000 C   0  0  0  0  0  0  0  0  0  0  0  0
    2.1434   -7.8375    0.0000 O   0  0  0  0  0  0  0  0  0  0  0  0
    3.5724   -7.8375    0.0000 O   0  0  0  0  0  0  0  0  0  0  0  0
    4.2868   -6.6000    0.0000 N   0  0  0  0  0  0  0  0  0  0  0  0
    4.2868   -7.4250    0.0000 O   0  0  0  0  0  0  0  0  0  0  0  0
    5.0013   -6.1875    0.0000 O   0  0  0  0  0  0  0  0  0  0  0  0
    0.0000   -4.1250    0.0000 C   0  0  0  0  0  0  0  0  0  0  0  0
   -0.7145   -3.7125    0.0000 C   0  0  0  0  0  0  0  0  0  0  0  0
   -0.7145   -2.8875    0.0000 C   0  0  0  0  0  0  0  0  0  0  0  0
   -1.4289   -2.4750    0.0000 N   0  0  0  0  0  0  0  0  0  0  0  0
   -2.1434   -2.8875    0.0000 O   0  0  0  0  0  0  0  0  0  0  0  0
   -1.4289   -1.6500    0.0000 O   0  0  0  0  0  0  0  0  0  0  0  0
   -0.7145   -0.4125    0.0000 H   0  0  0  0  0  0  0  0  0  0  0  0
    1.4289   -2.4750    0.0000 H   0  0  0  0  0  0  0  0  0  0  0  0
    2.8579   -4.1250    0.0000 H   0  0  0  0  0  0  0  0  0  0  0  0
    4.2868   -4.9500    0.0000 H   0  0  0  0  0  0  0  0  0  0  0  0
    1.4289   -6.6000    0.0000 H   0  0  0  0  0  0  0  0  0  0  0  0
    1.4289   -7.4250    0.0000 H   0  0  0  0  0  0  0  0  0  0  0  0
    0.0000   -4.9500    0.0000 H   0  0  0  0  0  0  0  0  0  0  0  0
   -1.4289   -4.1250    0.0000 H   0  0  0  0  0  0  0  0  0  0  0  0
  1  2  1  0  0  0  0
  2  3  2  0  0  0  0
  2  4  1  0  0  0  0
  4  5  4  0  0  0  0
  5  6  4  0  0  0  0
  6  7  1  0  0  0  0
  7  8  1  0  0  0  0
  8  9  1  0  0  0  0
  9 10  4  0  0  0  0
 10 11  4  0  0  0  0
 11 12  4  0  0  0  0
 12 13  4  0  0  0  0
 13 14  4  0  0  0  0
  9 14  4  0  0  0  0
 13 15  1  0  0  0  0
 15 16  1  0  0  0  0
 15 17  2  0  0  0  0
 12 18  1  0  0  0  0
 18 19  2  0  0  0  0
 18 20  2  0  0  0  0
  6 21  4  0  0  0  0
 21 22  4  0  0  0  0
 22 23  4  0  0  0  0
  4 23  4  0  0  0  0
 23 24  1  0  0  0  0
 24 25  2  0  0  0  0
 24 26  2  0  0  0  0
  1 27  1  0  0  0  0
  5 28  1  0  0  0  0
 10 29  1  0  0  0  0
 11 30  1  0  0  0  0
 14 31  1  0  0  0  0
 16 32  1  0  0  0  0
 21 33  1  0  0  0  0
 22 34  1  0  0  0  0
M  END
>  <InChIKey>
InChI=1S/C14H8N2O8S2/c17-13(18)9-5-7(1-3-11(9)15(21)22)25-26-8-2-4-12(16(23)24)10(6-8)14(19)20/h1-6H,(H,17,18)(H,19,20)

>  <CASRN>
69-78-3

> <Outcome>
1

>  <Index>
1983

>  <StandardizerResult>
Dearomatize (ID: Dearomatize)
Clear Stereo (ID: ClearStereo)
Wedge Clean (ID: WedgeClean)
Mesomerize (ID: Mesomerize)
Tautomerize (ID: Tautomerize)
Aromatize (ID: Aromatize)
Add Explicit Hydrogens (ID: AddExplicitH)
Neutralize (ID: Neutralize)
Clean 2D (ID: Clean2D)

> <knn Distance>


> <CpId>
1983

$$$$
1990
  Mrv1532301301811342D          

 18 18  0  0  0  0            999 V2000
   -0.7145    3.7125    0.0000 O   0  0  0  0  0  0  0  0  0  0  0  0
   -0.0000    3.3000    0.0000 C   0  0  0  0  0  0  0  0  0  0  0  0
   -0.0000    2.4750    0.0000 C   0  0  0  0  0  0  0  0  0  0  0  0
    0.7145    2.0625    0.0000 C   0  0  0  0  0  0  0  0  0  0  0  0
    0.7145    1.2375    0.0000 C   0  0  0  0  0  0  0  0  0  0  0  0
    1.4289    0.8250    0.0000 C   0  0  0  0  0  0  0  0  0  0  0  0
    1.4289    0.0000    0.0000 C   0  0  0  0  0  0  0  0  0  0  0  0
    0.7145   -0.4125    0.0000 C   0  0  0  0  0  0  0  0  0  0  0  0
   -0.0000    0.0000    0.0000 C   0  0  0  0  0  0  0  0  0  0  0  0
   -0.0000    0.8250    0.0000 C   0  0  0  0  0  0  0  0  0  0  0  0
    0.7145    3.7125    0.0000 H   0  0  0  0  0  0  0  0  0  0  0  0
   -0.7145    2.0625    0.0000 H   0  0  0  0  0  0  0  0  0  0  0  0
    1.4289    2.4750    0.0000 H   0  0  0  0  0  0  0  0  0  0  0  0
    2.1434    1.2375    0.0000 H   0  0  0  0  0  0  0  0  0  0  0  0
    2.1434   -0.4125    0.0000 H   0  0  0  0  0  0  0  0  0  0  0  0
    0.7145   -1.2375    0.0000 H   0  0  0  0  0  0  0  0  0  0  0  0
   -0.7145   -0.4125    0.0000 H   0  0  0  0  0  0  0  0  0  0  0  0
   -0.7145    1.2375    0.0000 H   0  0  0  0  0  0  0  0  0  0  0  0
  1  2  2  0  0  0  0
  3  2  1  4  0  0  0
  3  4  2  0  0  0  0
  4  5  1  0  0  0  0
  5  6  4  0  0  0  0
  6  7  4  0  0  0  0
  7  8  4  0  0  0  0
  8  9  4  0  0  0  0
  9 10  4  0  0  0  0
  5 10  4  0  0  0  0
  2 11  1  0  0  0  0
  3 12  1  0  0  0  0
  4 13  1  0  0  0  0
  6 14  1  0  0  0  0
  7 15  1  0  0  0  0
  8 16  1  0  0  0  0
  9 17  1  0  0  0  0
 10 18  1  0  0  0  0
M  END
>  <InChIKey>
InChI=1S/C9H8O/c10-8-4-7-9-5-2-1-3-6-9/h1-8H

>  <CASRN>
104-55-2

> <Outcome>
1

>  <Index>
1990

>  <StandardizerResult>
Dearomatize (ID: Dearomatize)
Clear Stereo (ID: ClearStereo)
Wedge Clean (ID: WedgeClean)
Mesomerize (ID: Mesomerize)
Tautomerize (ID: Tautomerize)
Aromatize (ID: Aromatize)
Add Explicit Hydrogens (ID: AddExplicitH)
Neutralize (ID: Neutralize)
Clean 2D (ID: Clean2D)

> <knn Distance>


> <CpId>
1990

$$$$
1991
  Mrv1532301301811342D          

 12 11  0  0  0  0            999 V2000
    1.2719    0.7593    0.0000 C   0  0  0  0  0  0  0  0  0  0  0  0
    0.8594    0.0448    0.0000 C   0  0  0  0  0  0  0  0  0  0  0  0
    1.2719   -0.6697    0.0000 C   0  0  0  0  0  0  0  0  0  0  0  0
    0.0344    0.0448    0.0000 S   0  0  0  0  0  0  0  0  0  0  0  0
    1.9863    0.3468    0.0000 H   0  0  0  0  0  0  0  0  0  0  0  0
    1.6844    1.4737    0.0000 H   0  0  0  0  0  0  0  0  0  0  0  0
    0.5574    1.1718    0.0000 H   0  0  0  0  0  0  0  0  0  0  0  0
    1.6844    0.0448    0.0000 H   0  0  0  0  0  0  0  0  0  0  0  0
    0.4750   -0.8832    0.0000 H   0  0  0  0  0  0  0  0  0  0  0  0
    1.2719   -1.4947    0.0000 H   0  0  0  0  0  0  0  0  0  0  0  0
    2.0688   -0.8832    0.0000 H   0  0  0  0  0  0  0  0  0  0  0  0
   -0.3781    0.7593    0.0000 H   0  0  0  0  0  0  0  0  0  0  0  0
  1  2  1  0  0  0  0
  2  3  1  0  0  0  0
  2  4  1  0  0  0  0
  1  5  1  0  0  0  0
  1  6  1  0  0  0  0
  1  7  1  0  0  0  0
  2  8  1  0  0  0  0
  3  9  1  0  0  0  0
  3 10  1  0  0  0  0
  3 11  1  0  0  0  0
  4 12  1  0  0  0  0
M  END
>  <InChIKey>
InChI=1S/C3H8S/c1-3(2)4/h3-4H,1-2H3

>  <CASRN>
75-33-2

> <Outcome>
1

>  <Index>
1991

>  <StandardizerResult>
Clear Stereo (ID: ClearStereo)
Wedge Clean (ID: WedgeClean)
Mesomerize (ID: Mesomerize)
Tautomerize (ID: Tautomerize)
Add Explicit Hydrogens (ID: AddExplicitH)
Neutralize (ID: Neutralize)
Clean 2D (ID: Clean2D)

> <knn Distance>


> <CpId>
1991

$$$$
1992
  Mrv1532301301811342D          

 23 22  0  0  0  0            999 V2000
   -0.2141   -0.7029    0.0000 C   0  0  0  0  0  0  0  0  0  0  0  0
    0.5004   -1.1154    0.0000 C   0  0  0  0  0  0  0  0  0  0  0  0
    1.2149   -0.7029    0.0000 N   0  0  0  0  0  0  0  0  0  0  0  0
    1.2149    0.1221    0.0000 C   0  0  0  0  0  0  0  0  0  0  0  0
    1.9293    0.5346    0.0000 C   0  0  0  0  0  0  0  0  0  0  0  0
    1.9293   -1.1154    0.0000 C   0  0  0  0  0  0  0  0  0  0  0  0
    1.9293   -1.9404    0.0000 C   0  0  0  0  0  0  0  0  0  0  0  0
    2.6438   -0.7029    0.0000 C   0  0  0  0  0  0  0  0  0  0  0  0
    3.3583   -0.2904    0.0000 N   0  0  0  0  0  0  0  0  0  0  0  0
    0.1984    0.0116    0.0000 H   0  0  0  0  0  0  0  0  0  0  0  0
   -0.9286   -0.2904    0.0000 H   0  0  0  0  0  0  0  0  0  0  0  0
   -0.6266   -1.4174    0.0000 H   0  0  0  0  0  0  0  0  0  0  0  0
    0.1301   -1.8527    0.0000 H   0  0  0  0  0  0  0  0  0  0  0  0
    0.8706   -1.8527    0.0000 H   0  0  0  0  0  0  0  0  0  0  0  0
    0.7615    0.8114    0.0000 H   0  0  0  0  0  0  0  0  0  0  0  0
    0.3913    0.1701    0.0000 H   0  0  0  0  0  0  0  0  0  0  0  0
    2.3418   -0.1799    0.0000 H   0  0  0  0  0  0  0  0  0  0  0  0
    2.6438    0.9471    0.0000 H   0  0  0  0  0  0  0  0  0  0  0  0
    1.5168    1.2491    0.0000 H   0  0  0  0  0  0  0  0  0  0  0  0
    1.2149   -1.5279    0.0000 H   0  0  0  0  0  0  0  0  0  0  0  0
    1.3460   -2.5238    0.0000 H   0  0  0  0  0  0  0  0  0  0  0  0
    2.3418   -2.6549    0.0000 H   0  0  0  0  0  0  0  0  0  0  0  0
    2.7262   -1.7269    0.0000 H   0  0  0  0  0  0  0  0  0  0  0  0
  1  2  1  0  0  0  0
  2  3  1  0  0  0  0
  3  4  1  0  0  0  0
  4  5  1  0  0  0  0
  3  6  1  0  0  0  0
  6  7  1  0  0  0  0
  6  8  1  0  0  0  0
  8  9  3  0  0  0  0
  1 10  1  0  0  0  0
  1 11  1  0  0  0  0
  1 12  1  0  0  0  0
  2 13  1  0  0  0  0
  2 14  1  0  0  0  0
  4 15  1  0  0  0  0
  4 16  1  0  0  0  0
  5 17  1  0  0  0  0
  5 18  1  0  0  0  0
  5 19  1  0  0  0  0
  6 20  1  0  0  0  0
  7 21  1  0  0  0  0
  7 22  1  0  0  0  0
  7 23  1  0  0  0  0
M  END
>  <InChIKey>
InChI=1S/C7H14N2/c1-4-9(5-2)7(3)6-8/h7H,4-5H2,1-3H3

> <Outcome>
1

>  <Index>
1992

>  <StandardizerResult>
Clear Stereo (ID: ClearStereo)
Wedge Clean (ID: WedgeClean)
Mesomerize (ID: Mesomerize)
Tautomerize (ID: Tautomerize)
Add Explicit Hydrogens (ID: AddExplicitH)
Neutralize (ID: Neutralize)
Clean 2D (ID: Clean2D)

> <knn Distance>


> <CpId>
1992

$$$$
1997
  Mrv1532301301811342D          

 14 14  0  0  0  0            999 V2000
    0.7145    2.0625    0.0000 Cl  0  0  0  0  0  0  0  0  0  0  0  0
    0.7145    1.2375    0.0000 C   0  0  0  0  0  0  0  0  0  0  0  0
    1.4289    0.8250    0.0000 C   0  0  0  0  0  0  0  0  0  0  0  0
    1.4289    0.0000    0.0000 C   0  0  0  0  0  0  0  0  0  0  0  0
    0.7145   -0.4125    0.0000 C   0  0  0  0  0  0  0  0  0  0  0  0
   -0.0000    0.0000    0.0000 C   0  0  0  0  0  0  0  0  0  0  0  0
   -0.0000    0.8250    0.0000 C   0  0  0  0  0  0  0  0  0  0  0  0
   -0.7145   -0.4125    0.0000 N   0  0  0  0  0  0  0  0  0  0  0  0
   -0.7145   -1.2375    0.0000 O   0  0  0  0  0  0  0  0  0  0  0  0
   -1.4289    0.0000    0.0000 O   0  0  0  0  0  0  0  0  0  0  0  0
    2.1434    1.2375    0.0000 H   0  0  0  0  0  0  0  0  0  0  0  0
    2.1434   -0.4125    0.0000 H   0  0  0  0  0  0  0  0  0  0  0  0
    0.7145   -1.2375    0.0000 H   0  0  0  0  0  0  0  0  0  0  0  0
   -0.7145    1.2375    0.0000 H   0  0  0  0  0  0  0  0  0  0  0  0
  1  2  1  0  0  0  0
  2  3  4  0  0  0  0
  3  4  4  0  0  0  0
  4  5  4  0  0  0  0
  5  6  4  0  0  0  0
  6  7  4  0  0  0  0
  2  7  4  0  0  0  0
  6  8  1  0  0  0  0
  8  9  2  0  0  0  0
  8 10  2  0  0  0  0
  3 11  1  0  0  0  0
  4 12  1  0  0  0  0
  5 13  1  0  0  0  0
  7 14  1  0  0  0  0
M  END
>  <InChIKey>
InChI=1S/C6H4ClNO2/c7-5-2-1-3-6(4-5)8(9)10/h1-4H

>  <CASRN>
121-73-3

> <Outcome>
1

>  <Index>
1997

>  <StandardizerResult>
Dearomatize (ID: Dearomatize)
Clear Stereo (ID: ClearStereo)
Wedge Clean (ID: WedgeClean)
Mesomerize (ID: Mesomerize)
Tautomerize (ID: Tautomerize)
Aromatize (ID: Aromatize)
Add Explicit Hydrogens (ID: AddExplicitH)
Neutralize (ID: Neutralize)
Clean 2D (ID: Clean2D)

> <knn Distance>


> <CpId>
1997

$$$$
1998
  Mrv1532301301811342D          

 40 41  0  0  0  0            999 V2000
   -1.5320    2.6501    0.0000 O   0  0  0  0  0  0  0  0  0  0  0  0
   -1.9445    3.3645    0.0000 C   0  0  0  0  0  0  0  0  0  0  0  0
   -1.5320    4.0790    0.0000 C   0  0  0  0  0  0  0  0  0  0  0  0
   -1.9445    4.7935    0.0000 O   0  0  0  0  0  0  0  0  0  0  0  0
   -0.7070    4.0790    0.0000 O   0  0  0  0  0  0  0  0  0  0  0  0
   -2.7695    3.3645    0.0000 C   0  0  0  0  0  0  0  0  0  0  0  0
   -2.7695    2.5395    0.0000 O   0  0  0  0  0  0  0  0  0  0  0  0
   -2.0550    2.1270    0.0000 C   0  0  0  0  0  0  0  0  0  0  0  0
   -1.2481    2.2986    0.0000 O   0  0  0  0  0  0  0  0  0  0  0  0
   -2.0550    1.3020    0.0000 C   0  0  0  0  0  0  0  0  0  0  0  0
   -1.3406    0.8895    0.0000 C   0  0  0  0  0  0  0  0  0  0  0  0
   -1.3406    0.0645    0.0000 C   0  0  0  0  0  0  0  0  0  0  0  0
   -2.0550   -0.3480    0.0000 C   0  0  0  0  0  0  0  0  0  0  0  0
   -2.7695    0.0645    0.0000 C   0  0  0  0  0  0  0  0  0  0  0  0
   -2.7695    0.8895    0.0000 C   0  0  0  0  0  0  0  0  0  0  0  0
   -2.7695    4.1895    0.0000 C   0  0  0  0  0  0  0  0  0  0  0  0
   -2.4339    4.9432    0.0000 O   0  0  0  0  0  0  0  0  0  0  0  0
   -3.4840    4.6020    0.0000 O   0  0  0  0  0  0  0  0  0  0  0  0
   -3.5945    3.3645    0.0000 C   0  0  0  0  0  0  0  0  0  0  0  0
   -4.0070    4.0790    0.0000 O   0  0  0  0  0  0  0  0  0  0  0  0
   -4.0070    2.6501    0.0000 C   0  0  0  0  0  0  0  0  0  0  0  0
   -3.5945    1.9356    0.0000 C   0  0  0  0  0  0  0  0  0  0  0  0
   -4.0070    1.2211    0.0000 C   0  0  0  0  0  0  0  0  0  0  0  0
   -4.8320    1.2211    0.0000 C   0  0  0  0  0  0  0  0  0  0  0  0
   -5.2445    1.9356    0.0000 C   0  0  0  0  0  0  0  0  0  0  0  0
   -4.8320    2.6501    0.0000 C   0  0  0  0  0  0  0  0  0  0  0  0
   -0.8518    3.1169    0.0000 H   0  0  0  0  0  0  0  0  0  0  0  0
   -1.1195    3.3645    0.0000 H   0  0  0  0  0  0  0  0  0  0  0  0
   -1.4309    5.4391    0.0000 H   0  0  0  0  0  0  0  0  0  0  0  0
   -0.6261    1.3020    0.0000 H   0  0  0  0  0  0  0  0  0  0  0  0
   -0.6261   -0.3480    0.0000 H   0  0  0  0  0  0  0  0  0  0  0  0
   -2.0550   -1.1730    0.0000 H   0  0  0  0  0  0  0  0  0  0  0  0
   -3.4840   -0.3480    0.0000 H   0  0  0  0  0  0  0  0  0  0  0  0
   -3.4840    1.3020    0.0000 H   0  0  0  0  0  0  0  0  0  0  0  0
   -2.7760    5.6940    0.0000 H   0  0  0  0  0  0  0  0  0  0  0  0
   -2.8190    2.2171    0.0000 H   0  0  0  0  0  0  0  0  0  0  0  0
   -3.9437    0.3986    0.0000 H   0  0  0  0  0  0  0  0  0  0  0  0
   -5.2445    0.5067    0.0000 H   0  0  0  0  0  0  0  0  0  0  0  0
   -6.0695    1.9356    0.0000 H   0  0  0  0  0  0  0  0  0  0  0  0
   -5.2445    3.3645    0.0000 H   0  0  0  0  0  0  0  0  0  0  0  0
  1  2  1  0  0  0  0
  2  3  1  0  0  0  0
  3  4  1  0  0  0  0
  3  5  2  0  0  0  0
  2  6  1  0  0  0  0
  6  7  1  0  0  0  0
  7  8  1  0  0  0  0
  8  9  2  0  0  0  0
  8 10  1  0  0  0  0
 10 11  4  0  0  0  0
 11 12  4  0  0  0  0
 12 13  4  0  0  0  0
 13 14  4  0  0  0  0
 14 15  4  0  0  0  0
 10 15  4  0  0  0  0
  6 16  1  0  0  0  0
 16 17  1  0  0  0  0
 16 18  2  0  0  0  0
  6 19  1  0  0  0  0
 19 20  2  0  0  0  0
 19 21  1  0  0  0  0
 21 22  4  0  0  0  0
 22 23  4  0  0  0  0
 23 24  4  0  0  0  0
 24 25  4  0  0  0  0
 25 26  4  0  0  0  0
 21 26  4  0  0  0  0
  1 27  1  0  0  0  0
  2 28  1  0  0  0  0
  4 29  1  0  0  0  0
 11 30  1  0  0  0  0
 12 31  1  0  0  0  0
 13 32  1  0  0  0  0
 14 33  1  0  0  0  0
 15 34  1  0  0  0  0
 17 35  1  0  0  0  0
 22 36  1  0  0  0  0
 23 37  1  0  0  0  0
 24 38  1  0  0  0  0
 25 39  1  0  0  0  0
 26 40  1  0  0  0  0
M  END
>  <InChIKey>
InChI=1S/C18H14O8/c19-13(11-7-3-1-4-8-11)18(17(24)25,14(20)15(21)22)26-16(23)12-9-5-2-6-10-12/h1-10,14,20H,(H,21,22)(H,24,25)

> <Outcome>
1

>  <Index>
1998

>  <StandardizerResult>
Dearomatize (ID: Dearomatize)
Clear Stereo (ID: ClearStereo)
Wedge Clean (ID: WedgeClean)
Mesomerize (ID: Mesomerize)
Tautomerize (ID: Tautomerize)
Aromatize (ID: Aromatize)
Add Explicit Hydrogens (ID: AddExplicitH)
Neutralize (ID: Neutralize)
Clean 2D (ID: Clean2D)

> <knn Distance>


> <CpId>
1998

$$$$
1999
  Mrv1532301301811342D          

 28 28  0  0  0  0            999 V2000
   -2.1434    5.3625    0.0000 C   0  0  0  0  0  0  0  0  0  0  0  0
   -1.4289    4.9500    0.0000 C   0  0  0  0  0  0  0  0  0  0  0  0
   -1.8414    4.2355    0.0000 Cl  0  0  0  0  0  0  0  0  0  0  0  0
   -1.0164    5.6645    0.0000 Cl  0  0  0  0  0  0  0  0  0  0  0  0
   -0.7145    4.5375    0.0000 C   0  0  0  0  0  0  0  0  0  0  0  0
    0.0000    4.9500    0.0000 O   0  0  0  0  0  0  0  0  0  0  0  0
   -0.7145    3.7125    0.0000 O   0  0  0  0  0  0  0  0  0  0  0  0
    0.0000    3.3000    0.0000 C   0  0  0  0  0  0  0  0  0  0  0  0
    0.0000    2.4750    0.0000 C   0  0  0  0  0  0  0  0  0  0  0  0
    0.7145    2.0625    0.0000 O   0  0  0  0  0  0  0  0  0  0  0  0
    0.7145    1.2375    0.0000 C   0  0  0  0  0  0  0  0  0  0  0  0
    1.4289    0.8250    0.0000 C   0  0  0  0  0  0  0  0  0  0  0  0
    1.4289   -0.0000    0.0000 C   0  0  0  0  0  0  0  0  0  0  0  0
    2.1434   -0.4125    0.0000 Cl  0  0  0  0  0  0  0  0  0  0  0  0
    0.7145   -0.4125    0.0000 C   0  0  0  0  0  0  0  0  0  0  0  0
    0.7145   -1.2375    0.0000 Cl  0  0  0  0  0  0  0  0  0  0  0  0
    0.0000   -0.0000    0.0000 C   0  0  0  0  0  0  0  0  0  0  0  0
    0.0000    0.8250    0.0000 C   0  0  0  0  0  0  0  0  0  0  0  0
   -0.7145    1.2375    0.0000 Cl  0  0  0  0  0  0  0  0  0  0  0  0
   -1.7309    6.0770    0.0000 H   0  0  0  0  0  0  0  0  0  0  0  0
   -2.8579    5.7750    0.0000 H   0  0  0  0  0  0  0  0  0  0  0  0
   -2.5559    4.6480    0.0000 H   0  0  0  0  0  0  0  0  0  0  0  0
    0.8236    3.3480    0.0000 H   0  0  0  0  0  0  0  0  0  0  0  0
    0.4533    3.9893    0.0000 H   0  0  0  0  0  0  0  0  0  0  0  0
   -0.8236    2.4270    0.0000 H   0  0  0  0  0  0  0  0  0  0  0  0
   -0.4533    1.7857    0.0000 H   0  0  0  0  0  0  0  0  0  0  0  0
    2.1434    1.2375    0.0000 H   0  0  0  0  0  0  0  0  0  0  0  0
   -0.7145   -0.4125    0.0000 H   0  0  0  0  0  0  0  0  0  0  0  0
  1  2  1  0  0  0  0
  2  3  1  0  0  0  0
  2  4  1  0  0  0  0
  2  5  1  0  0  0  0
  5  6  2  0  0  0  0
  5  7  1  0  0  0  0
  7  8  1  0  0  0  0
  8  9  1  0  0  0  0
  9 10  1  0  0  0  0
 10 11  1  0  0  0  0
 11 12  4  0  0  0  0
 12 13  4  0  0  0  0
 13 14  1  0  0  0  0
 13 15  4  0  0  0  0
 15 16  1  0  0  0  0
 15 17  4  0  0  0  0
 17 18  4  0  0  0  0
 11 18  4  0  0  0  0
 18 19  1  0  0  0  0
  1 20  1  0  0  0  0
  1 21  1  0  0  0  0
  1 22  1  0  0  0  0
  8 23  1  0  0  0  0
  8 24  1  0  0  0  0
  9 25  1  0  0  0  0
  9 26  1  0  0  0  0
 12 27  1  0  0  0  0
 17 28  1  0  0  0  0
M  END
>  <InChIKey>
InChI=1S/C11H9Cl5O3/c1-11(15,16)10(17)19-3-2-18-9-5-7(13)6(12)4-8(9)14/h4-5H,2-3H2,1H3

>  <CASRN>
136-25-4

> <Outcome>
1

>  <Index>
1999

>  <StandardizerResult>
Dearomatize (ID: Dearomatize)
Clear Stereo (ID: ClearStereo)
Wedge Clean (ID: WedgeClean)
Mesomerize (ID: Mesomerize)
Tautomerize (ID: Tautomerize)
Aromatize (ID: Aromatize)
Add Explicit Hydrogens (ID: AddExplicitH)
Neutralize (ID: Neutralize)
Clean 2D (ID: Clean2D)

> <knn Distance>


> <CpId>
1999

$$$$
2000
  Mrv1532301301811342D          

 30 31  0  0  0  0            999 V2000
    1.4289   -1.6500    0.0000 C   0  0  0  0  0  0  0  0  0  0  0  0
    1.4289   -2.4750    0.0000 N   0  0  0  0  0  0  0  0  0  0  0  0
    2.0964   -2.9599    0.0000 C   0  0  0  0  0  0  0  0  0  0  0  0
    1.8414   -3.7445    0.0000 C   0  0  0  0  0  0  0  0  0  0  0  0
    1.0164   -3.7445    0.0000 N   0  3  0  0  0  0  0  0  0  0  0  0
    0.5315   -4.4120    0.0000 C   0  0  0  0  0  0  0  0  0  0  0  0
    0.7615   -2.9599    0.0000 C   0  0  0  0  0  0  0  0  0  0  0  0
   -0.0231   -2.7050    0.0000 N   0  0  0  0  0  0  0  0  0  0  0  0
   -0.6362   -3.2570    0.0000 N   0  0  0  0  0  0  0  0  0  0  0  0
   -1.4209   -3.0021    0.0000 C   0  0  0  0  0  0  0  0  0  0  0  0
   -2.0339   -3.5541    0.0000 C   0  0  0  0  0  0  0  0  0  0  0  0
   -2.8186   -3.2992    0.0000 C   0  0  0  0  0  0  0  0  0  0  0  0
   -2.9901   -2.4922    0.0000 C   0  0  0  0  0  0  0  0  0  0  0  0
   -3.7747   -2.2373    0.0000 N   0  0  0  0  0  0  0  0  0  0  0  0
   -2.3770   -1.9402    0.0000 C   0  0  0  0  0  0  0  0  0  0  0  0
   -1.5924   -2.1951    0.0000 C   0  0  0  0  0  0  0  0  0  0  0  0
    2.2539   -1.6500    0.0000 H   0  0  0  0  0  0  0  0  0  0  0  0
    1.4289   -0.8250    0.0000 H   0  0  0  0  0  0  0  0  0  0  0  0
    0.6039   -1.6500    0.0000 H   0  0  0  0  0  0  0  0  0  0  0  0
    2.8810   -2.7050    0.0000 H   0  0  0  0  0  0  0  0  0  0  0  0
    2.3263   -4.4120    0.0000 H   0  0  0  0  0  0  0  0  0  0  0  0
   -0.1359   -3.9271    0.0000 H   0  0  0  0  0  0  0  0  0  0  0  0
    0.0466   -5.0794    0.0000 H   0  0  0  0  0  0  0  0  0  0  0  0
    1.1989   -4.8969    0.0000 H   0  0  0  0  0  0  0  0  0  0  0  0
   -1.8624   -4.3611    0.0000 H   0  0  0  0  0  0  0  0  0  0  0  0
   -3.4317   -3.8512    0.0000 H   0  0  0  0  0  0  0  0  0  0  0  0
   -3.9462   -1.4303    0.0000 H   0  0  0  0  0  0  0  0  0  0  0  0
   -4.3878   -2.7893    0.0000 H   0  0  0  0  0  0  0  0  0  0  0  0
   -2.5485   -1.1332    0.0000 H   0  0  0  0  0  0  0  0  0  0  0  0
   -0.9793   -1.6431    0.0000 H   0  0  0  0  0  0  0  0  0  0  0  0
  1  2  1  0  0  0  0
  2  3  4  0  0  0  0
  3  4  4  0  0  0  0
  4  5  4  0  0  0  0
  5  6  1  0  0  0  0
  5  7  4  0  0  0  0
  2  7  4  0  0  0  0
  8  7  1  4  0  0  0
  8  9  2  0  0  0  0
  9 10  1  0  0  0  0
 10 11  4  0  0  0  0
 11 12  4  0  0  0  0
 12 13  4  0  0  0  0
 13 14  1  0  0  0  0
 13 15  4  0  0  0  0
 15 16  4  0  0  0  0
 10 16  4  0  0  0  0
  1 17  1  0  0  0  0
  1 18  1  0  0  0  0
  1 19  1  0  0  0  0
  3 20  1  0  0  0  0
  4 21  1  0  0  0  0
  6 22  1  0  0  0  0
  6 23  1  0  0  0  0
  6 24  1  0  0  0  0
 11 25  1  0  0  0  0
 12 26  1  0  0  0  0
 14 27  1  0  0  0  0
 14 28  1  0  0  0  0
 15 29  1  0  0  0  0
 16 30  1  0  0  0  0
M  CHG  1   5   1
M  END
>  <InChIKey>
InChI=1S/C11H13N5/c1-15-7-8-16(2)11(15)14-13-10-5-3-9(12)4-6-10/h3-8,12H,1-2H3/p+1

>  <UN GHS>
1

>  <CASRN>
97404-02-9

> <Outcome>
1

>  <Index>
2000

>  <StandardizerResult>
Dearomatize (ID: Dearomatize)
Clear Stereo (ID: ClearStereo)
Wedge Clean (ID: WedgeClean)
Mesomerize (ID: Mesomerize)
Tautomerize (ID: Tautomerize)
Aromatize (ID: Aromatize)
Add Explicit Hydrogens (ID: AddExplicitH)
Clean 2D (ID: Clean2D)

> <knn Distance>


> <CpId>
2000

$$$$
2003
  Mrv1532301301811342D          

 11 10  0  0  0  0            999 V2000
    2.0617   -0.7159    0.0000 C   0  0  0  0  0  0  0  0  0  0  0  0
    1.2367   -0.7159    0.0000 C   0  0  0  0  0  0  0  0  0  0  0  0
    0.8242   -1.4303    0.0000 Cl  0  0  0  0  0  0  0  0  0  0  0  0
    0.8242   -0.0014    0.0000 C   0  0  0  0  0  0  0  0  0  0  0  0
   -0.0008   -0.0014    0.0000 Cl  0  0  0  0  0  0  0  0  0  0  0  0
    2.0617   -1.5409    0.0000 H   0  0  0  0  0  0  0  0  0  0  0  0
    2.8867   -0.7159    0.0000 H   0  0  0  0  0  0  0  0  0  0  0  0
    2.0617    0.1091    0.0000 H   0  0  0  0  0  0  0  0  0  0  0  0
    1.6492   -1.4303    0.0000 H   0  0  0  0  0  0  0  0  0  0  0  0
    1.5135    0.4519    0.0000 H   0  0  0  0  0  0  0  0  0  0  0  0
    0.8722    0.8222    0.0000 H   0  0  0  0  0  0  0  0  0  0  0  0
  1  2  1  0  0  0  0
  2  3  1  0  0  0  0
  2  4  1  0  0  0  0
  4  5  1  0  0  0  0
  1  6  1  0  0  0  0
  1  7  1  0  0  0  0
  1  8  1  0  0  0  0
  2  9  1  0  0  0  0
  4 10  1  0  0  0  0
  4 11  1  0  0  0  0
M  END
>  <InChIKey>
InChI=1S/C3H6Cl2/c1-3(5)2-4/h3H,2H2,1H3

>  <CASRN>
78-87-5

> <Outcome>
1

>  <Index>
2003

>  <StandardizerResult>
Clear Stereo (ID: ClearStereo)
Wedge Clean (ID: WedgeClean)
Mesomerize (ID: Mesomerize)
Tautomerize (ID: Tautomerize)
Add Explicit Hydrogens (ID: AddExplicitH)
Neutralize (ID: Neutralize)
Clean 2D (ID: Clean2D)

> <knn Distance>


> <CpId>
2003

$$$$
2004
  Mrv1532301301811342D          

 19 19  0  0  0  0            999 V2000
   -0.0000    3.3000    0.0000 C   0  0  0  0  0  0  0  0  0  0  0  0
   -0.0000    2.4750    0.0000 C   0  0  0  0  0  0  0  0  0  0  0  0
   -0.7145    2.0625    0.0000 O   0  0  0  0  0  0  0  0  0  0  0  0
    0.7145    2.0625    0.0000 N   0  0  0  0  0  0  0  0  0  0  0  0
    0.7145    1.2375    0.0000 C   0  0  0  0  0  0  0  0  0  0  0  0
    1.4289    0.8250    0.0000 C   0  0  0  0  0  0  0  0  0  0  0  0
    1.4289    0.0000    0.0000 C   0  0  0  0  0  0  0  0  0  0  0  0
    0.7145   -0.4125    0.0000 C   0  0  0  0  0  0  0  0  0  0  0  0
   -0.0000    0.0000    0.0000 C   0  0  0  0  0  0  0  0  0  0  0  0
   -0.0000    0.8250    0.0000 C   0  0  0  0  0  0  0  0  0  0  0  0
   -0.7145    1.2375    0.0000 Cl  0  0  0  0  0  0  0  0  0  0  0  0
    0.8250    3.3000    0.0000 H   0  0  0  0  0  0  0  0  0  0  0  0
   -0.0000    4.1250    0.0000 H   0  0  0  0  0  0  0  0  0  0  0  0
   -0.8250    3.3000    0.0000 H   0  0  0  0  0  0  0  0  0  0  0  0
    1.4289    2.4750    0.0000 H   0  0  0  0  0  0  0  0  0  0  0  0
    2.1434    1.2375    0.0000 H   0  0  0  0  0  0  0  0  0  0  0  0
    2.1434   -0.4125    0.0000 H   0  0  0  0  0  0  0  0  0  0  0  0
    0.7145   -1.2375    0.0000 H   0  0  0  0  0  0  0  0  0  0  0  0
   -0.7145   -0.4125    0.0000 H   0  0  0  0  0  0  0  0  0  0  0  0
  1  2  1  0  0  0  0
  2  3  2  0  0  0  0
  2  4  1  0  0  0  0
  4  5  1  0  0  0  0
  5  6  4  0  0  0  0
  6  7  4  0  0  0  0
  7  8  4  0  0  0  0
  8  9  4  0  0  0  0
  9 10  4  0  0  0  0
  5 10  4  0  0  0  0
 10 11  1  0  0  0  0
  1 12  1  0  0  0  0
  1 13  1  0  0  0  0
  1 14  1  0  0  0  0
  4 15  1  0  0  0  0
  6 16  1  0  0  0  0
  7 17  1  0  0  0  0
  8 18  1  0  0  0  0
  9 19  1  0  0  0  0
M  END
>  <InChIKey>
InChI=1S/C8H8ClNO/c1-6(11)10-8-5-3-2-4-7(8)9/h2-5H,1H3,(H,10,11)

>  <CASRN>
533-17-5

> <Outcome>
1

>  <Index>
2004

>  <StandardizerResult>
Dearomatize (ID: Dearomatize)
Clear Stereo (ID: ClearStereo)
Wedge Clean (ID: WedgeClean)
Mesomerize (ID: Mesomerize)
Tautomerize (ID: Tautomerize)
Aromatize (ID: Aromatize)
Add Explicit Hydrogens (ID: AddExplicitH)
Neutralize (ID: Neutralize)
Clean 2D (ID: Clean2D)

> <knn Distance>


> <CpId>
2004

$$$$
2006
  Mrv1532301301811342D          

 23 22  0  0  0  0            999 V2000
    0.8596    2.9640    0.0000 C   0  0  0  0  0  0  0  0  0  0  0  0
    0.4471    2.2495    0.0000 O   0  0  0  0  0  0  0  0  0  0  0  0
    0.8596    1.5350    0.0000 C   0  0  0  0  0  0  0  0  0  0  0  0
    0.1451    1.1225    0.0000 C   0  0  0  0  0  0  0  0  0  0  0  0
    1.5740    1.9475    0.0000 C   0  0  0  0  0  0  0  0  0  0  0  0
    1.2721    0.8206    0.0000 C   0  0  0  0  0  0  0  0  0  0  0  0
    0.8596    0.1061    0.0000 C   0  0  0  0  0  0  0  0  0  0  0  0
    1.2721   -0.6084    0.0000 C   0  0  0  0  0  0  0  0  0  0  0  0
    0.0346    0.1061    0.0000 O   0  0  0  0  0  0  0  0  0  0  0  0
    1.5740    2.5515    0.0000 H   0  0  0  0  0  0  0  0  0  0  0  0
    1.2721    3.6785    0.0000 H   0  0  0  0  0  0  0  0  0  0  0  0
    0.1451    3.3765    0.0000 H   0  0  0  0  0  0  0  0  0  0  0  0
   -0.2674    1.8370    0.0000 H   0  0  0  0  0  0  0  0  0  0  0  0
   -0.5694    0.7100    0.0000 H   0  0  0  0  0  0  0  0  0  0  0  0
    0.5576    0.4081    0.0000 H   0  0  0  0  0  0  0  0  0  0  0  0
    1.5740    1.1225    0.0000 H   0  0  0  0  0  0  0  0  0  0  0  0
    2.2885    1.5350    0.0000 H   0  0  0  0  0  0  0  0  0  0  0  0
    2.2885    2.3600    0.0000 H   0  0  0  0  0  0  0  0  0  0  0  0
    1.6207    0.0729    0.0000 H   0  0  0  0  0  0  0  0  0  0  0  0
    2.0845    0.6773    0.0000 H   0  0  0  0  0  0  0  0  0  0  0  0
    0.4779   -0.8320    0.0000 H   0  0  0  0  0  0  0  0  0  0  0  0
    1.2929   -1.4331    0.0000 H   0  0  0  0  0  0  0  0  0  0  0  0
    2.0765   -0.7915    0.0000 H   0  0  0  0  0  0  0  0  0  0  0  0
  1  2  1  0  0  0  0
  2  3  1  0  0  0  0
  3  4  1  0  0  0  0
  3  5  1  0  0  0  0
  3  6  1  0  0  0  0
  6  7  1  0  0  0  0
  7  8  1  0  0  0  0
  7  9  2  0  0  0  0
  1 10  1  0  0  0  0
  1 11  1  0  0  0  0
  1 12  1  0  0  0  0
  4 13  1  0  0  0  0
  4 14  1  0  0  0  0
  4 15  1  0  0  0  0
  5 16  1  0  0  0  0
  5 17  1  0  0  0  0
  5 18  1  0  0  0  0
  6 19  1  0  0  0  0
  6 20  1  0  0  0  0
  8 21  1  0  0  0  0
  8 22  1  0  0  0  0
  8 23  1  0  0  0  0
M  END
>  <InChIKey>
InChI=1S/C7H14O2/c1-6(8)5-7(2,3)9-4/h5H2,1-4H3

>  <CASRN>
107-70-0

> <Outcome>
1

>  <Index>
2006

>  <StandardizerResult>
Clear Stereo (ID: ClearStereo)
Wedge Clean (ID: WedgeClean)
Mesomerize (ID: Mesomerize)
Tautomerize (ID: Tautomerize)
Add Explicit Hydrogens (ID: AddExplicitH)
Neutralize (ID: Neutralize)
Clean 2D (ID: Clean2D)

> <knn Distance>


> <CpId>
2006

$$$$
2009
  Mrv1532301301811342D          

 16 15  0  0  0  0            999 V2000
    1.7605    1.8414    0.0000 O   0  0  0  0  0  0  0  0  0  0  0  0
    2.4750    1.4289    0.0000 C   0  0  0  0  0  0  0  0  0  0  0  0
    2.4750    0.6039    0.0000 O   0  0  0  0  0  0  0  0  0  0  0  0
    3.1895    1.8414    0.0000 C   0  0  0  0  0  0  0  0  0  0  0  0
    3.9039    1.4289    0.0000 C   0  0  0  0  0  0  0  0  0  0  0  0
    4.6184    1.8414    0.0000 C   0  0  0  0  0  0  0  0  0  0  0  0
    4.6184    2.6664    0.0000 O   0  0  0  0  0  0  0  0  0  0  0  0
    5.3329    1.4289    0.0000 C   0  0  0  0  0  0  0  0  0  0  0  0
    6.0474    1.8414    0.0000 O   0  0  0  0  0  0  0  0  0  0  0  0
    5.3329    0.6039    0.0000 O   0  0  0  0  0  0  0  0  0  0  0  0
    1.7605    2.6664    0.0000 H   0  0  0  0  0  0  0  0  0  0  0  0
    3.5597    2.5786    0.0000 H   0  0  0  0  0  0  0  0  0  0  0  0
    2.8192    2.5786    0.0000 H   0  0  0  0  0  0  0  0  0  0  0  0
    3.5337    0.6917    0.0000 H   0  0  0  0  0  0  0  0  0  0  0  0
    4.2742    0.6917    0.0000 H   0  0  0  0  0  0  0  0  0  0  0  0
    6.7618    1.4289    0.0000 H   0  0  0  0  0  0  0  0  0  0  0  0
  1  2  1  0  0  0  0
  2  3  2  0  0  0  0
  2  4  1  0  0  0  0
  4  5  1  0  0  0  0
  5  6  1  0  0  0  0
  6  7  2  0  0  0  0
  6  8  1  0  0  0  0
  8  9  1  0  0  0  0
  8 10  2  0  0  0  0
  1 11  1  0  0  0  0
  4 12  1  0  0  0  0
  4 13  1  0  0  0  0
  5 14  1  0  0  0  0
  5 15  1  0  0  0  0
  9 16  1  0  0  0  0
M  END
>  <InChIKey>
InChI=1S/C5H6O5/c6-3(5(9)10)1-2-4(7)8/h1-2H2,(H,7,8)(H,9,10)

>  <UN GHS>
1

>  <CASRN>
328-50-7

> <Outcome>
1

>  <Index>
2009

>  <StandardizerResult>
Clear Stereo (ID: ClearStereo)
Wedge Clean (ID: WedgeClean)
Mesomerize (ID: Mesomerize)
Tautomerize (ID: Tautomerize)
Add Explicit Hydrogens (ID: AddExplicitH)
Neutralize (ID: Neutralize)
Clean 2D (ID: Clean2D)

> <knn Distance>


> <CpId>
2009

$$$$
2013
  Mrv1532301301811342D          

 14 13  0  0  0  0            999 V2000
    0.7842    1.4811    0.0000 C   0  0  0  0  0  0  0  0  0  0  0  0
    1.1967    0.7666    0.0000 C   0  0  0  0  0  0  0  0  0  0  0  0
    2.0217    0.7666    0.0000 C   0  0  0  0  0  0  0  0  0  0  0  0
    0.7842    0.0522    0.0000 C   0  0  0  0  0  0  0  0  0  0  0  0
    1.1967   -0.6623    0.0000 O   0  0  0  0  0  0  0  0  0  0  0  0
   -0.0408    0.0522    0.0000 O   0  0  0  0  0  0  0  0  0  0  0  0
    1.4987    1.8936    0.0000 H   0  0  0  0  0  0  0  0  0  0  0  0
    0.3717    2.1956    0.0000 H   0  0  0  0  0  0  0  0  0  0  0  0
    0.0697    1.0686    0.0000 H   0  0  0  0  0  0  0  0  0  0  0  0
    1.6092    1.4811    0.0000 H   0  0  0  0  0  0  0  0  0  0  0  0
    1.8082   -0.0303    0.0000 H   0  0  0  0  0  0  0  0  0  0  0  0
    2.7362    0.3541    0.0000 H   0  0  0  0  0  0  0  0  0  0  0  0
    2.6051    1.3500    0.0000 H   0  0  0  0  0  0  0  0  0  0  0  0
    1.0958   -1.4811    0.0000 H   0  0  0  0  0  0  0  0  0  0  0  0
  1  2  1  0  0  0  0
  2  3  1  0  0  0  0
  2  4  1  0  0  0  0
  4  5  1  0  0  0  0
  4  6  2  0  0  0  0
  1  7  1  0  0  0  0
  1  8  1  0  0  0  0
  1  9  1  0  0  0  0
  2 10  1  0  0  0  0
  3 11  1  0  0  0  0
  3 12  1  0  0  0  0
  3 13  1  0  0  0  0
  5 14  1  0  0  0  0
M  END
>  <InChIKey>
InChI=1S/C4H8O2/c1-3(2)4(5)6/h3H,1-2H3,(H,5,6)

>  <CASRN>
79-31-2

> <Outcome>
1

>  <Index>
2013

>  <StandardizerResult>
Clear Stereo (ID: ClearStereo)
Wedge Clean (ID: WedgeClean)
Mesomerize (ID: Mesomerize)
Tautomerize (ID: Tautomerize)
Add Explicit Hydrogens (ID: AddExplicitH)
Neutralize (ID: Neutralize)
Clean 2D (ID: Clean2D)

> <knn Distance>


> <CpId>
2013

$$$$
2016
  Mrv1532301301811342D          

 17 17  0  0  0  0            999 V2000
   -0.1458    3.1773    0.0000 C   0  0  0  0  0  0  0  0  0  0  0  0
   -0.1458    2.3523    0.0000 C   0  0  0  0  0  0  0  0  0  0  0  0
    0.5687    1.9398    0.0000 O   0  0  0  0  0  0  0  0  0  0  0  0
    0.5687    1.1148    0.0000 C   0  0  0  0  0  0  0  0  0  0  0  0
    1.2361    0.6299    0.0000 N   0  0  0  0  0  0  0  0  0  0  0  0
    0.9812   -0.1547    0.0000 C   0  0  0  0  0  0  0  0  0  0  0  0
    0.1562   -0.1547    0.0000 N   0  0  0  0  0  0  0  0  0  0  0  0
   -0.0988    0.6299    0.0000 S   0  0  0  0  0  0  0  0  0  0  0  0
    1.4661   -0.8222    0.0000 C   0  0  0  0  0  0  0  0  0  0  0  0
    1.9510   -1.4896    0.0000 Cl  0  0  0  0  0  0  0  0  0  0  0  0
    0.7987   -1.3071    0.0000 Cl  0  0  0  0  0  0  0  0  0  0  0  0
    2.1335   -0.3372    0.0000 Cl  0  0  0  0  0  0  0  0  0  0  0  0
    0.6792    3.1773    0.0000 H   0  0  0  0  0  0  0  0  0  0  0  0
   -0.1458    4.0023    0.0000 H   0  0  0  0  0  0  0  0  0  0  0  0
   -0.9708    3.1773    0.0000 H   0  0  0  0  0  0  0  0  0  0  0  0
   -0.9694    2.3043    0.0000 H   0  0  0  0  0  0  0  0  0  0  0  0
   -0.5991    1.6630    0.0000 H   0  0  0  0  0  0  0  0  0  0  0  0
  1  2  1  0  0  0  0
  2  3  1  0  0  0  0
  3  4  1  0  0  0  0
  4  5  4  0  0  0  0
  5  6  4  0  0  0  0
  6  7  4  0  0  0  0
  7  8  4  0  0  0  0
  4  8  4  0  0  0  0
  6  9  1  0  0  0  0
  9 10  1  0  0  0  0
  9 11  1  0  0  0  0
  9 12  1  0  0  0  0
  1 13  1  0  0  0  0
  1 14  1  0  0  0  0
  1 15  1  0  0  0  0
  2 16  1  0  0  0  0
  2 17  1  0  0  0  0
M  END
>  <InChIKey>
InChI=1S/C5H5Cl3N2OS/c1-2-11-4-9-3(10-12-4)5(6,7)8/h2H2,1H3

>  <CASRN>
2593-15-9

> <Outcome>
1

>  <Index>
2016

>  <StandardizerResult>
Dearomatize (ID: Dearomatize)
Clear Stereo (ID: ClearStereo)
Wedge Clean (ID: WedgeClean)
Mesomerize (ID: Mesomerize)
Tautomerize (ID: Tautomerize)
Aromatize (ID: Aromatize)
Add Explicit Hydrogens (ID: AddExplicitH)
Neutralize (ID: Neutralize)
Clean 2D (ID: Clean2D)

> <knn Distance>


> <CpId>
2016

$$$$
2017
  Mrv1532301301811342D          

 20 20  0  0  0  0            999 V2000
   -0.6386    2.9362    0.0000 O   0  0  0  0  0  0  0  0  0  0  0  0
    0.0759    2.5237    0.0000 C   0  0  0  0  0  0  0  0  0  0  0  0
    0.7904    2.1112    0.0000 N   0  0  0  0  0  0  0  0  0  0  0  0
    0.7904    1.2862    0.0000 C   0  0  0  0  0  0  0  0  0  0  0  0
    1.5049    0.8737    0.0000 C   0  0  0  0  0  0  0  0  0  0  0  0
    1.5049    0.0487    0.0000 C   0  0  0  0  0  0  0  0  0  0  0  0
    0.7904   -0.3638    0.0000 C   0  0  0  0  0  0  0  0  0  0  0  0
    0.0759    0.0487    0.0000 C   0  0  0  0  0  0  0  0  0  0  0  0
    0.0759    0.8737    0.0000 C   0  0  0  0  0  0  0  0  0  0  0  0
    0.0759    1.6987    0.0000 H   0  0  0  0  0  0  0  0  0  0  0  0
    2.3285    0.9217    0.0000 H   0  0  0  0  0  0  0  0  0  0  0  0
    1.9582    1.5630    0.0000 H   0  0  0  0  0  0  0  0  0  0  0  0
    1.9582   -0.6406    0.0000 H   0  0  0  0  0  0  0  0  0  0  0  0
    2.3285    0.0007    0.0000 H   0  0  0  0  0  0  0  0  0  0  0  0
    0.4201   -1.1010    0.0000 H   0  0  0  0  0  0  0  0  0  0  0  0
    1.1606   -1.1010    0.0000 H   0  0  0  0  0  0  0  0  0  0  0  0
   -0.7477    0.0007    0.0000 H   0  0  0  0  0  0  0  0  0  0  0  0
   -0.3774   -0.6406    0.0000 H   0  0  0  0  0  0  0  0  0  0  0  0
   -0.6993    1.1559    0.0000 H   0  0  0  0  0  0  0  0  0  0  0  0
   -0.6993    0.5916    0.0000 H   0  0  0  0  0  0  0  0  0  0  0  0
  1  2  2  0  0  0  0
  2  3  2  0  0  0  0
  3  4  1  0  0  0  0
  4  5  1  0  0  0  0
  5  6  1  0  0  0  0
  6  7  1  0  0  0  0
  7  8  1  0  0  0  0
  8  9  1  0  0  0  0
  4  9  1  0  0  0  0
  4 10  1  0  0  0  0
  5 11  1  0  0  0  0
  5 12  1  0  0  0  0
  6 13  1  0  0  0  0
  6 14  1  0  0  0  0
  7 15  1  0  0  0  0
  7 16  1  0  0  0  0
  8 17  1  0  0  0  0
  8 18  1  0  0  0  0
  9 19  1  0  0  0  0
  9 20  1  0  0  0  0
M  END
>  <InChIKey>
InChI=1S/C7H11NO/c9-6-8-7-4-2-1-3-5-7/h7H,1-5H2

>  <UN GHS>
1

>  <CASRN>
3173-53-3

> <Outcome>
1

>  <Index>
2017

>  <StandardizerResult>
Clear Stereo (ID: ClearStereo)
Wedge Clean (ID: WedgeClean)
Mesomerize (ID: Mesomerize)
Tautomerize (ID: Tautomerize)
Add Explicit Hydrogens (ID: AddExplicitH)
Neutralize (ID: Neutralize)
Clean 2D (ID: Clean2D)

> <knn Distance>


> <CpId>
2017

$$$$
2019
  Mrv1532301301811342D          

 20 20  0  0  0  0            999 V2000
    0.0008    3.3004    0.0000 C   0  0  0  0  0  0  0  0  0  0  0  0
    0.0008    2.4754    0.0000 C   0  0  0  0  0  0  0  0  0  0  0  0
    0.7152    2.0629    0.0000 C   0  0  0  0  0  0  0  0  0  0  0  0
    1.4297    2.4754    0.0000 O   0  0  0  0  0  0  0  0  0  0  0  0
    0.7152    1.2379    0.0000 C   0  0  0  0  0  0  0  0  0  0  0  0
    1.4297    0.8254    0.0000 C   0  0  0  0  0  0  0  0  0  0  0  0
    1.4297    0.0004    0.0000 C   0  0  0  0  0  0  0  0  0  0  0  0
    0.7152   -0.4121    0.0000 C   0  0  0  0  0  0  0  0  0  0  0  0
    0.0008    0.0004    0.0000 C   0  0  0  0  0  0  0  0  0  0  0  0
    0.0008    0.8254    0.0000 C   0  0  0  0  0  0  0  0  0  0  0  0
    0.8258    3.3004    0.0000 H   0  0  0  0  0  0  0  0  0  0  0  0
    0.0008    4.1254    0.0000 H   0  0  0  0  0  0  0  0  0  0  0  0
   -0.8242    3.3004    0.0000 H   0  0  0  0  0  0  0  0  0  0  0  0
   -0.8228    2.4275    0.0000 H   0  0  0  0  0  0  0  0  0  0  0  0
   -0.4526    1.7862    0.0000 H   0  0  0  0  0  0  0  0  0  0  0  0
    2.1442    1.2379    0.0000 H   0  0  0  0  0  0  0  0  0  0  0  0
    2.1442   -0.4121    0.0000 H   0  0  0  0  0  0  0  0  0  0  0  0
    0.7152   -1.2371    0.0000 H   0  0  0  0  0  0  0  0  0  0  0  0
   -0.7137   -0.4121    0.0000 H   0  0  0  0  0  0  0  0  0  0  0  0
   -0.7137    1.2379    0.0000 H   0  0  0  0  0  0  0  0  0  0  0  0
  1  2  1  0  0  0  0
  2  3  1  0  0  0  0
  3  4  2  0  0  0  0
  3  5  1  0  0  0  0
  5  6  4  0  0  0  0
  6  7  4  0  0  0  0
  7  8  4  0  0  0  0
  8  9  4  0  0  0  0
  9 10  4  0  0  0  0
  5 10  4  0  0  0  0
  1 11  1  0  0  0  0
  1 12  1  0  0  0  0
  1 13  1  0  0  0  0
  2 14  1  0  0  0  0
  2 15  1  0  0  0  0
  6 16  1  0  0  0  0
  7 17  1  0  0  0  0
  8 18  1  0  0  0  0
  9 19  1  0  0  0  0
 10 20  1  0  0  0  0
M  END
>  <InChIKey>
InChI=1S/C9H10O/c1-2-9(10)8-6-4-3-5-7-8/h3-7H,2H2,1H3

>  <CASRN>
93-55-0

> <Outcome>
1

>  <Index>
2019

>  <StandardizerResult>
Dearomatize (ID: Dearomatize)
Clear Stereo (ID: ClearStereo)
Wedge Clean (ID: WedgeClean)
Mesomerize (ID: Mesomerize)
Tautomerize (ID: Tautomerize)
Aromatize (ID: Aromatize)
Add Explicit Hydrogens (ID: AddExplicitH)
Neutralize (ID: Neutralize)
Clean 2D (ID: Clean2D)

> <knn Distance>


> <CpId>
2019

$$$$
2023
  Mrv1532301301811342D          

 24 23  0  0  0  0            999 V2000
    1.0461    1.4289    0.0000 C   0  0  0  0  0  0  0  0  0  0  0  0
    1.7605    1.8414    0.0000 N   0  0  0  0  0  0  0  0  0  0  0  0
    1.7605    2.6664    0.0000 C   0  0  0  0  0  0  0  0  0  0  0  0
    2.4750    1.4289    0.0000 C   0  0  0  0  0  0  0  0  0  0  0  0
    2.4750    0.6039    0.0000 S   0  0  0  0  0  0  0  0  0  0  0  0
    3.1895    1.8414    0.0000 S   0  0  0  0  0  0  0  0  0  0  0  0
    3.9040    1.4289    0.0000 S   0  0  0  0  0  0  0  0  0  0  0  0
    4.6184    1.8414    0.0000 C   0  0  0  0  0  0  0  0  0  0  0  0
    4.6184    2.6664    0.0000 S   0  0  0  0  0  0  0  0  0  0  0  0
    5.3329    1.4289    0.0000 N   0  0  0  0  0  0  0  0  0  0  0  0
    6.0474    1.8414    0.0000 C   0  0  0  0  0  0  0  0  0  0  0  0
    5.3329    0.6039    0.0000 C   0  0  0  0  0  0  0  0  0  0  0  0
    0.6336    2.1434    0.0000 H   0  0  0  0  0  0  0  0  0  0  0  0
    0.3316    1.0164    0.0000 H   0  0  0  0  0  0  0  0  0  0  0  0
    1.4586    0.7144    0.0000 H   0  0  0  0  0  0  0  0  0  0  0  0
    2.5855    2.6664    0.0000 H   0  0  0  0  0  0  0  0  0  0  0  0
    1.7605    3.4914    0.0000 H   0  0  0  0  0  0  0  0  0  0  0  0
    0.9355    2.6664    0.0000 H   0  0  0  0  0  0  0  0  0  0  0  0
    6.4599    1.1269    0.0000 H   0  0  0  0  0  0  0  0  0  0  0  0
    6.7618    2.2539    0.0000 H   0  0  0  0  0  0  0  0  0  0  0  0
    5.6349    2.5559    0.0000 H   0  0  0  0  0  0  0  0  0  0  0  0
    4.5079    0.6039    0.0000 H   0  0  0  0  0  0  0  0  0  0  0  0
    5.3329   -0.2211    0.0000 H   0  0  0  0  0  0  0  0  0  0  0  0
    6.1579    0.6039    0.0000 H   0  0  0  0  0  0  0  0  0  0  0  0
  1  2  1  0  0  0  0
  2  3  1  0  0  0  0
  2  4  1  0  0  0  0
  4  5  2  0  0  0  0
  4  6  1  0  0  0  0
  6  7  1  0  0  0  0
  7  8  1  0  0  0  0
  8  9  2  0  0  0  0
  8 10  1  0  0  0  0
 10 11  1  0  0  0  0
 10 12  1  0  0  0  0
  1 13  1  0  0  0  0
  1 14  1  0  0  0  0
  1 15  1  0  0  0  0
  3 16  1  0  0  0  0
  3 17  1  0  0  0  0
  3 18  1  0  0  0  0
 11 19  1  0  0  0  0
 11 20  1  0  0  0  0
 11 21  1  0  0  0  0
 12 22  1  0  0  0  0
 12 23  1  0  0  0  0
 12 24  1  0  0  0  0
M  END
>  <InChIKey>
InChI=1S/C6H12N2S4/c1-7(2)5(9)11-12-6(10)8(3)4/h1-4H3

>  <CASRN>
137-26-8

> <Outcome>
1

>  <Index>
2023

>  <StandardizerResult>
Clear Stereo (ID: ClearStereo)
Wedge Clean (ID: WedgeClean)
Mesomerize (ID: Mesomerize)
Tautomerize (ID: Tautomerize)
Add Explicit Hydrogens (ID: AddExplicitH)
Neutralize (ID: Neutralize)
Clean 2D (ID: Clean2D)

> <knn Distance>


> <CpId>
2023

$$$$
2025
  Mrv1532301301811342D          

 24 24  0  0  0  0            999 V2000
   -0.0097    2.4982    0.0000 C   0  0  0  0  0  0  0  0  0  0  0  0
    0.7048    2.0857    0.0000 C   0  0  0  0  0  0  0  0  0  0  0  0
    0.7048    1.2607    0.0000 C   0  0  0  0  0  0  0  0  0  0  0  0
    1.4192    0.8482    0.0000 C   0  0  0  0  0  0  0  0  0  0  0  0
    1.4192    0.0232    0.0000 C   0  0  0  0  0  0  0  0  0  0  0  0
    0.7048   -0.3893    0.0000 C   0  0  0  0  0  0  0  0  0  0  0  0
   -0.0097    0.0232    0.0000 C   0  0  0  0  0  0  0  0  0  0  0  0
   -0.0097    0.8482    0.0000 C   0  0  0  0  0  0  0  0  0  0  0  0
   -0.7242    1.2607    0.0000 C   0  0  0  0  0  0  0  0  0  0  0  0
   -0.7242    2.0857    0.0000 C   0  0  0  0  0  0  0  0  0  0  0  0
    0.7048    2.9107    0.0000 H   0  0  0  0  0  0  0  0  0  0  0  0
   -0.0097    3.3232    0.0000 H   0  0  0  0  0  0  0  0  0  0  0  0
   -0.7242    2.9107    0.0000 H   0  0  0  0  0  0  0  0  0  0  0  0
    1.4800    1.8036    0.0000 H   0  0  0  0  0  0  0  0  0  0  0  0
    1.4800    2.3679    0.0000 H   0  0  0  0  0  0  0  0  0  0  0  0
    2.2438    0.8220    0.0000 H   0  0  0  0  0  0  0  0  0  0  0  0
    2.1337   -0.3893    0.0000 H   0  0  0  0  0  0  0  0  0  0  0  0
    0.7048   -1.2143    0.0000 H   0  0  0  0  0  0  0  0  0  0  0  0
   -0.7242   -0.3893    0.0000 H   0  0  0  0  0  0  0  0  0  0  0  0
   -1.5478    1.2128    0.0000 H   0  0  0  0  0  0  0  0  0  0  0  0
   -1.1775    0.5714    0.0000 H   0  0  0  0  0  0  0  0  0  0  0  0
   -1.4994    2.3679    0.0000 H   0  0  0  0  0  0  0  0  0  0  0  0
   -1.4994    1.8036    0.0000 H   0  0  0  0  0  0  0  0  0  0  0  0
   -0.0097    1.6732    0.0000 H   0  0  0  0  0  0  0  0  0  0  0  0
  1  2  1  0  0  0  0
  2  3  1  0  0  0  0
  3  4  4  0  0  0  0
  4  5  4  0  0  0  0
  5  6  4  0  0  0  0
  6  7  4  0  0  0  0
  7  8  4  0  0  0  0
  3  8  4  0  0  0  0
  8  9  1  0  0  0  0
  9 10  1  0  0  0  0
  1 11  1  0  0  0  0
  1 12  1  0  0  0  0
  1 13  1  0  0  0  0
  2 14  1  0  0  0  0
  2 15  1  0  0  0  0
  4 16  1  0  0  0  0
  5 17  1  0  0  0  0
  6 18  1  0  0  0  0
  7 19  1  0  0  0  0
  9 20  1  0  0  0  0
  9 21  1  0  0  0  0
 10 22  1  0  0  0  0
 10 23  1  0  0  0  0
 10 24  1  0  0  0  0
M  END
>  <InChIKey>
InChI=1S/C10H14/c1-3-9-7-5-6-8-10(9)4-2/h5-8H,3-4H2,1-2H3

>  <CASRN>
135-01-3

> <Outcome>
1

>  <Index>
2025

>  <StandardizerResult>
Dearomatize (ID: Dearomatize)
Clear Stereo (ID: ClearStereo)
Wedge Clean (ID: WedgeClean)
Mesomerize (ID: Mesomerize)
Tautomerize (ID: Tautomerize)
Aromatize (ID: Aromatize)
Add Explicit Hydrogens (ID: AddExplicitH)
Neutralize (ID: Neutralize)
Clean 2D (ID: Clean2D)

> <knn Distance>


> <CpId>
2025

$$$$
2030
  Mrv1532301301811342D          

 23 23  0  0  0  0            999 V2000
    0.7145    2.0625    0.0000 C   0  0  0  0  0  0  0  0  0  0  0  0
    0.7145    1.2375    0.0000 C   0  0  0  0  0  0  0  0  0  0  0  0
    1.4289    0.8250    0.0000 C   0  0  0  0  0  0  0  0  0  0  0  0
    1.4289    0.0000    0.0000 C   0  0  0  0  0  0  0  0  0  0  0  0
    2.1434   -0.4125    0.0000 C   0  0  0  0  0  0  0  0  0  0  0  0
    0.7145   -0.4125    0.0000 C   0  0  0  0  0  0  0  0  0  0  0  0
    0.7145   -1.2375    0.0000 N   0  0  0  0  0  0  0  0  0  0  0  0
   -0.0000    0.0000    0.0000 C   0  0  0  0  0  0  0  0  0  0  0  0
   -0.7145   -0.4125    0.0000 C   0  0  0  0  0  0  0  0  0  0  0  0
   -0.0000    0.8250    0.0000 C   0  0  0  0  0  0  0  0  0  0  0  0
    1.5395    2.0625    0.0000 H   0  0  0  0  0  0  0  0  0  0  0  0
    0.7145    2.8875    0.0000 H   0  0  0  0  0  0  0  0  0  0  0  0
   -0.1105    2.0625    0.0000 H   0  0  0  0  0  0  0  0  0  0  0  0
    2.1434    1.2375    0.0000 H   0  0  0  0  0  0  0  0  0  0  0  0
    1.7309   -1.1270    0.0000 H   0  0  0  0  0  0  0  0  0  0  0  0
    2.8579   -0.8250    0.0000 H   0  0  0  0  0  0  0  0  0  0  0  0
    2.5559    0.3020    0.0000 H   0  0  0  0  0  0  0  0  0  0  0  0
   -0.0000   -1.6500    0.0000 H   0  0  0  0  0  0  0  0  0  0  0  0
    1.4289   -1.6500    0.0000 H   0  0  0  0  0  0  0  0  0  0  0  0
   -1.1270    0.3020    0.0000 H   0  0  0  0  0  0  0  0  0  0  0  0
   -1.4289   -0.8250    0.0000 H   0  0  0  0  0  0  0  0  0  0  0  0
   -0.3020   -1.1270    0.0000 H   0  0  0  0  0  0  0  0  0  0  0  0
   -0.7145    1.2375    0.0000 H   0  0  0  0  0  0  0  0  0  0  0  0
  1  2  1  0  0  0  0
  2  3  4  0  0  0  0
  3  4  4  0  0  0  0
  4  5  1  0  0  0  0
  4  6  4  0  0  0  0
  6  7  1  0  0  0  0
  6  8  4  0  0  0  0
  8  9  1  0  0  0  0
  8 10  4  0  0  0  0
  2 10  4  0  0  0  0
  1 11  1  0  0  0  0
  1 12  1  0  0  0  0
  1 13  1  0  0  0  0
  3 14  1  0  0  0  0
  5 15  1  0  0  0  0
  5 16  1  0  0  0  0
  5 17  1  0  0  0  0
  7 18  1  0  0  0  0
  7 19  1  0  0  0  0
  9 20  1  0  0  0  0
  9 21  1  0  0  0  0
  9 22  1  0  0  0  0
 10 23  1  0  0  0  0
M  END
>  <InChIKey>
InChI=1S/C9H13N/c1-6-4-7(2)9(10)8(3)5-6/h4-5H,10H2,1-3H3

>  <CASRN>
88-05-1

> <Outcome>
1

>  <Index>
2030

>  <StandardizerResult>
Dearomatize (ID: Dearomatize)
Clear Stereo (ID: ClearStereo)
Wedge Clean (ID: WedgeClean)
Mesomerize (ID: Mesomerize)
Tautomerize (ID: Tautomerize)
Aromatize (ID: Aromatize)
Add Explicit Hydrogens (ID: AddExplicitH)
Neutralize (ID: Neutralize)
Clean 2D (ID: Clean2D)

> <knn Distance>


> <CpId>
2030

$$$$
2031
  Mrv1532301301811342D          

 68 71  0  0  0  0            999 V2000
    2.9347   -3.8747    0.0000 C   0  0  0  0  0  0  0  0  0  0  0  0
    2.6238   -3.1105    0.0000 C   0  0  0  0  0  0  0  0  0  0  0  0
    1.8066   -2.9976    0.0000 C   0  0  0  0  0  0  0  0  0  0  0  0
    1.3002   -3.6490    0.0000 C   0  0  0  0  0  0  0  0  0  0  0  0
    0.4830   -3.5361    0.0000 C   0  0  0  0  0  0  0  0  0  0  0  0
   -0.0234   -4.1874    0.0000 O   0  0  0  0  0  0  0  0  0  0  0  0
    0.1721   -2.7719    0.0000 O   0  0  0  0  0  0  0  0  0  0  0  0
    3.1302   -2.4592    0.0000 C   0  0  0  0  0  0  0  0  0  0  0  0
    2.9008   -1.6667    0.0000 C   0  0  0  0  0  0  0  0  0  0  0  0
    3.5837   -1.2037    0.0000 C   0  0  0  0  0  0  0  0  0  0  0  0
    4.2350   -1.7100    0.0000 C   0  0  0  0  0  0  0  0  0  0  0  0
    5.0471   -1.5648    0.0000 C   0  0  0  0  0  0  0  0  0  0  0  0
    5.3274   -0.7889    0.0000 C   0  0  0  0  0  0  0  0  0  0  0  0
    6.1396   -0.6437    0.0000 C   0  0  0  0  0  0  0  0  0  0  0  0
    6.6714   -1.2744    0.0000 C   0  0  0  0  0  0  0  0  0  0  0  0
    7.4835   -1.1292    0.0000 C   0  0  0  0  0  0  0  0  0  0  0  0
    8.0153   -1.7599    0.0000 C   0  0  0  0  0  0  0  0  0  0  0  0
    8.8274   -1.6147    0.0000 O   0  0  0  0  0  0  0  0  0  0  0  0
    7.7350   -2.5358    0.0000 C   0  0  0  0  0  0  0  0  0  0  0  0
    6.9229   -2.6810    0.0000 C   0  0  0  0  0  0  0  0  0  0  0  0
    6.3911   -2.0503    0.0000 C   0  0  0  0  0  0  0  0  0  0  0  0
    6.1108   -2.8262    0.0000 C   0  0  0  0  0  0  0  0  0  0  0  0
    5.5790   -2.1955    0.0000 C   0  0  0  0  0  0  0  0  0  0  0  0
    5.2987   -2.9715    0.0000 C   0  0  0  0  0  0  0  0  0  0  0  0
    4.4865   -3.1167    0.0000 C   0  0  0  0  0  0  0  0  0  0  0  0
    4.2062   -3.8926    0.0000 O   0  0  0  0  0  0  0  0  0  0  0  0
    3.9547   -2.4860    0.0000 C   0  0  0  0  0  0  0  0  0  0  0  0
    3.5948   -3.2283    0.0000 C   0  0  0  0  0  0  0  0  0  0  0  0
    2.1131   -3.9495    0.0000 H   0  0  0  0  0  0  0  0  0  0  0  0
    2.7669   -4.6824    0.0000 H   0  0  0  0  0  0  0  0  0  0  0  0
    3.6585   -4.2705    0.0000 H   0  0  0  0  0  0  0  0  0  0  0  0
    2.1174   -3.7618    0.0000 H   0  0  0  0  0  0  0  0  0  0  0  0
    1.8717   -2.1752    0.0000 H   0  0  0  0  0  0  0  0  0  0  0  0
    1.1858   -2.4543    0.0000 H   0  0  0  0  0  0  0  0  0  0  0  0
    1.0996   -4.4492    0.0000 H   0  0  0  0  0  0  0  0  0  0  0  0
    0.9893   -2.8848    0.0000 H   0  0  0  0  0  0  0  0  0  0  0  0
   -0.8406   -4.0746    0.0000 H   0  0  0  0  0  0  0  0  0  0  0  0
    2.3199   -2.3037    0.0000 H   0  0  0  0  0  0  0  0  0  0  0  0
    2.6270   -0.8884    0.0000 H   0  0  0  0  0  0  0  0  0  0  0  0
    2.1698   -1.2843    0.0000 H   0  0  0  0  0  0  0  0  0  0  0  0
    3.9945   -0.4882    0.0000 H   0  0  0  0  0  0  0  0  0  0  0  0
    3.2202   -0.4630    0.0000 H   0  0  0  0  0  0  0  0  0  0  0  0
    4.7668   -2.3407    0.0000 H   0  0  0  0  0  0  0  0  0  0  0  0
    4.5153   -0.9341    0.0000 H   0  0  0  0  0  0  0  0  0  0  0  0
    5.4687    0.0239    0.0000 H   0  0  0  0  0  0  0  0  0  0  0  0
    4.9132   -0.0754    0.0000 H   0  0  0  0  0  0  0  0  0  0  0  0
    6.9040   -0.3335    0.0000 H   0  0  0  0  0  0  0  0  0  0  0  0
    6.5116    0.0927    0.0000 H   0  0  0  0  0  0  0  0  0  0  0  0
    7.2032   -1.9051    0.0000 H   0  0  0  0  0  0  0  0  0  0  0  0
    8.0822   -0.5616    0.0000 H   0  0  0  0  0  0  0  0  0  0  0  0
    7.3857   -0.3100    0.0000 H   0  0  0  0  0  0  0  0  0  0  0  0
    8.5471   -2.3906    0.0000 H   0  0  0  0  0  0  0  0  0  0  0  0
    9.4581   -1.0828    0.0000 H   0  0  0  0  0  0  0  0  0  0  0  0
    7.5937   -3.3486    0.0000 H   0  0  0  0  0  0  0  0  0  0  0  0
    8.1492   -3.2493    0.0000 H   0  0  0  0  0  0  0  0  0  0  0  0
    6.4128   -3.3294    0.0000 H   0  0  0  0  0  0  0  0  0  0  0  0
    6.9728   -3.5045    0.0000 H   0  0  0  0  0  0  0  0  0  0  0  0
    5.4593   -3.3324    0.0000 H   0  0  0  0  0  0  0  0  0  0  0  0
    5.7694   -3.5773    0.0000 H   0  0  0  0  0  0  0  0  0  0  0  0
    6.1577   -3.6499    0.0000 H   0  0  0  0  0  0  0  0  0  0  0  0
    5.8593   -1.4196    0.0000 H   0  0  0  0  0  0  0  0  0  0  0  0
    4.7128   -3.5523    0.0000 H   0  0  0  0  0  0  0  0  0  0  0  0
    5.1465   -3.7823    0.0000 H   0  0  0  0  0  0  0  0  0  0  0  0
    3.8421   -3.6318    0.0000 H   0  0  0  0  0  0  0  0  0  0  0  0
    4.4971   -4.6646    0.0000 H   0  0  0  0  0  0  0  0  0  0  0  0
    2.8438   -2.8870    0.0000 H   0  0  0  0  0  0  0  0  0  0  0  0
    2.7823   -3.3712    0.0000 H   0  0  0  0  0  0  0  0  0  0  0  0
    3.4936   -4.0471    0.0000 H   0  0  0  0  0  0  0  0  0  0  0  0
  1  2  1  0  0  0  0
  2  3  1  0  0  0  0
  3  4  1  0  0  0  0
  4  5  1  0  0  0  0
  5  6  1  0  0  0  0
  5  7  2  0  0  0  0
  2  8  1  0  0  0  0
  8  9  1  0  0  0  0
  9 10  1  0  0  0  0
 10 11  1  0  0  0  0
 11 12  1  0  0  0  0
 12 13  1  0  0  0  0
 13 14  1  0  0  0  0
 14 15  1  0  0  0  0
 15 16  1  0  0  0  0
 16 17  1  0  0  0  0
 17 18  1  0  0  0  0
 17 19  1  0  0  0  0
 19 20  1  0  0  0  0
 20 21  1  0  0  0  0
 15 21  1  0  0  0  0
 21 22  1  0  0  0  0
 21 23  1  0  0  0  0
 12 23  1  0  0  0  0
 23 24  1  0  0  0  0
 24 25  1  0  0  0  0
 25 26  1  0  0  0  0
 25 27  1  0  0  0  0
  8 27  1  0  0  0  0
 11 27  1  0  0  0  0
 27 28  1  0  0  0  0
  1 29  1  0  0  0  0
  1 30  1  0  0  0  0
  1 31  1  0  0  0  0
  2 32  1  0  0  0  0
  3 33  1  0  0  0  0
  3 34  1  0  0  0  0
  4 35  1  0  0  0  0
  4 36  1  0  0  0  0
  6 37  1  0  0  0  0
  8 38  1  0  0  0  0
  9 39  1  0  0  0  0
  9 40  1  0  0  0  0
 10 41  1  0  0  0  0
 10 42  1  0  0  0  0
 11 43  1  0  0  0  0
 12 44  1  0  0  0  0
 13 45  1  0  0  0  0
 13 46  1  0  0  0  0
 14 47  1  0  0  0  0
 14 48  1  0  0  0  0
 15 49  1  0  0  0  0
 16 50  1  0  0  0  0
 16 51  1  0  0  0  0
 17 52  1  0  0  0  0
 18 53  1  0  0  0  0
 19 54  1  0  0  0  0
 19 55  1  0  0  0  0
 20 56  1  0  0  0  0
 20 57  1  0  0  0  0
 22 58  1  0  0  0  0
 22 59  1  0  0  0  0
 22 60  1  0  0  0  0
 23 61  1  0  0  0  0
 24 62  1  0  0  0  0
 24 63  1  0  0  0  0
 25 64  1  0  0  0  0
 26 65  1  0  0  0  0
 28 66  1  0  0  0  0
 28 67  1  0  0  0  0
 28 68  1  0  0  0  0
M  END
>  <InChIKey>
InChI=1S/C24H40O4/c1-14(4-9-22(27)28)18-7-8-19-17-6-5-15-12-16(25)10-11-23(15,2)20(17)13-21(26)24(18,19)3/h14-21,25-26H,4-13H2,1-3H3,(H,27,28)

>  <UN GHS>
2A

>  <CASRN>
302-95-4

> <Outcome>
1

>  <Index>
2031

>  <StandardizerResult>
Clear Stereo (ID: ClearStereo)
Wedge Clean (ID: WedgeClean)
Mesomerize (ID: Mesomerize)
Tautomerize (ID: Tautomerize)
Add Explicit Hydrogens (ID: AddExplicitH)
Neutralize (ID: Neutralize)
Clean 2D (ID: Clean2D)

> <knn Distance>


> <CpId>
2031

$$$$
2038
  Mrv1532301301811342D          

 41 41  0  0  0  0            999 V2000
    3.5724   -7.8379    0.0000 C   0  0  0  0  0  0  0  0  0  0  0  0
    4.2868   -7.4254    0.0000 C   0  0  0  0  0  0  0  0  0  0  0  0
    5.0013   -7.8379    0.0000 C   0  0  0  0  0  0  0  0  0  0  0  0
    5.7158   -7.4254    0.0000 C   0  0  0  0  0  0  0  0  0  0  0  0
    6.4302   -7.8379    0.0000 O   0  0  0  0  0  0  0  0  0  0  0  0
    7.1447   -7.4254    0.0000 C   0  0  0  0  0  0  0  0  0  0  0  0
    7.8592   -7.8379    0.0000 C   0  0  0  0  0  0  0  0  0  0  0  0
    8.5737   -7.4254    0.0000 C   0  0  0  0  0  0  0  0  0  0  0  0
    9.2881   -7.8379    0.0000 O   0  0  0  0  0  0  0  0  0  0  0  0
   10.0026   -7.4254    0.0000 C   0  0  0  0  0  0  0  0  0  0  0  0
   10.0026   -6.6004    0.0000 O   0  0  0  0  0  0  0  0  0  0  0  0
   10.7171   -7.8379    0.0000 C   0  0  0  0  0  0  0  0  0  0  0  0
   11.4315   -7.4254    0.0000 O   0  0  0  0  0  0  0  0  0  0  0  0
   12.1460   -7.8379    0.0000 C   0  0  0  0  0  0  0  0  0  0  0  0
   12.8605   -7.4254    0.0000 C   0  0  0  0  0  0  0  0  0  0  0  0
   13.5750   -7.8379    0.0000 C   0  0  0  0  0  0  0  0  0  0  0  0
   13.5750   -8.6629    0.0000 C   0  0  0  0  0  0  0  0  0  0  0  0
   14.2894   -9.0754    0.0000 Cl  0  0  0  0  0  0  0  0  0  0  0  0
   12.8605   -9.0754    0.0000 C   0  0  0  0  0  0  0  0  0  0  0  0
   12.1460   -8.6629    0.0000 C   0  0  0  0  0  0  0  0  0  0  0  0
   11.4315   -9.0754    0.0000 Cl  0  0  0  0  0  0  0  0  0  0  0  0
    3.1599   -7.1235    0.0000 H   0  0  0  0  0  0  0  0  0  0  0  0
    2.8579   -8.2504    0.0000 H   0  0  0  0  0  0  0  0  0  0  0  0
    3.9849   -8.5524    0.0000 H   0  0  0  0  0  0  0  0  0  0  0  0
    4.6571   -6.6882    0.0000 H   0  0  0  0  0  0  0  0  0  0  0  0
    3.9166   -6.6882    0.0000 H   0  0  0  0  0  0  0  0  0  0  0  0
    4.6310   -8.5752    0.0000 H   0  0  0  0  0  0  0  0  0  0  0  0
    5.3716   -8.5752    0.0000 H   0  0  0  0  0  0  0  0  0  0  0  0
    6.0860   -6.6882    0.0000 H   0  0  0  0  0  0  0  0  0  0  0  0
    5.3455   -6.6882    0.0000 H   0  0  0  0  0  0  0  0  0  0  0  0
    7.5150   -6.6882    0.0000 H   0  0  0  0  0  0  0  0  0  0  0  0
    6.7745   -6.6882    0.0000 H   0  0  0  0  0  0  0  0  0  0  0  0
    7.4889   -8.5752    0.0000 H   0  0  0  0  0  0  0  0  0  0  0  0
    8.2295   -8.5752    0.0000 H   0  0  0  0  0  0  0  0  0  0  0  0
    8.9439   -6.6882    0.0000 H   0  0  0  0  0  0  0  0  0  0  0  0
    8.2034   -6.6882    0.0000 H   0  0  0  0  0  0  0  0  0  0  0  0
   10.3468   -8.5752    0.0000 H   0  0  0  0  0  0  0  0  0  0  0  0
   11.0873   -8.5752    0.0000 H   0  0  0  0  0  0  0  0  0  0  0  0
   12.8605   -6.6004    0.0000 H   0  0  0  0  0  0  0  0  0  0  0  0
   14.2894   -7.4254    0.0000 H   0  0  0  0  0  0  0  0  0  0  0  0
   12.8605   -9.9004    0.0000 H   0  0  0  0  0  0  0  0  0  0  0  0
  1  2  1  0  0  0  0
  2  3  1  0  0  0  0
  3  4  1  0  0  0  0
  4  5  1  0  0  0  0
  5  6  1  0  0  0  0
  6  7  1  0  0  0  0
  7  8  1  0  0  0  0
  8  9  1  0  0  0  0
  9 10  1  0  0  0  0
 10 11  2  0  0  0  0
 10 12  1  0  0  0  0
 12 13  1  0  0  0  0
 13 14  1  0  0  0  0
 14 15  4  0  0  0  0
 15 16  4  0  0  0  0
 16 17  4  0  0  0  0
 17 18  1  0  0  0  0
 17 19  4  0  0  0  0
 19 20  4  0  0  0  0
 14 20  4  0  0  0  0
 20 21  1  0  0  0  0
  1 22  1  0  0  0  0
  1 23  1  0  0  0  0
  1 24  1  0  0  0  0
  2 25  1  0  0  0  0
  2 26  1  0  0  0  0
  3 27  1  0  0  0  0
  3 28  1  0  0  0  0
  4 29  1  0  0  0  0
  4 30  1  0  0  0  0
  6 31  1  0  0  0  0
  6 32  1  0  0  0  0
  7 33  1  0  0  0  0
  7 34  1  0  0  0  0
  8 35  1  0  0  0  0
  8 36  1  0  0  0  0
 12 37  1  0  0  0  0
 12 38  1  0  0  0  0
 15 39  1  0  0  0  0
 16 40  1  0  0  0  0
 19 41  1  0  0  0  0
M  END
>  <InChIKey>
InChI=1S/C15H20Cl2O4/c1-2-3-7-19-8-4-9-20-15(18)11-21-14-6-5-12(16)10-13(14)17/h5-6,10H,2-4,7-9,11H2,1H3

>  <CASRN>
1320-18-9 1928-45-6

> <Outcome>
1

>  <Index>
2038

>  <StandardizerResult>
Dearomatize (ID: Dearomatize)
Clear Stereo (ID: ClearStereo)
Wedge Clean (ID: WedgeClean)
Mesomerize (ID: Mesomerize)
Tautomerize (ID: Tautomerize)
Aromatize (ID: Aromatize)
Add Explicit Hydrogens (ID: AddExplicitH)
Neutralize (ID: Neutralize)
Clean 2D (ID: Clean2D)

> <knn Distance>


> <CpId>
2038

$$$$
2043
  Mrv1532301301811342D          

  9  8  0  0  0  0            999 V2000
    2.5936   -0.9862    0.0000 C   0  0  0  0  0  0  0  0  0  0  0  0
    2.1811   -0.2717    0.0000 O   0  0  0  0  0  0  0  0  0  0  0  0
    1.3561   -0.2717    0.0000 C   0  0  0  0  0  0  0  0  0  0  0  0
    1.8791   -1.3987    0.0000 H   0  0  0  0  0  0  0  0  0  0  0  0
    3.0061   -1.7007    0.0000 H   0  0  0  0  0  0  0  0  0  0  0  0
    3.3081   -0.5737    0.0000 H   0  0  0  0  0  0  0  0  0  0  0  0
    1.3561    0.5533    0.0000 H   0  0  0  0  0  0  0  0  0  0  0  0
    0.5311   -0.2717    0.0000 H   0  0  0  0  0  0  0  0  0  0  0  0
    1.3561   -1.0967    0.0000 H   0  0  0  0  0  0  0  0  0  0  0  0
  1  2  1  0  0  0  0
  2  3  1  0  0  0  0
  1  4  1  0  0  0  0
  1  5  1  0  0  0  0
  1  6  1  0  0  0  0
  3  7  1  0  0  0  0
  3  8  1  0  0  0  0
  3  9  1  0  0  0  0
M  END
>  <InChIKey>
InChI=1S/C2H6O/c1-3-2/h1-2H3

>  <CASRN>
115-10-6

> <Outcome>
1

>  <Index>
2043

>  <StandardizerResult>
Mesomerize (ID: Mesomerize)
Tautomerize (ID: Tautomerize)
Add Explicit Hydrogens (ID: AddExplicitH)
Neutralize (ID: Neutralize)
Clean 2D (ID: Clean2D)

> <knn Distance>


> <CpId>
2043

$$$$
2044
  Mrv1532301301811342D          

 19 19  0  0  0  0            999 V2000
   -0.7137    3.7130    0.0000 O   0  0  0  0  0  0  0  0  0  0  0  0
    0.0008    3.3005    0.0000 C   0  0  0  0  0  0  0  0  0  0  0  0
    0.7153    3.7130    0.0000 O   0  0  0  0  0  0  0  0  0  0  0  0
    0.0008    2.4755    0.0000 C   0  0  0  0  0  0  0  0  0  0  0  0
    0.7153    2.0630    0.0000 O   0  0  0  0  0  0  0  0  0  0  0  0
    0.7153    1.2380    0.0000 C   0  0  0  0  0  0  0  0  0  0  0  0
    1.4297    0.8255    0.0000 C   0  0  0  0  0  0  0  0  0  0  0  0
    1.4297    0.0005    0.0000 C   0  0  0  0  0  0  0  0  0  0  0  0
    0.7153   -0.4120    0.0000 C   0  0  0  0  0  0  0  0  0  0  0  0
    0.0008    0.0005    0.0000 C   0  0  0  0  0  0  0  0  0  0  0  0
    0.0008    0.8255    0.0000 C   0  0  0  0  0  0  0  0  0  0  0  0
   -0.7137    4.5380    0.0000 H   0  0  0  0  0  0  0  0  0  0  0  0
   -0.8228    2.4275    0.0000 H   0  0  0  0  0  0  0  0  0  0  0  0
   -0.4525    1.7862    0.0000 H   0  0  0  0  0  0  0  0  0  0  0  0
    2.1442    1.2380    0.0000 H   0  0  0  0  0  0  0  0  0  0  0  0
    2.1442   -0.4120    0.0000 H   0  0  0  0  0  0  0  0  0  0  0  0
    0.7153   -1.2370    0.0000 H   0  0  0  0  0  0  0  0  0  0  0  0
   -0.7137   -0.4120    0.0000 H   0  0  0  0  0  0  0  0  0  0  0  0
   -0.7137    1.2380    0.0000 H   0  0  0  0  0  0  0  0  0  0  0  0
  1  2  1  0  0  0  0
  2  3  2  0  0  0  0
  2  4  1  0  0  0  0
  4  5  1  0  0  0  0
  5  6  1  0  0  0  0
  6  7  4  0  0  0  0
  7  8  4  0  0  0  0
  8  9  4  0  0  0  0
  9 10  4  0  0  0  0
 10 11  4  0  0  0  0
  6 11  4  0  0  0  0
  1 12  1  0  0  0  0
  4 13  1  0  0  0  0
  4 14  1  0  0  0  0
  7 15  1  0  0  0  0
  8 16  1  0  0  0  0
  9 17  1  0  0  0  0
 10 18  1  0  0  0  0
 11 19  1  0  0  0  0
M  END
>  <InChIKey>
InChI=1S/C8H8O3/c9-8(10)6-11-7-4-2-1-3-5-7/h1-5H,6H2,(H,9,10)

>  <CASRN>
122-59-8

> <Outcome>
1

>  <Index>
2044

>  <StandardizerResult>
Dearomatize (ID: Dearomatize)
Clear Stereo (ID: ClearStereo)
Wedge Clean (ID: WedgeClean)
Mesomerize (ID: Mesomerize)
Tautomerize (ID: Tautomerize)
Aromatize (ID: Aromatize)
Add Explicit Hydrogens (ID: AddExplicitH)
Neutralize (ID: Neutralize)
Clean 2D (ID: Clean2D)

> <knn Distance>


> <CpId>
2044

$$$$
2047
  Mrv1532301301811342D          

 24 25  0  0  0  0            999 V2000
   -1.0296   -2.0755    0.0000 Cl  0  0  0  0  0  0  0  0  0  0  0  0
   -0.6171   -1.3610    0.0000 C   0  0  0  0  0  0  0  0  0  0  0  0
    0.0974   -1.7735    0.0000 Cl  0  0  0  0  0  0  0  0  0  0  0  0
   -1.3315   -0.9485    0.0000 Cl  0  0  0  0  0  0  0  0  0  0  0  0
   -0.2046   -0.6465    0.0000 S   0  0  0  0  0  0  0  0  0  0  0  0
    0.6204   -0.6465    0.0000 N   0  0  0  0  0  0  0  0  0  0  0  0
    1.1054    0.0209    0.0000 C   0  0  0  0  0  0  0  0  0  0  0  0
    0.8504    0.8055    0.0000 O   0  0  0  0  0  0  0  0  0  0  0  0
    1.8900   -0.2340    0.0000 C   0  0  0  0  0  0  0  0  0  0  0  0
    2.6044    0.1785    0.0000 C   0  0  0  0  0  0  0  0  0  0  0  0
    3.3189   -0.2340    0.0000 C   0  0  0  0  0  0  0  0  0  0  0  0
    3.3189   -1.0590    0.0000 C   0  0  0  0  0  0  0  0  0  0  0  0
    2.6044   -1.4715    0.0000 C   0  0  0  0  0  0  0  0  0  0  0  0
    1.8900   -1.0590    0.0000 C   0  0  0  0  0  0  0  0  0  0  0  0
    1.1054   -1.3140    0.0000 C   0  0  0  0  0  0  0  0  0  0  0  0
    0.8504   -2.0986    0.0000 O   0  0  0  0  0  0  0  0  0  0  0  0
    2.6044   -0.6465    0.0000 H   0  0  0  0  0  0  0  0  0  0  0  0
    2.9747    0.9157    0.0000 H   0  0  0  0  0  0  0  0  0  0  0  0
    2.2342    0.9157    0.0000 H   0  0  0  0  0  0  0  0  0  0  0  0
    4.0334    0.1785    0.0000 H   0  0  0  0  0  0  0  0  0  0  0  0
    4.0334   -1.4715    0.0000 H   0  0  0  0  0  0  0  0  0  0  0  0
    2.2342   -2.2088    0.0000 H   0  0  0  0  0  0  0  0  0  0  0  0
    2.9747   -2.2088    0.0000 H   0  0  0  0  0  0  0  0  0  0  0  0
    1.8037   -1.8795    0.0000 H   0  0  0  0  0  0  0  0  0  0  0  0
  1  2  1  0  0  0  0
  2  3  1  0  0  0  0
  2  4  1  0  0  0  0
  2  5  1  0  0  0  0
  5  6  1  0  0  0  0
  6  7  1  0  0  0  0
  7  8  2  0  0  0  0
  7  9  1  0  0  0  0
  9 10  1  0  0  0  0
 10 11  1  0  0  0  0
 11 12  2  0  0  0  0
 12 13  1  0  0  0  0
 13 14  1  0  0  0  0
  9 14  1  0  0  0  0
 14 15  1  0  0  0  0
  6 15  1  0  0  0  0
 15 16  2  0  0  0  0
  9 17  1  0  0  0  0
 10 18  1  0  0  0  0
 10 19  1  0  0  0  0
 11 20  1  0  0  0  0
 12 21  1  0  0  0  0
 13 22  1  0  0  0  0
 13 23  1  0  0  0  0
 14 24  1  0  0  0  0
M  END
>  <InChIKey>
InChI=1S/C9H8Cl3NO2S/c10-9(11,12)16-13-7(14)5-3-1-2-4-6(5)8(13)15/h1-2,5-6H,3-4H2

>  <UN GHS>
1

>  <CASRN>
133-06-2  133-06-2

> <Outcome>
1

>  <Index>
2047

>  <StandardizerResult>
Clear Stereo (ID: ClearStereo)
Wedge Clean (ID: WedgeClean)
Mesomerize (ID: Mesomerize)
Tautomerize (ID: Tautomerize)
Add Explicit Hydrogens (ID: AddExplicitH)
Neutralize (ID: Neutralize)
Clean 2D (ID: Clean2D)

> <knn Distance>


> <CpId>
2047

$$$$
2049
  Mrv1532301301811342D          

 63 62  0  0  0  0            999 V2000
    9.1655    6.1357    0.0000 C   0  0  0  0  0  0  0  0  0  0  0  0
    9.8800    5.7232    0.0000 C   0  0  0  0  0  0  0  0  0  0  0  0
   10.5944    6.1357    0.0000 C   0  0  0  0  0  0  0  0  0  0  0  0
   11.3089    5.7232    0.0000 C   0  0  0  0  0  0  0  0  0  0  0  0
   12.0234    6.1357    0.0000 C   0  0  0  0  0  0  0  0  0  0  0  0
   12.7379    5.7232    0.0000 C   0  0  0  0  0  0  0  0  0  0  0  0
   13.4523    6.1357    0.0000 C   0  0  0  0  0  0  0  0  0  0  0  0
   14.1668    5.7232    0.0000 C   0  0  0  0  0  0  0  0  0  0  0  0
   14.8813    6.1357    0.0000 C   0  0  0  0  0  0  0  0  0  0  0  0
   15.5957    5.7232    0.0000 C   0  0  0  0  0  0  0  0  0  0  0  0
   16.3102    6.1357    0.0000 C   0  0  0  0  0  0  0  0  0  0  0  0
   16.3102    6.9607    0.0000 C   0  0  0  0  0  0  0  0  0  0  0  0
   17.0247    7.3732    0.0000 O   0  0  0  0  0  0  0  0  0  0  0  0
   17.0247    5.7232    0.0000 C   0  0  0  0  0  0  0  0  0  0  0  0
   17.7392    6.1357    0.0000 C   0  0  0  0  0  0  0  0  0  0  0  0
   18.4536    5.7232    0.0000 C   0  0  0  0  0  0  0  0  0  0  0  0
   19.1681    6.1357    0.0000 C   0  0  0  0  0  0  0  0  0  0  0  0
   19.8826    5.7232    0.0000 C   0  0  0  0  0  0  0  0  0  0  0  0
   20.5970    6.1357    0.0000 C   0  0  0  0  0  0  0  0  0  0  0  0
   21.3115    5.7232    0.0000 C   0  0  0  0  0  0  0  0  0  0  0  0
   22.0260    6.1357    0.0000 C   0  0  0  0  0  0  0  0  0  0  0  0
    9.5780    6.8501    0.0000 H   0  0  0  0  0  0  0  0  0  0  0  0
    8.4510    6.5482    0.0000 H   0  0  0  0  0  0  0  0  0  0  0  0
    8.7530    5.4212    0.0000 H   0  0  0  0  0  0  0  0  0  0  0  0
    9.5097    4.9859    0.0000 H   0  0  0  0  0  0  0  0  0  0  0  0
   10.2502    4.9859    0.0000 H   0  0  0  0  0  0  0  0  0  0  0  0
   10.9647    6.8729    0.0000 H   0  0  0  0  0  0  0  0  0  0  0  0
   10.2242    6.8729    0.0000 H   0  0  0  0  0  0  0  0  0  0  0  0
   10.9387    4.9859    0.0000 H   0  0  0  0  0  0  0  0  0  0  0  0
   11.6792    4.9859    0.0000 H   0  0  0  0  0  0  0  0  0  0  0  0
   12.3936    6.8729    0.0000 H   0  0  0  0  0  0  0  0  0  0  0  0
   11.6531    6.8729    0.0000 H   0  0  0  0  0  0  0  0  0  0  0  0
   12.3676    4.9859    0.0000 H   0  0  0  0  0  0  0  0  0  0  0  0
   13.1081    4.9859    0.0000 H   0  0  0  0  0  0  0  0  0  0  0  0
   13.8226    6.8729    0.0000 H   0  0  0  0  0  0  0  0  0  0  0  0
   13.0821    6.8729    0.0000 H   0  0  0  0  0  0  0  0  0  0  0  0
   13.7965    4.9859    0.0000 H   0  0  0  0  0  0  0  0  0  0  0  0
   14.5371    4.9859    0.0000 H   0  0  0  0  0  0  0  0  0  0  0  0
   15.2515    6.8729    0.0000 H   0  0  0  0  0  0  0  0  0  0  0  0
   14.5110    6.8729    0.0000 H   0  0  0  0  0  0  0  0  0  0  0  0
   15.2255    4.9859    0.0000 H   0  0  0  0  0  0  0  0  0  0  0  0
   15.9660    4.9859    0.0000 H   0  0  0  0  0  0  0  0  0  0  0  0
   15.5957    6.5482    0.0000 H   0  0  0  0  0  0  0  0  0  0  0  0
   16.1670    7.7731    0.0000 H   0  0  0  0  0  0  0  0  0  0  0  0
   15.6782    7.4910    0.0000 H   0  0  0  0  0  0  0  0  0  0  0  0
   17.8489    7.4091    0.0000 H   0  0  0  0  0  0  0  0  0  0  0  0
   16.6544    4.9859    0.0000 H   0  0  0  0  0  0  0  0  0  0  0  0
   17.3949    4.9859    0.0000 H   0  0  0  0  0  0  0  0  0  0  0  0
   18.1094    6.8729    0.0000 H   0  0  0  0  0  0  0  0  0  0  0  0
   17.3689    6.8729    0.0000 H   0  0  0  0  0  0  0  0  0  0  0  0
   18.0834    4.9859    0.0000 H   0  0  0  0  0  0  0  0  0  0  0  0
   18.8239    4.9859    0.0000 H   0  0  0  0  0  0  0  0  0  0  0  0
   19.5384    6.8729    0.0000 H   0  0  0  0  0  0  0  0  0  0  0  0
   18.7978    6.8729    0.0000 H   0  0  0  0  0  0  0  0  0  0  0  0
   19.5123    4.9859    0.0000 H   0  0  0  0  0  0  0  0  0  0  0  0
   20.2528    4.9859    0.0000 H   0  0  0  0  0  0  0  0  0  0  0  0
   20.9673    6.8729    0.0000 H   0  0  0  0  0  0  0  0  0  0  0  0
   20.2268    6.8729    0.0000 H   0  0  0  0  0  0  0  0  0  0  0  0
   20.9413    4.9859    0.0000 H   0  0  0  0  0  0  0  0  0  0  0  0
   21.6818    4.9859    0.0000 H   0  0  0  0  0  0  0  0  0  0  0  0
   22.4385    5.4212    0.0000 H   0  0  0  0  0  0  0  0  0  0  0  0
   22.7405    6.5482    0.0000 H   0  0  0  0  0  0  0  0  0  0  0  0
   21.6135    6.8501    0.0000 H   0  0  0  0  0  0  0  0  0  0  0  0
  1  2  1  0  0  0  0
  2  3  1  0  0  0  0
  3  4  1  0  0  0  0
  4  5  1  0  0  0  0
  5  6  1  0  0  0  0
  6  7  1  0  0  0  0
  7  8  1  0  0  0  0
  8  9  1  0  0  0  0
  9 10  1  0  0  0  0
 10 11  1  0  0  0  0
 11 12  1  0  0  0  0
 12 13  1  0  0  0  0
 11 14  1  0  0  0  0
 14 15  1  0  0  0  0
 15 16  1  0  0  0  0
 16 17  1  0  0  0  0
 17 18  1  0  0  0  0
 18 19  1  0  0  0  0
 19 20  1  0  0  0  0
 20 21  1  0  0  0  0
  1 22  1  0  0  0  0
  1 23  1  0  0  0  0
  1 24  1  0  0  0  0
  2 25  1  0  0  0  0
  2 26  1  0  0  0  0
  3 27  1  0  0  0  0
  3 28  1  0  0  0  0
  4 29  1  0  0  0  0
  4 30  1  0  0  0  0
  5 31  1  0  0  0  0
  5 32  1  0  0  0  0
  6 33  1  0  0  0  0
  6 34  1  0  0  0  0
  7 35  1  0  0  0  0
  7 36  1  0  0  0  0
  8 37  1  0  0  0  0
  8 38  1  0  0  0  0
  9 39  1  0  0  0  0
  9 40  1  0  0  0  0
 10 41  1  0  0  0  0
 10 42  1  0  0  0  0
 11 43  1  0  0  0  0
 12 44  1  0  0  0  0
 12 45  1  0  0  0  0
 13 46  1  0  0  0  0
 14 47  1  0  0  0  0
 14 48  1  0  0  0  0
 15 49  1  0  0  0  0
 15 50  1  0  0  0  0
 16 51  1  0  0  0  0
 16 52  1  0  0  0  0
 17 53  1  0  0  0  0
 17 54  1  0  0  0  0
 18 55  1  0  0  0  0
 18 56  1  0  0  0  0
 19 57  1  0  0  0  0
 19 58  1  0  0  0  0
 20 59  1  0  0  0  0
 20 60  1  0  0  0  0
 21 61  1  0  0  0  0
 21 62  1  0  0  0  0
 21 63  1  0  0  0  0
M  END
>  <InChIKey>
InChI=1S/C20H42O/c1-3-5-7-9-11-12-14-16-18-20(19-21)17-15-13-10-8-6-4-2/h20-21H,3-19H2,1-2H3

>  <CASRN>
5333-42-6

> <Outcome>
1

>  <Index>
2049

>  <StandardizerResult>
Clear Stereo (ID: ClearStereo)
Wedge Clean (ID: WedgeClean)
Mesomerize (ID: Mesomerize)
Tautomerize (ID: Tautomerize)
Add Explicit Hydrogens (ID: AddExplicitH)
Neutralize (ID: Neutralize)
Clean 2D (ID: Clean2D)

> <knn Distance>


> <CpId>
2049

$$$$
2052
  Mrv1532301301811342D          

  6  5  0  0  0  0            999 V2000
    2.0625   -0.7145    0.0000 O   0  0  0  0  0  0  0  0  0  0  0  0
    1.2375   -0.7145    0.0000 C   0  0  0  0  0  0  0  0  0  0  0  0
    0.8250   -0.0000    0.0000 C   0  0  0  0  0  0  0  0  0  0  0  0
    0.0000   -0.0000    0.0000 O   0  0  0  0  0  0  0  0  0  0  0  0
    0.8250   -1.4290    0.0000 H   0  0  0  0  0  0  0  0  0  0  0  0
    1.2375    0.7145    0.0000 H   0  0  0  0  0  0  0  0  0  0  0  0
  1  2  2  0  0  0  0
  2  3  1  0  0  0  0
  3  4  2  0  0  0  0
  2  5  1  0  0  0  0
  3  6  1  0  0  0  0
M  END
>  <InChIKey>
InChI=1S/C2H2O2/c3-1-2-4/h1-2H

>  <CASRN>
107-22-2

> <Outcome>
1

>  <Index>
2052

>  <StandardizerResult>
Clear Stereo (ID: ClearStereo)
Wedge Clean (ID: WedgeClean)
Mesomerize (ID: Mesomerize)
Tautomerize (ID: Tautomerize)
Add Explicit Hydrogens (ID: AddExplicitH)
Neutralize (ID: Neutralize)
Clean 2D (ID: Clean2D)

> <knn Distance>


> <CpId>
2052

$$$$
2055
  Mrv1532301301811342D          

  7  6  0  0  0  0            999 V2000
    1.6500    1.4289    0.0000 Cl  0  0  0  0  0  0  0  0  0  0  0  0
    1.2375    0.7145    0.0000 C   0  0  0  0  0  0  0  0  0  0  0  0
    0.5230    1.1270    0.0000 Cl  0  0  0  0  0  0  0  0  0  0  0  0
    1.9520    0.3020    0.0000 Cl  0  0  0  0  0  0  0  0  0  0  0  0
    0.8250    0.0000    0.0000 N   0  0  0  0  0  0  0  0  0  0  0  0
    1.2375   -0.7145    0.0000 O   0  0  0  0  0  0  0  0  0  0  0  0
    0.0000    0.0000    0.0000 O   0  0  0  0  0  0  0  0  0  0  0  0
  1  2  1  0  0  0  0
  2  3  1  0  0  0  0
  2  4  1  0  0  0  0
  2  5  1  0  0  0  0
  5  6  2  0  0  0  0
  5  7  2  0  0  0  0
M  END
>  <InChIKey>
InChI=1S/CCl3NO2/c2-1(3,4)5(6)7

>  <CASRN>
76-06-2

> <Outcome>
1

>  <Index>
2055

>  <StandardizerResult>
Clear Stereo (ID: ClearStereo)
Wedge Clean (ID: WedgeClean)
Mesomerize (ID: Mesomerize)
Tautomerize (ID: Tautomerize)
Clean 2D (ID: Clean2D)

> <knn Distance>


> <CpId>
2055

$$$$
2060
  Mrv1532301301811342D          

 15 16  0  0  0  0            999 V2000
    0.8838   -2.1500    0.0000 O   0  0  0  0  0  0  0  0  0  0  0  0
    1.1387   -1.3654    0.0000 C   0  0  0  0  0  0  0  0  0  0  0  0
    0.6538   -0.6979    0.0000 O   0  0  0  0  0  0  0  0  0  0  0  0
    1.1387   -0.0305    0.0000 C   0  0  0  0  0  0  0  0  0  0  0  0
    0.8838    0.7541    0.0000 O   0  0  0  0  0  0  0  0  0  0  0  0
    1.9233   -0.2854    0.0000 C   0  0  0  0  0  0  0  0  0  0  0  0
    2.6378    0.1271    0.0000 C   0  0  0  0  0  0  0  0  0  0  0  0
    3.3523   -0.2854    0.0000 C   0  0  0  0  0  0  0  0  0  0  0  0
    3.3523   -1.1104    0.0000 C   0  0  0  0  0  0  0  0  0  0  0  0
    2.6378   -1.5229    0.0000 C   0  0  0  0  0  0  0  0  0  0  0  0
    1.9233   -1.1104    0.0000 C   0  0  0  0  0  0  0  0  0  0  0  0
    2.6378    0.9521    0.0000 H   0  0  0  0  0  0  0  0  0  0  0  0
    4.0667    0.1271    0.0000 H   0  0  0  0  0  0  0  0  0  0  0  0
    4.0667   -1.5229    0.0000 H   0  0  0  0  0  0  0  0  0  0  0  0
    2.6378   -2.3479    0.0000 H   0  0  0  0  0  0  0  0  0  0  0  0
  1  2  2  0  0  0  0
  2  3  1  0  0  0  0
  3  4  1  0  0  0  0
  4  5  2  0  0  0  0
  4  6  1  0  0  0  0
  6  7  4  0  0  0  0
  7  8  4  0  0  0  0
  8  9  4  0  0  0  0
  9 10  4  0  0  0  0
 10 11  4  0  0  0  0
  2 11  1  0  0  0  0
  6 11  4  0  0  0  0
  7 12  1  0  0  0  0
  8 13  1  0  0  0  0
  9 14  1  0  0  0  0
 10 15  1  0  0  0  0
M  END
>  <InChIKey>
InChI=1S/C8H4O3/c9-7-5-3-1-2-4-6(5)8(10)11-7/h1-4H

>  <CASRN>
85-44-9

> <Outcome>
1

>  <Index>
2060

>  <StandardizerResult>
Dearomatize (ID: Dearomatize)
Clear Stereo (ID: ClearStereo)
Wedge Clean (ID: WedgeClean)
Mesomerize (ID: Mesomerize)
Tautomerize (ID: Tautomerize)
Aromatize (ID: Aromatize)
Add Explicit Hydrogens (ID: AddExplicitH)
Neutralize (ID: Neutralize)
Clean 2D (ID: Clean2D)

> <knn Distance>


> <CpId>
2060

$$$$
2061
  Mrv1532301301811342D          

  6  5  0  0  0  0            999 V2000
    1.2375    0.7145    0.0000 Cl  0  0  0  0  0  0  0  0  0  0  0  0
    0.8250   -0.0000    0.0000 C   0  0  0  0  0  0  0  0  0  0  0  0
    1.2375   -0.7145    0.0000 Cl  0  0  0  0  0  0  0  0  0  0  0  0
    0.0000   -0.0000    0.0000 C   0  0  0  0  0  0  0  0  0  0  0  0
   -0.4125    0.7145    0.0000 H   0  0  0  0  0  0  0  0  0  0  0  0
   -0.4125   -0.7145    0.0000 H   0  0  0  0  0  0  0  0  0  0  0  0
  1  2  1  0  0  0  0
  2  3  1  0  0  0  0
  2  4  2  0  0  0  0
  4  5  1  0  0  0  0
  4  6  1  0  0  0  0
M  END
>  <InChIKey>
InChI=1S/C2H2Cl2/c1-2(3)4/h1H2

>  <CASRN>
75-35-4

> <Outcome>
1

>  <Index>
2061

>  <StandardizerResult>
Clear Stereo (ID: ClearStereo)
Wedge Clean (ID: WedgeClean)
Mesomerize (ID: Mesomerize)
Tautomerize (ID: Tautomerize)
Add Explicit Hydrogens (ID: AddExplicitH)
Neutralize (ID: Neutralize)
Clean 2D (ID: Clean2D)

> <knn Distance>


> <CpId>
2061

$$$$
2064
  Mrv1532301301811342D          

 21 25  0  0  0  0            999 V2000
   -0.1027    0.9367    0.0000 Cl  0  0  0  0  0  0  0  0  0  0  0  0
    0.6279    0.5536    0.0000 C   0  0  0  0  0  0  0  0  0  0  0  0
    1.2271    1.1066    0.0000 C   0  0  0  0  0  0  0  0  0  0  0  0
    1.2026    1.9312    0.0000 O   0  0  0  0  0  0  0  0  0  0  0  0
    1.8740    0.5770    0.0000 C   0  0  0  0  0  0  0  0  0  0  0  0
    2.4810    1.1357    0.0000 Cl  0  0  0  0  0  0  0  0  0  0  0  0
    2.2277    0.0634    0.0000 C   0  0  0  0  0  0  0  0  0  0  0  0
    3.0066    0.3354    0.0000 Cl  0  0  0  0  0  0  0  0  0  0  0  0
    1.2830    0.0410    0.0000 C   0  0  0  0  0  0  0  0  0  0  0  0
    1.5427    0.8241    0.0000 Cl  0  0  0  0  0  0  0  0  0  0  0  0
    1.0161   -0.7790    0.0000 C   0  0  0  0  0  0  0  0  0  0  0  0
    0.4562   -1.3849    0.0000 Cl  0  0  0  0  0  0  0  0  0  0  0  0
    0.5174   -0.2289    0.0000 C   0  0  0  0  0  0  0  0  0  0  0  0
   -0.2173    0.1464    0.0000 Cl  0  0  0  0  0  0  0  0  0  0  0  0
    1.5022   -0.3377    0.0000 C   0  0  0  0  0  0  0  0  0  0  0  0
    1.2735   -1.1304    0.0000 Cl  0  0  0  0  0  0  0  0  0  0  0  0
    2.2816   -0.7158    0.0000 C   0  0  0  0  0  0  0  0  0  0  0  0
    3.0969   -0.5895    0.0000 Cl  0  0  0  0  0  0  0  0  0  0  0  0
    1.6771   -1.2894    0.0000 C   0  0  0  0  0  0  0  0  0  0  0  0
    2.1310   -1.9783    0.0000 Cl  0  0  0  0  0  0  0  0  0  0  0  0
    1.2954   -2.0208    0.0000 Cl  0  0  0  0  0  0  0  0  0  0  0  0
  1  2  1  0  0  0  0
  2  3  1  0  0  0  0
  3  4  2  0  0  0  0
  3  5  1  0  0  0  0
  5  6  1  0  0  0  0
  5  7  1  0  0  0  0
  7  8  1  0  0  0  0
  7  9  1  0  0  0  0
  2  9  1  0  0  0  0
  9 10  1  0  0  0  0
  9 11  1  0  0  0  0
 11 12  1  0  0  0  0
 11 13  1  0  0  0  0
  2 13  1  0  0  0  0
 13 14  1  0  0  0  0
 13 15  1  0  0  0  0
  5 15  1  0  0  0  0
 15 16  1  0  0  0  0
 15 17  1  0  0  0  0
  7 17  1  0  0  0  0
 17 18  1  0  0  0  0
 17 19  1  0  0  0  0
 11 19  1  0  0  0  0
 19 20  1  0  0  0  0
 19 21  1  0  0  0  0
M  END
>  <InChIKey>
InChI=1S/C10Cl10O/c11-2-1(21)3(12)6(15)4(2,13)8(17)5(2,14)7(3,16)9(6,18)10(8,19)20

>  <CASRN>
143-50-0

> <Outcome>
1

>  <Index>
2064

>  <StandardizerResult>
Clear Stereo (ID: ClearStereo)
Wedge Clean (ID: WedgeClean)
Mesomerize (ID: Mesomerize)
Tautomerize (ID: Tautomerize)
Clean 2D (ID: Clean2D)

> <knn Distance>


> <CpId>
2064

$$$$
2065
  Mrv1532301301811342D          

 49 52  0  0  0  0            999 V2000
    0.2283    0.6464    0.0000 C   0  0  0  0  0  0  0  0  0  0  0  0
    0.8957    0.1614    0.0000 C   0  0  0  0  0  0  0  0  0  0  0  0
    1.6494    0.4970    0.0000 C   0  0  0  0  0  0  0  0  0  0  0  0
    1.9043    1.2816    0.0000 C   0  0  0  0  0  0  0  0  0  0  0  0
    2.7293    1.2816    0.0000 N   0  0  0  0  0  0  0  0  0  0  0  0
    2.9843    0.4970    0.0000 C   0  0  0  0  0  0  0  0  0  0  0  0
    3.7379    0.1614    0.0000 N   0  0  0  0  0  0  0  0  0  0  0  0
    3.8242   -0.6590    0.0000 C   0  0  0  0  0  0  0  0  0  0  0  0
    3.1567   -1.1440    0.0000 C   0  0  0  0  0  0  0  0  0  0  0  0
    2.2306   -0.8084    0.0000 C   0  0  0  0  0  0  0  0  0  0  0  0
    1.4769   -1.1440    0.0000 C   0  0  0  0  0  0  0  0  0  0  0  0
    0.8095   -0.6590    0.0000 C   0  0  0  0  0  0  0  0  0  0  0  0
    0.0558   -0.9946    0.0000 O   0  0  0  0  0  0  0  0  0  0  0  0
   -0.6116   -0.5097    0.0000 S   0  0  0  0  0  0  0  0  0  0  0  0
   -1.2791   -0.0248    0.0000 O   0  0  0  0  0  0  0  0  0  0  0  0
   -1.0966   -1.1771    0.0000 O   0  0  0  0  0  0  0  0  0  0  0  0
   -0.1267    0.1578    0.0000 O   0  0  0  0  0  0  0  0  0  0  0  0
    2.3168    0.0121    0.0000 N   0  0  0  0  0  0  0  0  0  0  0  0
    4.5779   -0.9946    0.0000 C   0  0  0  0  0  0  0  0  0  0  0  0
    5.2453   -0.5097    0.0000 O   0  0  0  0  0  0  0  0  0  0  0  0
    4.6641   -1.8151    0.0000 C   0  0  0  0  0  0  0  0  0  0  0  0
    5.4178   -2.1506    0.0000 C   0  0  0  0  0  0  0  0  0  0  0  0
    5.5040   -2.9711    0.0000 C   0  0  0  0  0  0  0  0  0  0  0  0
    6.2577   -3.3067    0.0000 O   0  0  0  0  0  0  0  0  0  0  0  0
    4.8366   -3.4560    0.0000 N   0  0  0  0  0  0  0  0  0  0  0  0
    4.0829   -3.1205    0.0000 C   0  0  0  0  0  0  0  0  0  0  0  0
    3.4154   -3.6054    0.0000 O   0  0  0  0  0  0  0  0  0  0  0  0
    3.9967   -2.3000    0.0000 N   0  0  0  0  0  0  0  0  0  0  0  0
    0.9317    1.0774    0.0000 H   0  0  0  0  0  0  0  0  0  0  0  0
    0.0992    1.4612    0.0000 H   0  0  0  0  0  0  0  0  0  0  0  0
   -0.5739    0.8389    0.0000 H   0  0  0  0  0  0  0  0  0  0  0  0
    0.1420   -0.1741    0.0000 H   0  0  0  0  0  0  0  0  0  0  0  0
    1.5632   -0.3235    0.0000 H   0  0  0  0  0  0  0  0  0  0  0  0
    1.7895    2.0986    0.0000 H   0  0  0  0  0  0  0  0  0  0  0  0
    1.1628    1.6433    0.0000 H   0  0  0  0  0  0  0  0  0  0  0  0
    4.4054    0.6464    0.0000 H   0  0  0  0  0  0  0  0  0  0  0  0
    3.9104   -1.4795    0.0000 H   0  0  0  0  0  0  0  0  0  0  0  0
    2.5131   -1.6600    0.0000 H   0  0  0  0  0  0  0  0  0  0  0  0
    3.2624   -1.9622    0.0000 H   0  0  0  0  0  0  0  0  0  0  0  0
    2.9299   -0.3707    0.0000 H   0  0  0  0  0  0  0  0  0  0  0  0
    1.0316   -1.8385    0.0000 H   0  0  0  0  0  0  0  0  0  0  0  0
    1.7681   -1.9159    0.0000 H   0  0  0  0  0  0  0  0  0  0  0  0
    0.7232   -1.4795    0.0000 H   0  0  0  0  0  0  0  0  0  0  0  0
   -1.1928    0.7957    0.0000 H   0  0  0  0  0  0  0  0  0  0  0  0
    4.4916   -0.1741    0.0000 H   0  0  0  0  0  0  0  0  0  0  0  0
    6.0658   -0.4234    0.0000 H   0  0  0  0  0  0  0  0  0  0  0  0
    6.0852   -1.6657    0.0000 H   0  0  0  0  0  0  0  0  0  0  0  0
    4.9228   -4.2765    0.0000 H   0  0  0  0  0  0  0  0  0  0  0  0
    3.3262   -2.7808    0.0000 H   0  0  0  0  0  0  0  0  0  0  0  0
  1  2  1  0  0  0  0
  2  3  1  0  0  0  0
  3  4  1  0  0  0  0
  4  5  1  0  0  0  0
  5  6  2  0  0  0  0
  6  7  1  0  0  0  0
  7  8  1  0  0  0  0
  8  9  1  0  0  0  0
  9 10  1  0  0  0  0
 10 11  1  0  0  0  0
 11 12  1  0  0  0  0
  2 12  1  0  0  0  0
 12 13  1  0  0  0  0
 13 14  1  0  0  0  0
 14 15  1  0  0  0  0
 14 16  2  0  0  0  0
 14 17  2  0  0  0  0
 10 18  1  0  0  0  0
  3 18  1  0  0  0  0
  6 18  1  0  0  0  0
  8 19  1  0  0  0  0
 19 20  1  0  0  0  0
 19 21  1  0  0  0  0
 21 22  2  0  0  0  0
 22 23  1  0  0  0  0
 23 24  2  0  0  0  0
 23 25  1  0  0  0  0
 25 26  1  0  0  0  0
 26 27  2  0  0  0  0
 26 28  1  0  0  0  0
 21 28  1  0  0  0  0
  1 29  1  0  0  0  0
  1 30  1  0  0  0  0
  1 31  1  0  0  0  0
  2 32  1  0  0  0  0
  3 33  1  0  0  0  0
  4 34  1  0  0  0  0
  4 35  1  0  0  0  0
  7 36  1  0  0  0  0
  8 37  1  0  0  0  0
  9 38  1  0  0  0  0
  9 39  1  0  0  0  0
 10 40  1  0  0  0  0
 11 41  1  0  0  0  0
 11 42  1  0  0  0  0
 12 43  1  0  0  0  0
 15 44  1  0  0  0  0
 19 45  1  0  0  0  0
 20 46  1  0  0  0  0
 22 47  1  0  0  0  0
 25 48  1  0  0  0  0
 28 49  1  0  0  0  0
M  END
>  <InChIKey>
InChI=1S/C15H21N5O7S/c1-6-10-5-16-14-17-8(13(22)9-4-12(21)19-15(23)18-9)2-7(20(10)14)3-11(6)27-28(24,25)26/h4,6-8,10-11,13,22H,2-3,5H2,1H3,(H,16,17)(H,24,25,26)(H2,18,19,21,23)

>  <CASRN>
143545-90-8

> <Outcome>
1

>  <Index>
2065

>  <StandardizerResult>
Dearomatize (ID: Dearomatize)
Clear Stereo (ID: ClearStereo)
Wedge Clean (ID: WedgeClean)
Mesomerize (ID: Mesomerize)
Tautomerize (ID: Tautomerize)
Add Explicit Hydrogens (ID: AddExplicitH)
Neutralize (ID: Neutralize)
Clean 2D (ID: Clean2D)

> <knn Distance>


> <CpId>
2065

$$$$
2066
  Mrv1532301301811342D          

 13 13  0  0  0  0            999 V2000
    0.7145    2.0625    0.0000 O   0  0  0  0  0  0  0  0  0  0  0  0
    0.7145    1.2375    0.0000 C   0  0  0  0  0  0  0  0  0  0  0  0
    1.4289    0.8250    0.0000 C   0  0  0  0  0  0  0  0  0  0  0  0
    2.1434    1.2375    0.0000 Cl  0  0  0  0  0  0  0  0  0  0  0  0
    1.4289    0.0000    0.0000 C   0  0  0  0  0  0  0  0  0  0  0  0
    0.7145   -0.4125    0.0000 C   0  0  0  0  0  0  0  0  0  0  0  0
    0.7145   -1.2375    0.0000 Cl  0  0  0  0  0  0  0  0  0  0  0  0
   -0.0000    0.0000    0.0000 C   0  0  0  0  0  0  0  0  0  0  0  0
   -0.0000    0.8250    0.0000 C   0  0  0  0  0  0  0  0  0  0  0  0
   -0.7145    1.2375    0.0000 Cl  0  0  0  0  0  0  0  0  0  0  0  0
    1.4289    2.4750    0.0000 H   0  0  0  0  0  0  0  0  0  0  0  0
    2.1434   -0.4125    0.0000 H   0  0  0  0  0  0  0  0  0  0  0  0
   -0.7145   -0.4125    0.0000 H   0  0  0  0  0  0  0  0  0  0  0  0
  1  2  1  0  0  0  0
  2  3  4  0  0  0  0
  3  4  1  0  0  0  0
  3  5  4  0  0  0  0
  5  6  4  0  0  0  0
  6  7  1  0  0  0  0
  6  8  4  0  0  0  0
  8  9  4  0  0  0  0
  2  9  4  0  0  0  0
  9 10  1  0  0  0  0
  1 11  1  0  0  0  0
  5 12  1  0  0  0  0
  8 13  1  0  0  0  0
M  END
>  <InChIKey>
InChI=1S/C6H3Cl3O/c7-3-1-4(8)6(10)5(9)2-3/h1-2,10H

>  <CASRN>
88-06-2

> <Outcome>
1

>  <Index>
2066

>  <StandardizerResult>
Dearomatize (ID: Dearomatize)
Clear Stereo (ID: ClearStereo)
Wedge Clean (ID: WedgeClean)
Mesomerize (ID: Mesomerize)
Tautomerize (ID: Tautomerize)
Aromatize (ID: Aromatize)
Add Explicit Hydrogens (ID: AddExplicitH)
Neutralize (ID: Neutralize)
Clean 2D (ID: Clean2D)

> <knn Distance>


> <CpId>
2066

$$$$
2068
  Mrv1532301301811342D          

 40 43  0  0  0  0            999 V2000
   -0.7707   -5.3397    0.0000 C   0  0  0  0  0  0  0  0  0  0  0  0
   -0.0562   -4.9272    0.0000 C   0  0  0  0  0  0  0  0  0  0  0  0
   -0.0562   -4.1022    0.0000 C   0  0  0  0  0  0  0  0  0  0  0  0
    0.6582   -3.6897    0.0000 C   0  0  0  0  0  0  0  0  0  0  0  0
    1.3727   -4.1022    0.0000 C   0  0  0  0  0  0  0  0  0  0  0  0
    2.0872   -3.6897    0.0000 N   0  0  0  0  0  0  0  0  0  0  0  0
    2.0872   -2.8647    0.0000 C   0  0  0  0  0  0  0  0  0  0  0  0
    1.3727   -2.4522    0.0000 C   0  0  0  0  0  0  0  0  0  0  0  0
    1.3727   -1.6272    0.0000 C   0  0  0  0  0  0  0  0  0  0  0  0
    2.0872   -1.2147    0.0000 C   0  0  0  0  0  0  0  0  0  0  0  0
    2.0872   -0.3897    0.0000 O   0  0  0  0  0  0  0  0  0  0  0  0
    2.8016   -1.6272    0.0000 C   0  0  0  0  0  0  0  0  0  0  0  0
    3.5161   -1.2147    0.0000 C   0  0  0  0  0  0  0  0  0  0  0  0
    3.5161   -0.3897    0.0000 O   0  0  0  0  0  0  0  0  0  0  0  0
    4.2306   -1.6272    0.0000 C   0  0  0  0  0  0  0  0  0  0  0  0
    4.9451   -1.2147    0.0000 C   0  0  0  0  0  0  0  0  0  0  0  0
    5.6595   -1.6272    0.0000 C   0  0  0  0  0  0  0  0  0  0  0  0
    5.6595   -2.4522    0.0000 C   0  0  0  0  0  0  0  0  0  0  0  0
    4.9451   -2.8647    0.0000 C   0  0  0  0  0  0  0  0  0  0  0  0
    4.2306   -2.4522    0.0000 C   0  0  0  0  0  0  0  0  0  0  0  0
    3.5161   -2.8647    0.0000 C   0  0  0  0  0  0  0  0  0  0  0  0
    3.5161   -3.6897    0.0000 O   0  0  0  0  0  0  0  0  0  0  0  0
    2.8016   -2.4522    0.0000 C   0  0  0  0  0  0  0  0  0  0  0  0
    1.3727   -4.9272    0.0000 C   0  0  0  0  0  0  0  0  0  0  0  0
    0.6582   -5.3397    0.0000 C   0  0  0  0  0  0  0  0  0  0  0  0
   -1.1832   -4.6252    0.0000 H   0  0  0  0  0  0  0  0  0  0  0  0
   -1.4852   -5.7522    0.0000 H   0  0  0  0  0  0  0  0  0  0  0  0
   -0.3582   -6.0542    0.0000 H   0  0  0  0  0  0  0  0  0  0  0  0
   -0.7707   -3.6897    0.0000 H   0  0  0  0  0  0  0  0  0  0  0  0
    0.6582   -2.8647    0.0000 H   0  0  0  0  0  0  0  0  0  0  0  0
    2.8016   -4.1022    0.0000 H   0  0  0  0  0  0  0  0  0  0  0  0
    1.3727   -3.2772    0.0000 H   0  0  0  0  0  0  0  0  0  0  0  0
    0.6582   -1.2147    0.0000 H   0  0  0  0  0  0  0  0  0  0  0  0
    2.8016    0.0228    0.0000 H   0  0  0  0  0  0  0  0  0  0  0  0
    4.9451   -0.3897    0.0000 H   0  0  0  0  0  0  0  0  0  0  0  0
    6.3740   -1.2147    0.0000 H   0  0  0  0  0  0  0  0  0  0  0  0
    6.3740   -2.8647    0.0000 H   0  0  0  0  0  0  0  0  0  0  0  0
    4.9451   -3.6897    0.0000 H   0  0  0  0  0  0  0  0  0  0  0  0
    2.0872   -5.3397    0.0000 H   0  0  0  0  0  0  0  0  0  0  0  0
    0.6582   -6.1647    0.0000 H   0  0  0  0  0  0  0  0  0  0  0  0
  1  2  1  0  0  0  0
  2  3  4  0  0  0  0
  3  4  4  0  0  0  0
  4  5  4  0  0  0  0
  5  6  1  0  0  0  0
  6  7  1  0  0  0  0
  7  8  4  0  0  0  0
  8  9  4  0  0  0  0
  9 10  4  0  0  0  0
 10 11  1  0  0  0  0
 10 12  4  0  0  0  0
 12 13  1  0  0  0  0
 13 14  2  0  0  0  0
 13 15  1  0  0  0  0
 15 16  4  0  0  0  0
 16 17  4  0  0  0  0
 17 18  4  0  0  0  0
 18 19  4  0  0  0  0
 19 20  4  0  0  0  0
 15 20  4  0  0  0  0
 20 21  1  0  0  0  0
 21 22  2  0  0  0  0
 21 23  1  0  0  0  0
  7 23  4  0  0  0  0
 12 23  4  0  0  0  0
  5 24  4  0  0  0  0
 24 25  4  0  0  0  0
  2 25  4  0  0  0  0
  1 26  1  0  0  0  0
  1 27  1  0  0  0  0
  1 28  1  0  0  0  0
  3 29  1  0  0  0  0
  4 30  1  0  0  0  0
  6 31  1  0  0  0  0
  8 32  1  0  0  0  0
  9 33  1  0  0  0  0
 11 34  1  0  0  0  0
 16 35  1  0  0  0  0
 17 36  1  0  0  0  0
 18 37  1  0  0  0  0
 19 38  1  0  0  0  0
 24 39  1  0  0  0  0
 25 40  1  0  0  0  0
M  END
>  <InChIKey>
InChI=1S/C21H15NO3/c1-12-6-8-13(9-7-12)22-16-10-11-17(23)19-18(16)20(24)14-4-2-3-5-15(14)21(19)25/h2-11,22-23H,1H3

>  <CASRN>
81-48-1

> <Outcome>
1

>  <Index>
2068

>  <StandardizerResult>
Dearomatize (ID: Dearomatize)
Clear Stereo (ID: ClearStereo)
Wedge Clean (ID: WedgeClean)
Mesomerize (ID: Mesomerize)
Tautomerize (ID: Tautomerize)
Aromatize (ID: Aromatize)
Add Explicit Hydrogens (ID: AddExplicitH)
Neutralize (ID: Neutralize)
Clean 2D (ID: Clean2D)

> <knn Distance>


> <CpId>
2068

$$$$
2076
  Mrv1532301301811342D          

 23 24  0  0  0  0            999 V2000
    0.7145   -0.4125    0.0000 O   0  0  0  0  0  0  0  0  0  0  0  0
    0.7145   -1.2375    0.0000 C   0  0  0  0  0  0  0  0  0  0  0  0
    1.4290   -1.6500    0.0000 C   0  0  0  0  0  0  0  0  0  0  0  0
    1.4290   -2.4750    0.0000 C   0  0  0  0  0  0  0  0  0  0  0  0
    0.7145   -2.8875    0.0000 C   0  0  0  0  0  0  0  0  0  0  0  0
    0.0000   -2.4750    0.0000 C   0  0  0  0  0  0  0  0  0  0  0  0
    0.0000   -1.6500    0.0000 C   0  0  0  0  0  0  0  0  0  0  0  0
   -0.7145   -1.2375    0.0000 C   0  0  0  0  0  0  0  0  0  0  0  0
   -1.4289   -1.6500    0.0000 C   0  0  0  0  0  0  0  0  0  0  0  0
   -2.1434   -1.2375    0.0000 C   0  0  0  0  0  0  0  0  0  0  0  0
   -2.1434   -0.4125    0.0000 C   0  0  0  0  0  0  0  0  0  0  0  0
   -1.4289   -0.0000    0.0000 C   0  0  0  0  0  0  0  0  0  0  0  0
   -0.7145   -0.4125    0.0000 C   0  0  0  0  0  0  0  0  0  0  0  0
    1.4290   -0.0000    0.0000 H   0  0  0  0  0  0  0  0  0  0  0  0
    2.1434   -1.2375    0.0000 H   0  0  0  0  0  0  0  0  0  0  0  0
    2.1434   -2.8875    0.0000 H   0  0  0  0  0  0  0  0  0  0  0  0
    0.7145   -3.7125    0.0000 H   0  0  0  0  0  0  0  0  0  0  0  0
   -0.7145   -2.8875    0.0000 H   0  0  0  0  0  0  0  0  0  0  0  0
   -1.4289   -2.4750    0.0000 H   0  0  0  0  0  0  0  0  0  0  0  0
   -2.8579   -1.6500    0.0000 H   0  0  0  0  0  0  0  0  0  0  0  0
   -2.8579   -0.0000    0.0000 H   0  0  0  0  0  0  0  0  0  0  0  0
   -1.4289    0.8250    0.0000 H   0  0  0  0  0  0  0  0  0  0  0  0
    0.0000   -0.0000    0.0000 H   0  0  0  0  0  0  0  0  0  0  0  0
  1  2  1  0  0  0  0
  2  3  4  0  0  0  0
  3  4  4  0  0  0  0
  4  5  4  0  0  0  0
  5  6  4  0  0  0  0
  6  7  4  0  0  0  0
  2  7  4  0  0  0  0
  7  8  1  0  0  0  0
  8  9  4  0  0  0  0
  9 10  4  0  0  0  0
 10 11  4  0  0  0  0
 11 12  4  0  0  0  0
 12 13  4  0  0  0  0
  8 13  4  0  0  0  0
  1 14  1  0  0  0  0
  3 15  1  0  0  0  0
  4 16  1  0  0  0  0
  5 17  1  0  0  0  0
  6 18  1  0  0  0  0
  9 19  1  0  0  0  0
 10 20  1  0  0  0  0
 11 21  1  0  0  0  0
 12 22  1  0  0  0  0
 13 23  1  0  0  0  0
M  END
>  <InChIKey>
InChI=1S/C12H10O/c13-12-9-5-4-8-11(12)10-6-2-1-3-7-10/h1-9,13H

>  <CASRN>
90-43-7

> <Outcome>
1

>  <Index>
2076

>  <StandardizerResult>
Dearomatize (ID: Dearomatize)
Clear Stereo (ID: ClearStereo)
Wedge Clean (ID: WedgeClean)
Mesomerize (ID: Mesomerize)
Tautomerize (ID: Tautomerize)
Aromatize (ID: Aromatize)
Add Explicit Hydrogens (ID: AddExplicitH)
Neutralize (ID: Neutralize)
Clean 2D (ID: Clean2D)

> <knn Distance>


> <CpId>
2076

$$$$
2079
  Mrv1532301301811342D          

 28 28  0  0  0  0            999 V2000
    0.7145   -1.2381    0.0000 C   0  0  0  0  0  0  0  0  0  0  0  0
    0.7145   -0.4131    0.0000 C   0  0  0  0  0  0  0  0  0  0  0  0
    0.0000   -0.0006    0.0000 C   0  0  0  0  0  0  0  0  0  0  0  0
    0.0000    0.8244    0.0000 C   0  0  0  0  0  0  0  0  0  0  0  0
   -0.7145    1.2369    0.0000 Cl  0  0  0  0  0  0  0  0  0  0  0  0
    0.7145    1.2369    0.0000 C   0  0  0  0  0  0  0  0  0  0  0  0
    1.4290    0.8244    0.0000 C   0  0  0  0  0  0  0  0  0  0  0  0
    1.4290   -0.0006    0.0000 C   0  0  0  0  0  0  0  0  0  0  0  0
    2.1434   -0.4131    0.0000 O   0  0  0  0  0  0  0  0  0  0  0  0
    2.8579   -0.0006    0.0000 C   0  0  0  0  0  0  0  0  0  0  0  0
    3.5724   -0.4131    0.0000 C   0  0  0  0  0  0  0  0  0  0  0  0
    4.2868   -0.0006    0.0000 C   0  0  0  0  0  0  0  0  0  0  0  0
    5.0013   -0.4131    0.0000 C   0  0  0  0  0  0  0  0  0  0  0  0
    5.7158   -0.0006    0.0000 O   0  0  0  0  0  0  0  0  0  0  0  0
    5.0013   -1.2381    0.0000 O   0  0  0  0  0  0  0  0  0  0  0  0
   -0.1105   -1.2381    0.0000 H   0  0  0  0  0  0  0  0  0  0  0  0
    0.7145   -2.0631    0.0000 H   0  0  0  0  0  0  0  0  0  0  0  0
    1.5395   -1.2381    0.0000 H   0  0  0  0  0  0  0  0  0  0  0  0
   -0.7145   -0.4131    0.0000 H   0  0  0  0  0  0  0  0  0  0  0  0
    0.7145    2.0619    0.0000 H   0  0  0  0  0  0  0  0  0  0  0  0
    2.1434    1.2369    0.0000 H   0  0  0  0  0  0  0  0  0  0  0  0
    3.2282    0.7366    0.0000 H   0  0  0  0  0  0  0  0  0  0  0  0
    2.4876    0.7366    0.0000 H   0  0  0  0  0  0  0  0  0  0  0  0
    3.2021   -1.1504    0.0000 H   0  0  0  0  0  0  0  0  0  0  0  0
    3.9426   -1.1504    0.0000 H   0  0  0  0  0  0  0  0  0  0  0  0
    4.6571    0.7366    0.0000 H   0  0  0  0  0  0  0  0  0  0  0  0
    3.9166    0.7366    0.0000 H   0  0  0  0  0  0  0  0  0  0  0  0
    6.4302   -0.4131    0.0000 H   0  0  0  0  0  0  0  0  0  0  0  0
  1  2  1  0  0  0  0
  2  3  4  0  0  0  0
  3  4  4  0  0  0  0
  4  5  1  0  0  0  0
  4  6  4  0  0  0  0
  6  7  4  0  0  0  0
  7  8  4  0  0  0  0
  2  8  4  0  0  0  0
  8  9  1  0  0  0  0
  9 10  1  0  0  0  0
 10 11  1  0  0  0  0
 11 12  1  0  0  0  0
 12 13  1  0  0  0  0
 13 14  1  0  0  0  0
 13 15  2  0  0  0  0
  1 16  1  0  0  0  0
  1 17  1  0  0  0  0
  1 18  1  0  0  0  0
  3 19  1  0  0  0  0
  6 20  1  0  0  0  0
  7 21  1  0  0  0  0
 10 22  1  0  0  0  0
 10 23  1  0  0  0  0
 11 24  1  0  0  0  0
 11 25  1  0  0  0  0
 12 26  1  0  0  0  0
 12 27  1  0  0  0  0
 14 28  1  0  0  0  0
M  END
>  <InChIKey>
InChI=1S/C11H13ClO3/c1-8-7-9(12)4-5-10(8)15-6-2-3-11(13)14/h4-5,7H,2-3,6H2,1H3,(H,13,14)

>  <CASRN>
94-81-5

> <Outcome>
1

>  <Index>
2079

>  <StandardizerResult>
Dearomatize (ID: Dearomatize)
Clear Stereo (ID: ClearStereo)
Wedge Clean (ID: WedgeClean)
Mesomerize (ID: Mesomerize)
Tautomerize (ID: Tautomerize)
Aromatize (ID: Aromatize)
Add Explicit Hydrogens (ID: AddExplicitH)
Neutralize (ID: Neutralize)
Clean 2D (ID: Clean2D)

> <knn Distance>


> <CpId>
2079

$$$$
2081
  Mrv1532301301811342D          

 31 32  0  0  0  0            999 V2000
   -2.6649   -2.0985    0.0000 C   0  0  0  0  0  0  0  0  0  0  0  0
   -2.2524   -1.3840    0.0000 O   0  0  0  0  0  0  0  0  0  0  0  0
   -1.4274   -1.3840    0.0000 P   0  0  0  0  0  0  0  0  0  0  0  0
   -1.4274   -2.2090    0.0000 S   0  0  0  0  0  0  0  0  0  0  0  0
   -1.4274   -0.5590    0.0000 O   0  0  0  0  0  0  0  0  0  0  0  0
   -0.7129   -0.1465    0.0000 C   0  0  0  0  0  0  0  0  0  0  0  0
   -0.6024   -1.3840    0.0000 S   0  0  0  0  0  0  0  0  0  0  0  0
   -0.1899   -0.6695    0.0000 C   0  0  0  0  0  0  0  0  0  0  0  0
    0.6351   -0.6695    0.0000 N   0  0  0  0  0  0  0  0  0  0  0  0
    1.1200   -0.0021    0.0000 C   0  0  0  0  0  0  0  0  0  0  0  0
    0.8651    0.7826    0.0000 O   0  0  0  0  0  0  0  0  0  0  0  0
    1.9047   -0.2570    0.0000 C   0  0  0  0  0  0  0  0  0  0  0  0
    2.6191    0.1555    0.0000 C   0  0  0  0  0  0  0  0  0  0  0  0
    3.3336   -0.2570    0.0000 C   0  0  0  0  0  0  0  0  0  0  0  0
    3.3336   -1.0820    0.0000 C   0  0  0  0  0  0  0  0  0  0  0  0
    2.6191   -1.4945    0.0000 C   0  0  0  0  0  0  0  0  0  0  0  0
    1.9047   -1.0820    0.0000 C   0  0  0  0  0  0  0  0  0  0  0  0
    1.1200   -1.3369    0.0000 C   0  0  0  0  0  0  0  0  0  0  0  0
    0.8651   -2.1216    0.0000 O   0  0  0  0  0  0  0  0  0  0  0  0
   -3.3794   -1.6860    0.0000 H   0  0  0  0  0  0  0  0  0  0  0  0
   -3.0774   -2.8129    0.0000 H   0  0  0  0  0  0  0  0  0  0  0  0
   -1.9504   -2.5110    0.0000 H   0  0  0  0  0  0  0  0  0  0  0  0
    0.0683    0.1187    0.0000 H   0  0  0  0  0  0  0  0  0  0  0  0
   -0.6052    0.6715    0.0000 H   0  0  0  0  0  0  0  0  0  0  0  0
   -1.3989    0.3119    0.0000 H   0  0  0  0  0  0  0  0  0  0  0  0
    0.2226   -1.3840    0.0000 H   0  0  0  0  0  0  0  0  0  0  0  0
   -1.0078   -0.7772    0.0000 H   0  0  0  0  0  0  0  0  0  0  0  0
    2.6191    0.9805    0.0000 H   0  0  0  0  0  0  0  0  0  0  0  0
    4.0481    0.1555    0.0000 H   0  0  0  0  0  0  0  0  0  0  0  0
    4.0481   -1.4945    0.0000 H   0  0  0  0  0  0  0  0  0  0  0  0
    2.6191   -2.3195    0.0000 H   0  0  0  0  0  0  0  0  0  0  0  0
  1  2  1  0  0  0  0
  2  3  1  0  0  0  0
  3  4  2  0  0  0  0
  3  5  1  0  0  0  0
  5  6  1  0  0  0  0
  3  7  1  0  0  0  0
  7  8  1  0  0  0  0
  8  9  1  0  0  0  0
  9 10  1  0  0  0  0
 10 11  2  0  0  0  0
 10 12  1  0  0  0  0
 12 13  4  0  0  0  0
 13 14  4  0  0  0  0
 14 15  4  0  0  0  0
 15 16  4  0  0  0  0
 16 17  4  0  0  0  0
 12 17  4  0  0  0  0
 17 18  1  0  0  0  0
  9 18  1  0  0  0  0
 18 19  2  0  0  0  0
  1 20  1  0  0  0  0
  1 21  1  0  0  0  0
  1 22  1  0  0  0  0
  6 23  1  0  0  0  0
  6 24  1  0  0  0  0
  6 25  1  0  0  0  0
  8 26  1  0  0  0  0
  8 27  1  0  0  0  0
 13 28  1  0  0  0  0
 14 29  1  0  0  0  0
 15 30  1  0  0  0  0
 16 31  1  0  0  0  0
M  END
>  <InChIKey>
InChI=1S/C11H12NO4PS2/c1-15-17(18,16-2)19-7-12-10(13)8-5-3-4-6-9(8)11(12)14/h3-6H,7H2,1-2H3

>  <CASRN>
732-11-6

> <Outcome>
1

>  <Index>
2081

>  <StandardizerResult>
Dearomatize (ID: Dearomatize)
Clear Stereo (ID: ClearStereo)
Wedge Clean (ID: WedgeClean)
Mesomerize (ID: Mesomerize)
Tautomerize (ID: Tautomerize)
Aromatize (ID: Aromatize)
Add Explicit Hydrogens (ID: AddExplicitH)
Neutralize (ID: Neutralize)
Clean 2D (ID: Clean2D)

> <knn Distance>


> <CpId>
2081

$$$$
2084
  Mrv1532301301811342D          

 30 29  0  0  0  0            999 V2000
    2.2836    2.1428    0.0000 C   0  0  0  0  0  0  0  0  0  0  0  0
    2.9980    2.5553    0.0000 C   0  0  0  0  0  0  0  0  0  0  0  0
    3.7125    2.1428    0.0000 C   0  0  0  0  0  0  0  0  0  0  0  0
    4.4270    2.5553    0.0000 C   0  0  0  0  0  0  0  0  0  0  0  0
    5.1414    2.1428    0.0000 C   0  0  0  0  0  0  0  0  0  0  0  0
    5.8559    2.5553    0.0000 C   0  0  0  0  0  0  0  0  0  0  0  0
    6.5704    2.1428    0.0000 O   0  0  0  0  0  0  0  0  0  0  0  0
    7.2849    2.5553    0.0000 C   0  0  0  0  0  0  0  0  0  0  0  0
    7.2849    3.3803    0.0000 O   0  0  0  0  0  0  0  0  0  0  0  0
    7.9993    2.1428    0.0000 C   0  0  0  0  0  0  0  0  0  0  0  0
    8.7138    2.5553    0.0000 C   0  0  0  0  0  0  0  0  0  0  0  0
    7.9993    1.3178    0.0000 C   0  0  0  0  0  0  0  0  0  0  0  0
    1.8711    2.8573    0.0000 H   0  0  0  0  0  0  0  0  0  0  0  0
    1.5691    1.7303    0.0000 H   0  0  0  0  0  0  0  0  0  0  0  0
    2.6961    1.4283    0.0000 H   0  0  0  0  0  0  0  0  0  0  0  0
    3.3683    3.2926    0.0000 H   0  0  0  0  0  0  0  0  0  0  0  0
    2.6278    3.2926    0.0000 H   0  0  0  0  0  0  0  0  0  0  0  0
    3.3422    1.4056    0.0000 H   0  0  0  0  0  0  0  0  0  0  0  0
    4.0828    1.4056    0.0000 H   0  0  0  0  0  0  0  0  0  0  0  0
    4.7972    3.2926    0.0000 H   0  0  0  0  0  0  0  0  0  0  0  0
    4.0567    3.2926    0.0000 H   0  0  0  0  0  0  0  0  0  0  0  0
    4.7712    1.4056    0.0000 H   0  0  0  0  0  0  0  0  0  0  0  0
    5.5117    1.4056    0.0000 H   0  0  0  0  0  0  0  0  0  0  0  0
    6.2262    3.2926    0.0000 H   0  0  0  0  0  0  0  0  0  0  0  0
    5.4857    3.2926    0.0000 H   0  0  0  0  0  0  0  0  0  0  0  0
    9.1263    1.8408    0.0000 H   0  0  0  0  0  0  0  0  0  0  0  0
    9.4283    2.9678    0.0000 H   0  0  0  0  0  0  0  0  0  0  0  0
    8.3013    3.2698    0.0000 H   0  0  0  0  0  0  0  0  0  0  0  0
    7.2849    0.9053    0.0000 H   0  0  0  0  0  0  0  0  0  0  0  0
    8.7138    0.9053    0.0000 H   0  0  0  0  0  0  0  0  0  0  0  0
  1  2  1  0  0  0  0
  2  3  1  0  0  0  0
  3  4  1  0  0  0  0
  4  5  1  0  0  0  0
  5  6  1  0  0  0  0
  6  7  1  0  0  0  0
  7  8  1  0  0  0  0
  8  9  2  0  0  0  0
  8 10  1  0  0  0  0
 10 11  1  0  0  0  0
 10 12  2  0  0  0  0
  1 13  1  0  0  0  0
  1 14  1  0  0  0  0
  1 15  1  0  0  0  0
  2 16  1  0  0  0  0
  2 17  1  0  0  0  0
  3 18  1  0  0  0  0
  3 19  1  0  0  0  0
  4 20  1  0  0  0  0
  4 21  1  0  0  0  0
  5 22  1  0  0  0  0
  5 23  1  0  0  0  0
  6 24  1  0  0  0  0
  6 25  1  0  0  0  0
 11 26  1  0  0  0  0
 11 27  1  0  0  0  0
 11 28  1  0  0  0  0
 12 29  1  0  0  0  0
 12 30  1  0  0  0  0
M  END
>  <InChIKey>
InChI=1S/C10H18O2/c1-4-5-6-7-8-12-10(11)9(2)3/h2,4-8H2,1,3H3

>  <CASRN>
142-09-6

> <Outcome>
1

>  <Index>
2084

>  <StandardizerResult>
Clear Stereo (ID: ClearStereo)
Wedge Clean (ID: WedgeClean)
Mesomerize (ID: Mesomerize)
Tautomerize (ID: Tautomerize)
Add Explicit Hydrogens (ID: AddExplicitH)
Neutralize (ID: Neutralize)
Clean 2D (ID: Clean2D)

> <knn Distance>


> <CpId>
2084

$$$$
2087
  Mrv1532301301811342D          

 30 30  0  0  0  0            999 V2000
    0.0096    3.3067    0.0000 C   0  0  0  0  0  0  0  0  0  0  0  0
    0.0096    2.4817    0.0000 O   0  0  0  0  0  0  0  0  0  0  0  0
    0.7241    2.0692    0.0000 C   0  0  0  0  0  0  0  0  0  0  0  0
    1.4386    2.4817    0.0000 O   0  0  0  0  0  0  0  0  0  0  0  0
    0.7241    1.2442    0.0000 C   0  0  0  0  0  0  0  0  0  0  0  0
    1.4386    0.8317    0.0000 C   0  0  0  0  0  0  0  0  0  0  0  0
    1.4386    0.0067    0.0000 C   0  0  0  0  0  0  0  0  0  0  0  0
    0.7241   -0.4058    0.0000 C   0  0  0  0  0  0  0  0  0  0  0  0
    0.0096    0.0067    0.0000 C   0  0  0  0  0  0  0  0  0  0  0  0
    0.0096    0.8317    0.0000 C   0  0  0  0  0  0  0  0  0  0  0  0
    0.7241   -1.2308    0.0000 C   0  0  0  0  0  0  0  0  0  0  0  0
    1.4386   -1.6433    0.0000 O   0  0  0  0  0  0  0  0  0  0  0  0
    0.0096   -1.6433    0.0000 O   0  0  0  0  0  0  0  0  0  0  0  0
    0.0096   -2.4683    0.0000 C   0  0  0  0  0  0  0  0  0  0  0  0
    0.8346    3.3067    0.0000 H   0  0  0  0  0  0  0  0  0  0  0  0
    0.0096    4.1317    0.0000 H   0  0  0  0  0  0  0  0  0  0  0  0
   -0.8154    3.3067    0.0000 H   0  0  0  0  0  0  0  0  0  0  0  0
    0.0096    1.6567    0.0000 H   0  0  0  0  0  0  0  0  0  0  0  0
    2.2622    0.8797    0.0000 H   0  0  0  0  0  0  0  0  0  0  0  0
    1.8919    1.5210    0.0000 H   0  0  0  0  0  0  0  0  0  0  0  0
    1.8919   -0.6825    0.0000 H   0  0  0  0  0  0  0  0  0  0  0  0
    2.2622   -0.0412    0.0000 H   0  0  0  0  0  0  0  0  0  0  0  0
    0.0096   -0.8183    0.0000 H   0  0  0  0  0  0  0  0  0  0  0  0
   -0.7656    0.2889    0.0000 H   0  0  0  0  0  0  0  0  0  0  0  0
   -0.7656   -0.2754    0.0000 H   0  0  0  0  0  0  0  0  0  0  0  0
   -0.7221    1.2127    0.0000 H   0  0  0  0  0  0  0  0  0  0  0  0
    0.7241    0.4192    0.0000 H   0  0  0  0  0  0  0  0  0  0  0  0
   -0.8154   -2.4683    0.0000 H   0  0  0  0  0  0  0  0  0  0  0  0
    0.0096   -3.2933    0.0000 H   0  0  0  0  0  0  0  0  0  0  0  0
    0.8346   -2.4683    0.0000 H   0  0  0  0  0  0  0  0  0  0  0  0
  1  2  1  0  0  0  0
  2  3  1  0  0  0  0
  3  4  2  0  0  0  0
  3  5  1  0  0  0  0
  5  6  1  0  0  0  0
  6  7  1  0  0  0  0
  7  8  1  0  0  0  0
  8  9  1  0  0  0  0
  9 10  1  0  0  0  0
  5 10  1  0  0  0  0
  8 11  1  0  0  0  0
 11 12  2  0  0  0  0
 11 13  1  0  0  0  0
 13 14  1  0  0  0  0
  1 15  1  0  0  0  0
  1 16  1  0  0  0  0
  1 17  1  0  0  0  0
  5 18  1  0  0  0  0
  6 19  1  0  0  0  0
  6 20  1  0  0  0  0
  7 21  1  0  0  0  0
  7 22  1  0  0  0  0
  8 23  1  0  0  0  0
  9 24  1  0  0  0  0
  9 25  1  0  0  0  0
 10 26  1  0  0  0  0
 10 27  1  0  0  0  0
 14 28  1  0  0  0  0
 14 29  1  0  0  0  0
 14 30  1  0  0  0  0
M  END
>  <InChIKey>
InChI=1S/C10H16O4/c1-13-9(11)7-3-5-8(6-4-7)10(12)14-2/h7-8H,3-6H2,1-2H3

>  <CASRN>
94-60-0

> <Outcome>
1

>  <Index>
2087

>  <StandardizerResult>
Clear Stereo (ID: ClearStereo)
Wedge Clean (ID: WedgeClean)
Mesomerize (ID: Mesomerize)
Tautomerize (ID: Tautomerize)
Add Explicit Hydrogens (ID: AddExplicitH)
Neutralize (ID: Neutralize)
Clean 2D (ID: Clean2D)

> <knn Distance>


> <CpId>
2087

$$$$
2088
  Mrv1532301301811342D          

 16 15  0  0  0  0            999 V2000
   -0.1913    0.7135    0.0000 C   0  0  0  0  0  0  0  0  0  0  0  0
    0.5231    1.1260    0.0000 C   0  0  0  0  0  0  0  0  0  0  0  0
    1.2376    0.7135    0.0000 S   0  0  0  0  0  0  0  0  0  0  0  0
    1.9521    1.1260    0.0000 C   0  0  0  0  0  0  0  0  0  0  0  0
    2.6665    0.7135    0.0000 C   0  0  0  0  0  0  0  0  0  0  0  0
    3.3810    1.1260    0.0000 O   0  0  0  0  0  0  0  0  0  0  0  0
   -0.6038    1.4279    0.0000 H   0  0  0  0  0  0  0  0  0  0  0  0
   -0.9058    0.3010    0.0000 H   0  0  0  0  0  0  0  0  0  0  0  0
    0.2212   -0.0010    0.0000 H   0  0  0  0  0  0  0  0  0  0  0  0
    0.8934    1.8632    0.0000 H   0  0  0  0  0  0  0  0  0  0  0  0
    0.1529    1.8632    0.0000 H   0  0  0  0  0  0  0  0  0  0  0  0
    2.3223    1.8632    0.0000 H   0  0  0  0  0  0  0  0  0  0  0  0
    1.5818    1.8632    0.0000 H   0  0  0  0  0  0  0  0  0  0  0  0
    2.2963   -0.0238    0.0000 H   0  0  0  0  0  0  0  0  0  0  0  0
    3.0368   -0.0238    0.0000 H   0  0  0  0  0  0  0  0  0  0  0  0
    4.0955    0.7135    0.0000 H   0  0  0  0  0  0  0  0  0  0  0  0
  1  2  1  0  0  0  0
  2  3  1  0  0  0  0
  3  4  1  0  0  0  0
  4  5  1  0  0  0  0
  5  6  1  0  0  0  0
  1  7  1  0  0  0  0
  1  8  1  0  0  0  0
  1  9  1  0  0  0  0
  2 10  1  0  0  0  0
  2 11  1  0  0  0  0
  4 12  1  0  0  0  0
  4 13  1  0  0  0  0
  5 14  1  0  0  0  0
  5 15  1  0  0  0  0
  6 16  1  0  0  0  0
M  END
>  <InChIKey>
InChI=1S/C4H10OS/c1-2-6-4-3-5/h5H,2-4H2,1H3

>  <CASRN>
110-77-0

> <Outcome>
1

>  <Index>
2088

>  <StandardizerResult>
Clear Stereo (ID: ClearStereo)
Wedge Clean (ID: WedgeClean)
Mesomerize (ID: Mesomerize)
Tautomerize (ID: Tautomerize)
Add Explicit Hydrogens (ID: AddExplicitH)
Neutralize (ID: Neutralize)
Clean 2D (ID: Clean2D)

> <knn Distance>


> <CpId>
2088

$$$$
2089
  Mrv1532301301811342D          

 28 27  0  0  0  0            999 V2000
    1.6745    1.7977    0.0000 C   0  0  0  0  0  0  0  0  0  0  0  0
    2.3889    1.3852    0.0000 C   0  0  0  0  0  0  0  0  0  0  0  0
    2.3889    0.5602    0.0000 C   0  0  0  0  0  0  0  0  0  0  0  0
    3.1034    1.7977    0.0000 C   0  0  0  0  0  0  0  0  0  0  0  0
    3.8179    1.3852    0.0000 C   0  0  0  0  0  0  0  0  0  0  0  0
    4.5323    1.7977    0.0000 C   0  0  0  0  0  0  0  0  0  0  0  0
    4.5323    2.6227    0.0000 C   0  0  0  0  0  0  0  0  0  0  0  0
    5.2468    1.3852    0.0000 C   0  0  0  0  0  0  0  0  0  0  0  0
    5.9613    1.7977    0.0000 O   0  0  0  0  0  0  0  0  0  0  0  0
    5.2468    0.5602    0.0000 O   0  0  0  0  0  0  0  0  0  0  0  0
    2.0870    2.5122    0.0000 H   0  0  0  0  0  0  0  0  0  0  0  0
    0.9600    2.2102    0.0000 H   0  0  0  0  0  0  0  0  0  0  0  0
    1.2620    1.0832    0.0000 H   0  0  0  0  0  0  0  0  0  0  0  0
    1.6745    0.9727    0.0000 H   0  0  0  0  0  0  0  0  0  0  0  0
    1.8056   -0.0231    0.0000 H   0  0  0  0  0  0  0  0  0  0  0  0
    2.8014   -0.1543    0.0000 H   0  0  0  0  0  0  0  0  0  0  0  0
    3.1858    0.7737    0.0000 H   0  0  0  0  0  0  0  0  0  0  0  0
    3.4737    2.5350    0.0000 H   0  0  0  0  0  0  0  0  0  0  0  0
    2.7331    2.5350    0.0000 H   0  0  0  0  0  0  0  0  0  0  0  0
    4.3147    0.7266    0.0000 H   0  0  0  0  0  0  0  0  0  0  0  0
    3.8179    2.2102    0.0000 H   0  0  0  0  0  0  0  0  0  0  0  0
    5.2468    2.2102    0.0000 H   0  0  0  0  0  0  0  0  0  0  0  0
    5.2468    3.0352    0.0000 H   0  0  0  0  0  0  0  0  0  0  0  0
    4.5323    3.4477    0.0000 H   0  0  0  0  0  0  0  0  0  0  0  0
    3.8179    3.0352    0.0000 H   0  0  0  0  0  0  0  0  0  0  0  0
    5.9613    0.9727    0.0000 H   0  0  0  0  0  0  0  0  0  0  0  0
    6.6758    2.2102    0.0000 H   0  0  0  0  0  0  0  0  0  0  0  0
    5.3892   -0.2524    0.0000 H   0  0  0  0  0  0  0  0  0  0  0  0
  1  2  1  0  0  0  0
  2  3  1  0  0  0  0
  2  4  1  0  0  0  0
  4  5  1  0  0  0  0
  5  6  1  0  0  0  0
  6  7  1  0  0  0  0
  6  8  1  0  0  0  0
  8  9  1  0  0  0  0
  8 10  1  0  0  0  0
  1 11  1  0  0  0  0
  1 12  1  0  0  0  0
  1 13  1  0  0  0  0
  2 14  1  0  0  0  0
  3 15  1  0  0  0  0
  3 16  1  0  0  0  0
  3 17  1  0  0  0  0
  4 18  1  0  0  0  0
  4 19  1  0  0  0  0
  5 20  1  0  0  0  0
  5 21  1  0  0  0  0
  6 22  1  0  0  0  0
  7 23  1  0  0  0  0
  7 24  1  0  0  0  0
  7 25  1  0  0  0  0
  8 26  1  0  0  0  0
  9 27  1  0  0  0  0
 10 28  1  0  0  0  0
M  END
>  <InChIKey>
InChI=1S/C8H18O2/c1-6(2)4-5-7(3)8(9)10/h6-10H,4-5H2,1-3H3

> <Outcome>
1

>  <Index>
2089

>  <StandardizerResult>
Clear Stereo (ID: ClearStereo)
Wedge Clean (ID: WedgeClean)
Mesomerize (ID: Mesomerize)
Tautomerize (ID: Tautomerize)
Add Explicit Hydrogens (ID: AddExplicitH)
Neutralize (ID: Neutralize)
Clean 2D (ID: Clean2D)

> <knn Distance>


> <CpId>
2089

$$$$
2090
  Mrv1532301301811342D          

 18 18  0  0  0  0            999 V2000
   -0.0000    2.4750    0.0000 O   0  0  0  0  0  0  0  0  0  0  0  0
    0.7145    2.0625    0.0000 C   0  0  0  0  0  0  0  0  0  0  0  0
    1.4289    2.4750    0.0000 O   0  0  0  0  0  0  0  0  0  0  0  0
    0.7145    1.2375    0.0000 C   0  0  0  0  0  0  0  0  0  0  0  0
    1.4289    0.8250    0.0000 C   0  0  0  0  0  0  0  0  0  0  0  0
    1.4289    0.0000    0.0000 C   0  0  0  0  0  0  0  0  0  0  0  0
    2.1434   -0.4125    0.0000 O   0  0  0  0  0  0  0  0  0  0  0  0
    0.7145   -0.4125    0.0000 C   0  0  0  0  0  0  0  0  0  0  0  0
    0.7145   -1.2375    0.0000 O   0  0  0  0  0  0  0  0  0  0  0  0
   -0.0000    0.0000    0.0000 C   0  0  0  0  0  0  0  0  0  0  0  0
   -0.7145   -0.4125    0.0000 O   0  0  0  0  0  0  0  0  0  0  0  0
   -0.0000    0.8250    0.0000 C   0  0  0  0  0  0  0  0  0  0  0  0
   -0.0000    3.3000    0.0000 H   0  0  0  0  0  0  0  0  0  0  0  0
    2.1434    1.2375    0.0000 H   0  0  0  0  0  0  0  0  0  0  0  0
    2.1434   -1.2375    0.0000 H   0  0  0  0  0  0  0  0  0  0  0  0
   -0.0000   -1.6500    0.0000 H   0  0  0  0  0  0  0  0  0  0  0  0
   -1.4289    0.0000    0.0000 H   0  0  0  0  0  0  0  0  0  0  0  0
   -0.7145    1.2375    0.0000 H   0  0  0  0  0  0  0  0  0  0  0  0
  1  2  1  0  0  0  0
  2  3  2  0  0  0  0
  2  4  1  0  0  0  0
  4  5  4  0  0  0  0
  5  6  4  0  0  0  0
  6  7  1  0  0  0  0
  6  8  4  0  0  0  0
  8  9  1  0  0  0  0
  8 10  4  0  0  0  0
 10 11  1  0  0  0  0
 10 12  4  0  0  0  0
  4 12  4  0  0  0  0
  1 13  1  0  0  0  0
  5 14  1  0  0  0  0
  7 15  1  0  0  0  0
  9 16  1  0  0  0  0
 11 17  1  0  0  0  0
 12 18  1  0  0  0  0
M  END
>  <InChIKey>
InChI=1S/C7H6O5/c8-4-1-3(7(11)12)2-5(9)6(4)10/h1-2,8-10H,(H,11,12)

>  <CASRN>
149-91-7

> <Outcome>
1

>  <Index>
2090

>  <StandardizerResult>
Dearomatize (ID: Dearomatize)
Clear Stereo (ID: ClearStereo)
Wedge Clean (ID: WedgeClean)
Mesomerize (ID: Mesomerize)
Tautomerize (ID: Tautomerize)
Aromatize (ID: Aromatize)
Add Explicit Hydrogens (ID: AddExplicitH)
Neutralize (ID: Neutralize)
Clean 2D (ID: Clean2D)

> <knn Distance>


> <CpId>
2090

$$$$
2093
  Mrv1532301301811342D          

 16 16  0  0  0  0            999 V2000
    0.7145    2.0625    0.0000 F   0  0  0  0  0  0  0  0  0  0  0  0
    0.7145    1.2375    0.0000 C   0  0  0  0  0  0  0  0  0  0  0  0
    1.4289    0.8250    0.0000 C   0  0  0  0  0  0  0  0  0  0  0  0
    1.4289   -0.0000    0.0000 C   0  0  0  0  0  0  0  0  0  0  0  0
    0.7145   -0.4125    0.0000 C   0  0  0  0  0  0  0  0  0  0  0  0
   -0.0000   -0.0000    0.0000 C   0  0  0  0  0  0  0  0  0  0  0  0
   -0.0000    0.8250    0.0000 C   0  0  0  0  0  0  0  0  0  0  0  0
   -0.7145    1.2375    0.0000 N   0  0  0  0  0  0  0  0  0  0  0  0
   -0.7145    2.0625    0.0000 O   0  0  0  0  0  0  0  0  0  0  0  0
   -1.4289    0.8250    0.0000 O   0  0  0  0  0  0  0  0  0  0  0  0
    0.7145   -1.2375    0.0000 N   0  0  0  0  0  0  0  0  0  0  0  0
    1.4289   -1.6500    0.0000 O   0  0  0  0  0  0  0  0  0  0  0  0
   -0.0000   -1.6500    0.0000 O   0  0  0  0  0  0  0  0  0  0  0  0
    2.1434    1.2375    0.0000 H   0  0  0  0  0  0  0  0  0  0  0  0
    2.1434   -0.4125    0.0000 H   0  0  0  0  0  0  0  0  0  0  0  0
   -0.7145   -0.4125    0.0000 H   0  0  0  0  0  0  0  0  0  0  0  0
  1  2  1  0  0  0  0
  2  3  4  0  0  0  0
  3  4  4  0  0  0  0
  4  5  4  0  0  0  0
  5  6  4  0  0  0  0
  6  7  4  0  0  0  0
  2  7  4  0  0  0  0
  7  8  1  0  0  0  0
  8  9  2  0  0  0  0
  8 10  2  0  0  0  0
  5 11  1  0  0  0  0
 11 12  2  0  0  0  0
 11 13  2  0  0  0  0
  3 14  1  0  0  0  0
  4 15  1  0  0  0  0
  6 16  1  0  0  0  0
M  END
>  <InChIKey>
InChI=1S/C6H3FN2O4/c7-5-2-1-4(8(10)11)3-6(5)9(12)13/h1-3H

>  <CASRN>
70-34-8

> <Outcome>
1

>  <Index>
2093

>  <StandardizerResult>
Dearomatize (ID: Dearomatize)
Clear Stereo (ID: ClearStereo)
Wedge Clean (ID: WedgeClean)
Mesomerize (ID: Mesomerize)
Tautomerize (ID: Tautomerize)
Aromatize (ID: Aromatize)
Add Explicit Hydrogens (ID: AddExplicitH)
Neutralize (ID: Neutralize)
Clean 2D (ID: Clean2D)

> <knn Distance>


> <CpId>
2093

$$$$
2095
  Mrv1532301301811342D          

 56 64  0  0  0  0            999 V2000
   -2.4561   -3.1084    0.0000 C   0  0  0  0  0  0  0  0  0  0  0  0
   -3.0446   -2.5302    0.0000 C   0  0  0  0  0  0  0  0  0  0  0  0
   -2.8380   -1.7315    0.0000 C   0  0  0  0  0  0  0  0  0  0  0  0
   -2.0430   -1.5110    0.0000 C   0  0  0  0  0  0  0  0  0  0  0  0
   -1.4546   -2.0892    0.0000 C   0  0  0  0  0  0  0  0  0  0  0  0
   -1.6611   -2.8880    0.0000 C   0  0  0  0  0  0  0  0  0  0  0  0
   -0.7243   -1.6459    0.0000 C   0  0  0  0  0  0  0  0  0  0  0  0
   -0.8480   -0.8857    0.0000 N   0  0  0  0  0  0  0  0  0  0  0  0
   -1.6690   -0.7465    0.0000 C   0  0  0  0  0  0  0  0  0  0  0  0
   -2.0558   -0.0472    0.0000 N   0  0  0  0  0  0  0  0  0  0  0  0
   -1.6818    0.7174    0.0000 C   0  0  0  0  0  0  0  0  0  0  0  0
   -0.8926    0.8706    0.0000 N   0  0  0  0  0  0  0  0  0  0  0  0
   -0.7239    1.6627    0.0000 C   0  0  0  0  0  0  0  0  0  0  0  0
    0.0047    2.0496    0.0000 N   0  0  0  0  0  0  0  0  0  0  0  0
    0.7107    1.6752    0.0000 C   0  0  0  0  0  0  0  0  0  0  0  0
    0.8643    0.8567    0.0000 N   0  0  0  0  0  0  0  0  0  0  0  0
    1.6265    0.7462    0.0000 C   0  0  0  0  0  0  0  0  0  0  0  0
    2.0427    0.0179    0.0000 N   0  0  0  0  0  0  0  0  0  0  0  0
    1.6683   -0.6881    0.0000 C   0  0  0  0  0  0  0  0  0  0  0  0
    0.8501   -0.8709    0.0000 N   0  0  0  0  0  0  0  0  0  0  0  0
    0.7106   -1.6627    0.0000 C   0  0  0  0  0  0  0  0  0  0  0  0
    0.0112   -2.0494    0.0000 N   0  0  0  0  0  0  0  0  0  0  0  0
    1.5044   -2.0364    0.0000 C   0  0  0  0  0  0  0  0  0  0  0  0
    1.7249   -2.8314    0.0000 C   0  0  0  0  0  0  0  0  0  0  0  0
    2.5237   -3.0379    0.0000 C   0  0  0  0  0  0  0  0  0  0  0  0
    3.1019   -2.4494    0.0000 C   0  0  0  0  0  0  0  0  0  0  0  0
    2.8813   -1.6544    0.0000 C   0  0  0  0  0  0  0  0  0  0  0  0
    2.0826   -1.4479    0.0000 C   0  0  0  0  0  0  0  0  0  0  0  0
    2.0297    1.5110    0.0000 C   0  0  0  0  0  0  0  0  0  0  0  0
    2.8247    1.7315    0.0000 C   0  0  0  0  0  0  0  0  0  0  0  0
    3.0313    2.5302    0.0000 C   0  0  0  0  0  0  0  0  0  0  0  0
    2.4428    3.1084    0.0000 C   0  0  0  0  0  0  0  0  0  0  0  0
    1.6478    2.8880    0.0000 C   0  0  0  0  0  0  0  0  0  0  0  0
    1.4413    2.0893    0.0000 C   0  0  0  0  0  0  0  0  0  0  0  0
   -1.4588    2.0076    0.0000 C   0  0  0  0  0  0  0  0  0  0  0  0
   -1.6793    2.8026    0.0000 C   0  0  0  0  0  0  0  0  0  0  0  0
   -2.4780    3.0092    0.0000 C   0  0  0  0  0  0  0  0  0  0  0  0
   -3.0562    2.4208    0.0000 C   0  0  0  0  0  0  0  0  0  0  0  0
   -2.8358    1.6258    0.0000 C   0  0  0  0  0  0  0  0  0  0  0  0
   -2.0371    1.4192    0.0000 C   0  0  0  0  0  0  0  0  0  0  0  0
   -2.6627   -3.9072    0.0000 H   0  0  0  0  0  0  0  0  0  0  0  0
   -3.8396   -2.7506    0.0000 H   0  0  0  0  0  0  0  0  0  0  0  0
   -3.4264   -1.1532    0.0000 H   0  0  0  0  0  0  0  0  0  0  0  0
   -1.0727   -3.4662    0.0000 H   0  0  0  0  0  0  0  0  0  0  0  0
    1.1467   -3.4199    0.0000 H   0  0  0  0  0  0  0  0  0  0  0  0
    2.7442   -3.8328    0.0000 H   0  0  0  0  0  0  0  0  0  0  0  0
    3.9006   -2.6559    0.0000 H   0  0  0  0  0  0  0  0  0  0  0  0
    3.4595   -1.0659    0.0000 H   0  0  0  0  0  0  0  0  0  0  0  0
    3.4131    1.1532    0.0000 H   0  0  0  0  0  0  0  0  0  0  0  0
    3.8263    2.7507    0.0000 H   0  0  0  0  0  0  0  0  0  0  0  0
    2.6494    3.9072    0.0000 H   0  0  0  0  0  0  0  0  0  0  0  0
    1.0594    3.4662    0.0000 H   0  0  0  0  0  0  0  0  0  0  0  0
   -1.1010    3.3910    0.0000 H   0  0  0  0  0  0  0  0  0  0  0  0
   -2.6984    3.8042    0.0000 H   0  0  0  0  0  0  0  0  0  0  0  0
   -3.8550    2.6273    0.0000 H   0  0  0  0  0  0  0  0  0  0  0  0
   -3.4140    1.0373    0.0000 H   0  0  0  0  0  0  0  0  0  0  0  0
  1  2  4  0  0  0  0
  2  3  4  0  0  0  0
  3  4  4  0  0  0  0
  4  5  4  0  0  0  0
  5  6  4  0  0  0  0
  1  6  4  0  0  0  0
  5  7  1  0  0  0  0
  7  8  1  0  0  0  0
  8  9  2  0  0  0  0
  4  9  1  0  0  0  0
 10  9  1  4  0  0  0
 10 11  2  0  0  0  0
 11 12  1  0  0  0  0
 12 13  2  0  0  0  0
 14 13  1  4  0  0  0
 14 15  2  0  0  0  0
 15 16  1  0  0  0  0
 16 17  2  0  0  0  0
 18 17  1  4  0  0  0
 18 19  2  0  0  0  0
 19 20  1  0  0  0  0
 20 21  2  0  0  0  0
 22 21  1  4  0  0  0
  7 22  2  0  0  0  0
 21 23  1  0  0  0  0
 23 24  4  0  0  0  0
 24 25  4  0  0  0  0
 25 26  4  0  0  0  0
 26 27  4  0  0  0  0
 27 28  4  0  0  0  0
 19 28  1  0  0  0  0
 23 28  4  0  0  0  0
 17 29  1  0  0  0  0
 29 30  4  0  0  0  0
 30 31  4  0  0  0  0
 31 32  4  0  0  0  0
 32 33  4  0  0  0  0
 33 34  4  0  0  0  0
 15 34  1  0  0  0  0
 29 34  4  0  0  0  0
 13 35  1  0  0  0  0
 35 36  4  0  0  0  0
 36 37  4  0  0  0  0
 37 38  4  0  0  0  0
 38 39  4  0  0  0  0
 39 40  4  0  0  0  0
 11 40  1  0  0  0  0
 35 40  4  0  0  0  0
  1 41  1  0  0  0  0
  2 42  1  0  0  0  0
  3 43  1  0  0  0  0
  6 44  1  0  0  0  0
 24 45  1  0  0  0  0
 25 46  1  0  0  0  0
 26 47  1  0  0  0  0
 27 48  1  0  0  0  0
 30 49  1  0  0  0  0
 31 50  1  0  0  0  0
 32 51  1  0  0  0  0
 33 52  1  0  0  0  0
 36 53  1  0  0  0  0
 37 54  1  0  0  0  0
 38 55  1  0  0  0  0
 39 56  1  0  0  0  0
M  END
>  <InChIKey>
InChI=1S/C32H16N8/c1-2-10-18-17(9-1)25-33-26(18)38-28-21-13-5-6-14-22(21)30(35-28)40-32-24-16-8-7-15-23(24)31(36-32)39-29-20-12-4-3-11-19(20)27(34-29)37-25/h1-16H

>  <CASRN>
574-93-6

> <Outcome>
1

>  <Index>
2095

>  <StandardizerResult>
Dearomatize (ID: Dearomatize)
Clear Stereo (ID: ClearStereo)
Wedge Clean (ID: WedgeClean)
Mesomerize (ID: Mesomerize)
Tautomerize (ID: Tautomerize)
Aromatize (ID: Aromatize)
Add Explicit Hydrogens (ID: AddExplicitH)
Neutralize (ID: Neutralize)
Clean 2D (ID: Clean2D)

> <knn Distance>


> <CpId>
2095

$$$$
2105
  Mrv1532301301811342D          

 18 18  0  0  0  0            999 V2000
    1.3712    1.2018    0.0000 C   0  0  0  0  0  0  0  0  0  0  0  0
    2.0857    0.7893    0.0000 C   0  0  0  0  0  0  0  0  0  0  0  0
    2.8001    1.2018    0.0000 C   0  0  0  0  0  0  0  0  0  0  0  0
    3.5146    0.7893    0.0000 O   0  0  0  0  0  0  0  0  0  0  0  0
    4.2291    1.2018    0.0000 C   0  0  0  0  0  0  0  0  0  0  0  0
    4.9435    0.7893    0.0000 C   0  0  0  0  0  0  0  0  0  0  0  0
    5.7685    0.7893    0.0000 C   0  0  0  0  0  0  0  0  0  0  0  0
    5.3560    0.0749    0.0000 O   0  0  0  0  0  0  0  0  0  0  0  0
    1.3712    2.0268    0.0000 H   0  0  0  0  0  0  0  0  0  0  0  0
    0.6567    0.7893    0.0000 H   0  0  0  0  0  0  0  0  0  0  0  0
    2.0857   -0.0357    0.0000 H   0  0  0  0  0  0  0  0  0  0  0  0
    3.1704    1.9391    0.0000 H   0  0  0  0  0  0  0  0  0  0  0  0
    2.4299    1.9391    0.0000 H   0  0  0  0  0  0  0  0  0  0  0  0
    4.5993    1.9391    0.0000 H   0  0  0  0  0  0  0  0  0  0  0  0
    3.8588    1.9391    0.0000 H   0  0  0  0  0  0  0  0  0  0  0  0
    4.3602    0.2060    0.0000 H   0  0  0  0  0  0  0  0  0  0  0  0
    6.5921    0.7414    0.0000 H   0  0  0  0  0  0  0  0  0  0  0  0
    6.1388    1.5266    0.0000 H   0  0  0  0  0  0  0  0  0  0  0  0
  1  2  2  0  0  0  0
  2  3  1  0  0  0  0
  3  4  1  0  0  0  0
  4  5  1  0  0  0  0
  5  6  1  0  0  0  0
  6  7  1  0  0  0  0
  7  8  1  0  0  0  0
  6  8  1  0  0  0  0
  1  9  1  0  0  0  0
  1 10  1  0  0  0  0
  2 11  1  0  0  0  0
  3 12  1  0  0  0  0
  3 13  1  0  0  0  0
  5 14  1  0  0  0  0
  5 15  1  0  0  0  0
  6 16  1  0  0  0  0
  7 17  1  0  0  0  0
  7 18  1  0  0  0  0
M  END
>  <InChIKey>
InChI=1S/C6H10O2/c1-2-3-7-4-6-5-8-6/h2,6H,1,3-5H2

>  <CASRN>
106-92-3

> <Outcome>
1

>  <Index>
2105

>  <StandardizerResult>
Clear Stereo (ID: ClearStereo)
Wedge Clean (ID: WedgeClean)
Mesomerize (ID: Mesomerize)
Tautomerize (ID: Tautomerize)
Add Explicit Hydrogens (ID: AddExplicitH)
Neutralize (ID: Neutralize)
Clean 2D (ID: Clean2D)

> <knn Distance>


> <CpId>
2105

$$$$
2112
  Mrv1532301301811342D          

 15 14  0  0  0  0            999 V2000
    0.5270   -1.9580    0.0000 O   0  0  0  0  0  0  0  0  0  0  0  0
    0.5270   -1.1330    0.0000 C   0  0  0  0  0  0  0  0  0  0  0  0
    1.2415   -0.7205    0.0000 C   0  0  0  0  0  0  0  0  0  0  0  0
    1.6540   -1.4349    0.0000 Br  0  0  0  0  0  0  0  0  0  0  0  0
    1.9560   -0.3080    0.0000 C   0  0  0  0  0  0  0  0  0  0  0  0
    1.9560    0.5170    0.0000 O   0  0  0  0  0  0  0  0  0  0  0  0
    0.8290   -0.0060    0.0000 N   0  0  0  0  0  0  0  0  0  0  0  0
    1.2415    0.7085    0.0000 O   0  0  0  0  0  0  0  0  0  0  0  0
    0.0040   -0.0060    0.0000 O   0  0  0  0  0  0  0  0  0  0  0  0
   -0.1874   -2.3705    0.0000 H   0  0  0  0  0  0  0  0  0  0  0  0
    0.0737   -0.4437    0.0000 H   0  0  0  0  0  0  0  0  0  0  0  0
   -0.2966   -1.0850    0.0000 H   0  0  0  0  0  0  0  0  0  0  0  0
    2.4093   -0.9972    0.0000 H   0  0  0  0  0  0  0  0  0  0  0  0
    2.7796   -0.3559    0.0000 H   0  0  0  0  0  0  0  0  0  0  0  0
    2.6105    1.0193    0.0000 H   0  0  0  0  0  0  0  0  0  0  0  0
  1  2  1  0  0  0  0
  2  3  1  0  0  0  0
  3  4  1  0  0  0  0
  3  5  1  0  0  0  0
  5  6  1  0  0  0  0
  3  7  1  0  0  0  0
  7  8  2  0  0  0  0
  7  9  2  0  0  0  0
  1 10  1  0  0  0  0
  2 11  1  0  0  0  0
  2 12  1  0  0  0  0
  5 13  1  0  0  0  0
  5 14  1  0  0  0  0
  6 15  1  0  0  0  0
M  END
>  <InChIKey>
InChI=1S/C3H6BrNO4/c4-3(1-6,2-7)5(8)9/h6-7H,1-2H2

>  <CASRN>
52-51-7

> <Outcome>
1

>  <Index>
2112

>  <StandardizerResult>
Clear Stereo (ID: ClearStereo)
Wedge Clean (ID: WedgeClean)
Mesomerize (ID: Mesomerize)
Tautomerize (ID: Tautomerize)
Add Explicit Hydrogens (ID: AddExplicitH)
Neutralize (ID: Neutralize)
Clean 2D (ID: Clean2D)

> <knn Distance>


> <CpId>
2112

$$$$
2113
  Mrv1532301301811342D          

 35 36  0  0  0  0            999 V2000
    0.7145   -1.2375    0.0000 C   0  0  0  0  0  0  0  0  0  0  0  0
    1.4289   -1.6500    0.0000 N   0  0  0  0  0  0  0  0  0  0  0  0
    2.1434   -1.2375    0.0000 C   0  0  0  0  0  0  0  0  0  0  0  0
    1.4289   -2.4750    0.0000 C   0  0  0  0  0  0  0  0  0  0  0  0
    2.1434   -2.8875    0.0000 C   0  0  0  0  0  0  0  0  0  0  0  0
    2.1434   -3.7125    0.0000 C   0  0  0  0  0  0  0  0  0  0  0  0
    1.4289   -4.1250    0.0000 C   0  0  0  0  0  0  0  0  0  0  0  0
    0.7145   -3.7125    0.0000 C   0  0  0  0  0  0  0  0  0  0  0  0
    0.7145   -2.8875    0.0000 C   0  0  0  0  0  0  0  0  0  0  0  0
    1.4289   -4.9500    0.0000 N   0  0  0  0  0  0  0  0  0  0  0  0
    2.1434   -5.3625    0.0000 N   0  0  0  0  0  0  0  0  0  0  0  0
    2.1434   -6.1875    0.0000 C   0  0  0  0  0  0  0  0  0  0  0  0
    2.8579   -6.6000    0.0000 C   0  0  0  0  0  0  0  0  0  0  0  0
    2.8579   -7.4250    0.0000 C   0  0  0  0  0  0  0  0  0  0  0  0
    2.1434   -7.8375    0.0000 C   0  0  0  0  0  0  0  0  0  0  0  0
    1.4289   -7.4250    0.0000 C   0  0  0  0  0  0  0  0  0  0  0  0
    0.7145   -7.8375    0.0000 C   0  0  0  0  0  0  0  0  0  0  0  0
    1.4289   -6.6000    0.0000 C   0  0  0  0  0  0  0  0  0  0  0  0
    1.1270   -0.5230    0.0000 H   0  0  0  0  0  0  0  0  0  0  0  0
   -0.0000   -0.8250    0.0000 H   0  0  0  0  0  0  0  0  0  0  0  0
    0.3020   -1.9520    0.0000 H   0  0  0  0  0  0  0  0  0  0  0  0
    2.5559   -1.9520    0.0000 H   0  0  0  0  0  0  0  0  0  0  0  0
    2.8579   -0.8250    0.0000 H   0  0  0  0  0  0  0  0  0  0  0  0
    1.7309   -0.5230    0.0000 H   0  0  0  0  0  0  0  0  0  0  0  0
    2.8579   -2.4750    0.0000 H   0  0  0  0  0  0  0  0  0  0  0  0
    2.8579   -4.1250    0.0000 H   0  0  0  0  0  0  0  0  0  0  0  0
   -0.0000   -4.1250    0.0000 H   0  0  0  0  0  0  0  0  0  0  0  0
   -0.0000   -2.4750    0.0000 H   0  0  0  0  0  0  0  0  0  0  0  0
    3.5724   -6.1875    0.0000 H   0  0  0  0  0  0  0  0  0  0  0  0
    3.5724   -7.8375    0.0000 H   0  0  0  0  0  0  0  0  0  0  0  0
    2.1434   -8.6625    0.0000 H   0  0  0  0  0  0  0  0  0  0  0  0
    0.3020   -7.1230    0.0000 H   0  0  0  0  0  0  0  0  0  0  0  0
   -0.0000   -8.2500    0.0000 H   0  0  0  0  0  0  0  0  0  0  0  0
    1.1270   -8.5520    0.0000 H   0  0  0  0  0  0  0  0  0  0  0  0
    0.7145   -6.1875    0.0000 H   0  0  0  0  0  0  0  0  0  0  0  0
  1  2  1  0  0  0  0
  2  3  1  0  0  0  0
  2  4  1  0  0  0  0
  4  5  4  0  0  0  0
  5  6  4  0  0  0  0
  6  7  4  0  0  0  0
  7  8  4  0  0  0  0
  8  9  4  0  0  0  0
  4  9  4  0  0  0  0
 10  7  1  4  0  0  0
 10 11  2  0  0  0  0
 11 12  1  0  0  0  0
 12 13  4  0  0  0  0
 13 14  4  0  0  0  0
 14 15  4  0  0  0  0
 15 16  4  0  0  0  0
 16 17  1  0  0  0  0
 16 18  4  0  0  0  0
 12 18  4  0  0  0  0
  1 19  1  0  0  0  0
  1 20  1  0  0  0  0
  1 21  1  0  0  0  0
  3 22  1  0  0  0  0
  3 23  1  0  0  0  0
  3 24  1  0  0  0  0
  5 25  1  0  0  0  0
  6 26  1  0  0  0  0
  8 27  1  0  0  0  0
  9 28  1  0  0  0  0
 13 29  1  0  0  0  0
 14 30  1  0  0  0  0
 15 31  1  0  0  0  0
 17 32  1  0  0  0  0
 17 33  1  0  0  0  0
 17 34  1  0  0  0  0
 18 35  1  0  0  0  0
M  END
>  <InChIKey>
InChI=1S/C15H17N3/c1-12-5-4-6-14(11-12)17-16-13-7-9-15(10-8-13)18(2)3/h4-11H,1-3H3

>  <CASRN>
55-80-1

> <Outcome>
1

>  <Index>
2113

>  <StandardizerResult>
Dearomatize (ID: Dearomatize)
Clear Stereo (ID: ClearStereo)
Wedge Clean (ID: WedgeClean)
Mesomerize (ID: Mesomerize)
Tautomerize (ID: Tautomerize)
Aromatize (ID: Aromatize)
Add Explicit Hydrogens (ID: AddExplicitH)
Neutralize (ID: Neutralize)
Clean 2D (ID: Clean2D)

> <knn Distance>


> <CpId>
2113

$$$$
2115
  Mrv1532301301811342D          

 21 23  0  0  0  0            999 V2000
    0.9130   -0.8764    0.0000 Cl  0  0  0  0  0  0  0  0  0  0  0  0
    1.7200   -1.0480    0.0000 C   0  0  0  0  0  0  0  0  0  0  0  0
    2.2720   -0.4349    0.0000 C   0  0  0  0  0  0  0  0  0  0  0  0
    3.0790   -0.6064    0.0000 C   0  0  0  0  0  0  0  0  0  0  0  0
    3.7464   -0.1215    0.0000 O   0  0  0  0  0  0  0  0  0  0  0  0
    4.4139   -0.6064    0.0000 C   0  0  0  0  0  0  0  0  0  0  0  0
    5.2208   -0.4349    0.0000 C   0  0  0  0  0  0  0  0  0  0  0  0
    5.4758    0.3498    0.0000 Cl  0  0  0  0  0  0  0  0  0  0  0  0
    5.7729   -1.0480    0.0000 C   0  0  0  0  0  0  0  0  0  0  0  0
    6.5798   -0.8764    0.0000 Cl  0  0  0  0  0  0  0  0  0  0  0  0
    5.5179   -1.8326    0.0000 C   0  0  0  0  0  0  0  0  0  0  0  0
    6.0700   -2.4457    0.0000 Cl  0  0  0  0  0  0  0  0  0  0  0  0
    4.7110   -2.0041    0.0000 C   0  0  0  0  0  0  0  0  0  0  0  0
    4.4560   -2.7887    0.0000 Cl  0  0  0  0  0  0  0  0  0  0  0  0
    4.1589   -1.3910    0.0000 C   0  0  0  0  0  0  0  0  0  0  0  0
    3.3339   -1.3910    0.0000 C   0  0  0  0  0  0  0  0  0  0  0  0
    2.7819   -2.0041    0.0000 C   0  0  0  0  0  0  0  0  0  0  0  0
    1.9749   -1.8326    0.0000 C   0  0  0  0  0  0  0  0  0  0  0  0
    1.4229   -2.4457    0.0000 Cl  0  0  0  0  0  0  0  0  0  0  0  0
    2.0171    0.3498    0.0000 H   0  0  0  0  0  0  0  0  0  0  0  0
    3.0368   -2.7887    0.0000 H   0  0  0  0  0  0  0  0  0  0  0  0
  1  2  1  0  0  0  0
  2  3  4  0  0  0  0
  3  4  4  0  0  0  0
  4  5  4  0  0  0  0
  5  6  4  0  0  0  0
  6  7  4  0  0  0  0
  7  8  1  0  0  0  0
  7  9  4  0  0  0  0
  9 10  1  0  0  0  0
  9 11  4  0  0  0  0
 11 12  1  0  0  0  0
 11 13  4  0  0  0  0
 13 14  1  0  0  0  0
 13 15  4  0  0  0  0
  6 15  4  0  0  0  0
 15 16  4  0  0  0  0
  4 16  4  0  0  0  0
 16 17  4  0  0  0  0
 17 18  4  0  0  0  0
  2 18  4  0  0  0  0
 18 19  1  0  0  0  0
  3 20  1  0  0  0  0
 17 21  1  0  0  0  0
M  END
>  <InChIKey>
InChI=1S/C12H2Cl6O/c13-4-1-3-6(2-5(4)14)19-12-7(3)8(15)9(16)10(17)11(12)18/h1-2H

>  <CASRN>
70648-26-9

> <Outcome>
1

>  <Index>
2115

>  <StandardizerResult>
Dearomatize (ID: Dearomatize)
Clear Stereo (ID: ClearStereo)
Wedge Clean (ID: WedgeClean)
Mesomerize (ID: Mesomerize)
Tautomerize (ID: Tautomerize)
Aromatize (ID: Aromatize)
Add Explicit Hydrogens (ID: AddExplicitH)
Neutralize (ID: Neutralize)
Clean 2D (ID: Clean2D)

> <knn Distance>


> <CpId>
2115

$$$$
2117
  Mrv1532301301811342D          

 20 20  0  0  0  0            999 V2000
    1.4289    2.4750    0.0000 O   0  0  0  0  0  0  0  0  0  0  0  0
    0.7145    2.0625    0.0000 C   0  0  0  0  0  0  0  0  0  0  0  0
   -0.0000    2.4750    0.0000 O   0  0  0  0  0  0  0  0  0  0  0  0
    0.7145    1.2375    0.0000 C   0  0  0  0  0  0  0  0  0  0  0  0
    1.4289    0.8250    0.0000 C   0  0  0  0  0  0  0  0  0  0  0  0
    1.4289    0.0000    0.0000 C   0  0  0  0  0  0  0  0  0  0  0  0
    0.7145   -0.4125    0.0000 C   0  0  0  0  0  0  0  0  0  0  0  0
   -0.0000    0.0000    0.0000 C   0  0  0  0  0  0  0  0  0  0  0  0
   -0.0000    0.8250    0.0000 C   0  0  0  0  0  0  0  0  0  0  0  0
   -0.7145    1.2375    0.0000 O   0  0  0  0  0  0  0  0  0  0  0  0
   -0.7145   -0.4125    0.0000 N   0  0  0  0  0  0  0  0  0  0  0  0
   -0.7145   -1.2375    0.0000 O   0  0  0  0  0  0  0  0  0  0  0  0
   -1.4289    0.0000    0.0000 O   0  0  0  0  0  0  0  0  0  0  0  0
    2.1434   -0.4125    0.0000 N   0  0  0  0  0  0  0  0  0  0  0  0
    2.1434   -1.2375    0.0000 O   0  0  0  0  0  0  0  0  0  0  0  0
    2.8579    0.0000    0.0000 O   0  0  0  0  0  0  0  0  0  0  0  0
    2.1434    2.0625    0.0000 H   0  0  0  0  0  0  0  0  0  0  0  0
    2.1434    1.2375    0.0000 H   0  0  0  0  0  0  0  0  0  0  0  0
    0.7145   -1.2375    0.0000 H   0  0  0  0  0  0  0  0  0  0  0  0
   -0.7145    2.0625    0.0000 H   0  0  0  0  0  0  0  0  0  0  0  0
  1  2  1  0  0  0  0
  2  3  2  0  0  0  0
  2  4  1  0  0  0  0
  4  5  4  0  0  0  0
  5  6  4  0  0  0  0
  6  7  4  0  0  0  0
  7  8  4  0  0  0  0
  8  9  4  0  0  0  0
  4  9  4  0  0  0  0
  9 10  1  0  0  0  0
  8 11  1  0  0  0  0
 11 12  2  0  0  0  0
 11 13  2  0  0  0  0
  6 14  1  0  0  0  0
 14 15  2  0  0  0  0
 14 16  2  0  0  0  0
  1 17  1  0  0  0  0
  5 18  1  0  0  0  0
  7 19  1  0  0  0  0
 10 20  1  0  0  0  0
M  END
>  <InChIKey>
InChI=1S/C7H4N2O7/c10-6-4(7(11)12)1-3(8(13)14)2-5(6)9(15)16/h1-2,10H,(H,11,12)

>  <CASRN>
609-99-4

> <Outcome>
1

>  <Index>
2117

>  <StandardizerResult>
Dearomatize (ID: Dearomatize)
Clear Stereo (ID: ClearStereo)
Wedge Clean (ID: WedgeClean)
Mesomerize (ID: Mesomerize)
Tautomerize (ID: Tautomerize)
Aromatize (ID: Aromatize)
Add Explicit Hydrogens (ID: AddExplicitH)
Neutralize (ID: Neutralize)
Clean 2D (ID: Clean2D)

> <knn Distance>


> <CpId>
2117

$$$$
2118
  Mrv1532301301811342D          

 23 24  0  0  0  0            999 V2000
   -0.7893    1.7402    0.0000 O   0  0  0  0  0  0  0  0  0  0  0  0
   -0.7893    0.9152    0.0000 C   0  0  0  0  0  0  0  0  0  0  0  0
   -0.0748    0.5027    0.0000 C   0  0  0  0  0  0  0  0  0  0  0  0
   -0.0748   -0.3223    0.0000 C   0  0  0  0  0  0  0  0  0  0  0  0
    0.6397   -0.7348    0.0000 C   0  0  0  0  0  0  0  0  0  0  0  0
    1.3542   -0.3223    0.0000 C   0  0  0  0  0  0  0  0  0  0  0  0
    1.3542    0.5027    0.0000 C   0  0  0  0  0  0  0  0  0  0  0  0
    0.6397    0.9152    0.0000 C   0  0  0  0  0  0  0  0  0  0  0  0
    0.4334    0.0902    0.0000 C   0  0  0  0  0  0  0  0  0  0  0  0
   -0.0748    2.1527    0.0000 H   0  0  0  0  0  0  0  0  0  0  0  0
   -1.6129    0.8673    0.0000 H   0  0  0  0  0  0  0  0  0  0  0  0
   -1.2426    0.2260    0.0000 H   0  0  0  0  0  0  0  0  0  0  0  0
   -0.0748    1.3277    0.0000 H   0  0  0  0  0  0  0  0  0  0  0  0
   -0.8984   -0.3702    0.0000 H   0  0  0  0  0  0  0  0  0  0  0  0
   -0.5281   -1.0115    0.0000 H   0  0  0  0  0  0  0  0  0  0  0  0
    0.6397   -1.5598    0.0000 H   0  0  0  0  0  0  0  0  0  0  0  0
    1.8075   -1.0115    0.0000 H   0  0  0  0  0  0  0  0  0  0  0  0
    2.1778   -0.3702    0.0000 H   0  0  0  0  0  0  0  0  0  0  0  0
    2.1778    0.5507    0.0000 H   0  0  0  0  0  0  0  0  0  0  0  0
    1.8075    1.1920    0.0000 H   0  0  0  0  0  0  0  0  0  0  0  0
    1.0522    1.6297    0.0000 H   0  0  0  0  0  0  0  0  0  0  0  0
    1.1792   -0.2626    0.0000 H   0  0  0  0  0  0  0  0  0  0  0  0
    1.1792    0.4431    0.0000 H   0  0  0  0  0  0  0  0  0  0  0  0
  1  2  1  0  0  0  0
  2  3  1  0  0  0  0
  3  4  1  0  0  0  0
  4  5  1  0  0  0  0
  5  6  1  0  0  0  0
  6  7  1  0  0  0  0
  7  8  1  0  0  0  0
  3  8  1  0  0  0  0
  8  9  1  0  0  0  0
  5  9  1  0  0  0  0
  1 10  1  0  0  0  0
  2 11  1  0  0  0  0
  2 12  1  0  0  0  0
  3 13  1  0  0  0  0
  4 14  1  0  0  0  0
  4 15  1  0  0  0  0
  5 16  1  0  0  0  0
  6 17  1  0  0  0  0
  6 18  1  0  0  0  0
  7 19  1  0  0  0  0
  7 20  1  0  0  0  0
  8 21  1  0  0  0  0
  9 22  1  0  0  0  0
  9 23  1  0  0  0  0
M  END
>  <InChIKey>
InChI=1S/C8H14O/c9-5-8-4-6-1-2-7(8)3-6/h6-9H,1-5H2

>  <CASRN>
5240-72-2

> <Outcome>
1

>  <Index>
2118

>  <StandardizerResult>
Clear Stereo (ID: ClearStereo)
Wedge Clean (ID: WedgeClean)
Mesomerize (ID: Mesomerize)
Tautomerize (ID: Tautomerize)
Add Explicit Hydrogens (ID: AddExplicitH)
Neutralize (ID: Neutralize)
Clean 2D (ID: Clean2D)

> <knn Distance>


> <CpId>
2118

$$$$
2121
  Mrv1532301301811342D          

 52 51  0  0  0  0            999 V2000
    7.2336    5.0013    0.0000 C   0  0  0  0  0  0  0  0  0  0  0  0
    7.9480    5.4138    0.0000 C   0  0  0  0  0  0  0  0  0  0  0  0
    8.6625    5.0013    0.0000 C   0  0  0  0  0  0  0  0  0  0  0  0
    9.3770    5.4138    0.0000 C   0  0  0  0  0  0  0  0  0  0  0  0
   10.0915    5.0013    0.0000 C   0  0  0  0  0  0  0  0  0  0  0  0
   10.8059    5.4138    0.0000 C   0  0  0  0  0  0  0  0  0  0  0  0
   11.5204    5.0013    0.0000 C   0  0  0  0  0  0  0  0  0  0  0  0
   12.2349    5.4138    0.0000 C   0  0  0  0  0  0  0  0  0  0  0  0
   12.9493    5.0013    0.0000 O   0  0  0  0  0  0  0  0  0  0  0  0
   13.6638    5.4138    0.0000 O   0  0  0  0  0  0  0  0  0  0  0  0
   14.3783    5.0013    0.0000 C   0  0  0  0  0  0  0  0  0  0  0  0
   15.0927    5.4138    0.0000 C   0  0  0  0  0  0  0  0  0  0  0  0
   15.8072    5.0013    0.0000 C   0  0  0  0  0  0  0  0  0  0  0  0
   16.5217    5.4138    0.0000 C   0  0  0  0  0  0  0  0  0  0  0  0
   17.2362    5.0013    0.0000 C   0  0  0  0  0  0  0  0  0  0  0  0
   17.9506    5.4138    0.0000 C   0  0  0  0  0  0  0  0  0  0  0  0
   18.6651    5.0013    0.0000 C   0  0  0  0  0  0  0  0  0  0  0  0
   19.3796    5.4138    0.0000 C   0  0  0  0  0  0  0  0  0  0  0  0
    6.8211    5.7158    0.0000 H   0  0  0  0  0  0  0  0  0  0  0  0
    6.5191    4.5888    0.0000 H   0  0  0  0  0  0  0  0  0  0  0  0
    7.6461    4.2868    0.0000 H   0  0  0  0  0  0  0  0  0  0  0  0
    8.3183    6.1510    0.0000 H   0  0  0  0  0  0  0  0  0  0  0  0
    7.5778    6.1510    0.0000 H   0  0  0  0  0  0  0  0  0  0  0  0
    8.2922    4.2641    0.0000 H   0  0  0  0  0  0  0  0  0  0  0  0
    9.0328    4.2641    0.0000 H   0  0  0  0  0  0  0  0  0  0  0  0
    9.7472    6.1510    0.0000 H   0  0  0  0  0  0  0  0  0  0  0  0
    9.0067    6.1510    0.0000 H   0  0  0  0  0  0  0  0  0  0  0  0
    9.7212    4.2641    0.0000 H   0  0  0  0  0  0  0  0  0  0  0  0
   10.4617    4.2641    0.0000 H   0  0  0  0  0  0  0  0  0  0  0  0
   11.1762    6.1510    0.0000 H   0  0  0  0  0  0  0  0  0  0  0  0
   10.4357    6.1510    0.0000 H   0  0  0  0  0  0  0  0  0  0  0  0
   11.1501    4.2641    0.0000 H   0  0  0  0  0  0  0  0  0  0  0  0
   11.8907    4.2641    0.0000 H   0  0  0  0  0  0  0  0  0  0  0  0
   12.6051    6.1510    0.0000 H   0  0  0  0  0  0  0  0  0  0  0  0
   11.8646    6.1510    0.0000 H   0  0  0  0  0  0  0  0  0  0  0  0
   14.0080    4.2641    0.0000 H   0  0  0  0  0  0  0  0  0  0  0  0
   14.7485    4.2641    0.0000 H   0  0  0  0  0  0  0  0  0  0  0  0
   15.4630    6.1510    0.0000 H   0  0  0  0  0  0  0  0  0  0  0  0
   14.7225    6.1510    0.0000 H   0  0  0  0  0  0  0  0  0  0  0  0
   15.4370    4.2641    0.0000 H   0  0  0  0  0  0  0  0  0  0  0  0
   16.1775    4.2641    0.0000 H   0  0  0  0  0  0  0  0  0  0  0  0
   16.8919    6.1510    0.0000 H   0  0  0  0  0  0  0  0  0  0  0  0
   16.1514    6.1510    0.0000 H   0  0  0  0  0  0  0  0  0  0  0  0
   16.8659    4.2641    0.0000 H   0  0  0  0  0  0  0  0  0  0  0  0
   17.6064    4.2641    0.0000 H   0  0  0  0  0  0  0  0  0  0  0  0
   18.3209    6.1510    0.0000 H   0  0  0  0  0  0  0  0  0  0  0  0
   17.5804    6.1510    0.0000 H   0  0  0  0  0  0  0  0  0  0  0  0
   18.2948    4.2641    0.0000 H   0  0  0  0  0  0  0  0  0  0  0  0
   19.0354    4.2641    0.0000 H   0  0  0  0  0  0  0  0  0  0  0  0
   19.7921    4.6993    0.0000 H   0  0  0  0  0  0  0  0  0  0  0  0
   20.0940    5.8263    0.0000 H   0  0  0  0  0  0  0  0  0  0  0  0
   18.9671    6.1283    0.0000 H   0  0  0  0  0  0  0  0  0  0  0  0
  1  2  1  0  0  0  0
  2  3  1  0  0  0  0
  3  4  1  0  0  0  0
  4  5  1  0  0  0  0
  5  6  1  0  0  0  0
  6  7  1  0  0  0  0
  7  8  1  0  0  0  0
  8  9  1  0  0  0  0
  9 10  1  0  0  0  0
 10 11  1  0  0  0  0
 11 12  1  0  0  0  0
 12 13  1  0  0  0  0
 13 14  1  0  0  0  0
 14 15  1  0  0  0  0
 15 16  1  0  0  0  0
 16 17  1  0  0  0  0
 17 18  1  0  0  0  0
  1 19  1  0  0  0  0
  1 20  1  0  0  0  0
  1 21  1  0  0  0  0
  2 22  1  0  0  0  0
  2 23  1  0  0  0  0
  3 24  1  0  0  0  0
  3 25  1  0  0  0  0
  4 26  1  0  0  0  0
  4 27  1  0  0  0  0
  5 28  1  0  0  0  0
  5 29  1  0  0  0  0
  6 30  1  0  0  0  0
  6 31  1  0  0  0  0
  7 32  1  0  0  0  0
  7 33  1  0  0  0  0
  8 34  1  0  0  0  0
  8 35  1  0  0  0  0
 11 36  1  0  0  0  0
 11 37  1  0  0  0  0
 12 38  1  0  0  0  0
 12 39  1  0  0  0  0
 13 40  1  0  0  0  0
 13 41  1  0  0  0  0
 14 42  1  0  0  0  0
 14 43  1  0  0  0  0
 15 44  1  0  0  0  0
 15 45  1  0  0  0  0
 16 46  1  0  0  0  0
 16 47  1  0  0  0  0
 17 48  1  0  0  0  0
 17 49  1  0  0  0  0
 18 50  1  0  0  0  0
 18 51  1  0  0  0  0
 18 52  1  0  0  0  0
M  END
>  <InChIKey>
InChI=1S/C16H34O2/c1-3-5-7-9-11-13-15-17-18-16-14-12-10-8-6-4-2/h3-16H2,1-2H3

>  <CASRN>
19102-74-0

> <Outcome>
1

>  <Index>
2121

>  <StandardizerResult>
Clear Stereo (ID: ClearStereo)
Wedge Clean (ID: WedgeClean)
Mesomerize (ID: Mesomerize)
Tautomerize (ID: Tautomerize)
Add Explicit Hydrogens (ID: AddExplicitH)
Neutralize (ID: Neutralize)
Clean 2D (ID: Clean2D)

> <knn Distance>


> <CpId>
2121

$$$$
2122
  Mrv1532301301811342D          

 58 58  0  0  0  0            999 V2000
   -2.2300   -9.4393    0.0000 C   0  0  0  0  0  0  0  0  0  0  0  0
   -1.5155   -9.0268    0.0000 C   0  0  0  0  0  0  0  0  0  0  0  0
   -0.8010   -9.4393    0.0000 C   0  0  0  0  0  0  0  0  0  0  0  0
   -0.0866   -9.0268    0.0000 C   0  0  0  0  0  0  0  0  0  0  0  0
    0.6279   -9.4393    0.0000 C   0  0  0  0  0  0  0  0  0  0  0  0
    1.3424   -9.0268    0.0000 C   0  0  0  0  0  0  0  0  0  0  0  0
    2.0569   -9.4393    0.0000 C   0  0  0  0  0  0  0  0  0  0  0  0
    2.7713   -9.0268    0.0000 C   0  0  0  0  0  0  0  0  0  0  0  0
    3.4858   -9.4393    0.0000 C   0  0  0  0  0  0  0  0  0  0  0  0
    4.2003   -9.0268    0.0000 C   0  0  0  0  0  0  0  0  0  0  0  0
    4.9147   -9.4393    0.0000 C   0  0  0  0  0  0  0  0  0  0  0  0
    5.6292   -9.0268    0.0000 C   0  0  0  0  0  0  0  0  0  0  0  0
    5.6292   -8.2018    0.0000 O   0  0  0  0  0  0  0  0  0  0  0  0
    6.3437   -9.4393    0.0000 O   0  0  0  0  0  0  0  0  0  0  0  0
    7.0581   -9.0268    0.0000 C   0  0  0  0  0  0  0  0  0  0  0  0
    7.7726   -9.4393    0.0000 C   0  0  0  0  0  0  0  0  0  0  0  0
    7.7726  -10.2643    0.0000 O   0  0  0  0  0  0  0  0  0  0  0  0
    8.4871   -9.0268    0.0000 C   0  0  0  0  0  0  0  0  0  0  0  0
    8.5733   -8.2063    0.0000 O   0  0  0  0  0  0  0  0  0  0  0  0
    9.3803   -8.0348    0.0000 C   0  0  0  0  0  0  0  0  0  0  0  0
    9.7928   -8.7492    0.0000 C   0  0  0  0  0  0  0  0  0  0  0  0
   10.6133   -8.8355    0.0000 O   0  0  0  0  0  0  0  0  0  0  0  0
    9.2408   -9.3623    0.0000 C   0  0  0  0  0  0  0  0  0  0  0  0
    9.4123  -10.1693    0.0000 O   0  0  0  0  0  0  0  0  0  0  0  0
   -2.6425   -8.7248    0.0000 H   0  0  0  0  0  0  0  0  0  0  0  0
   -2.9444   -9.8518    0.0000 H   0  0  0  0  0  0  0  0  0  0  0  0
   -1.8175  -10.1538    0.0000 H   0  0  0  0  0  0  0  0  0  0  0  0
   -1.1452   -8.2895    0.0000 H   0  0  0  0  0  0  0  0  0  0  0  0
   -1.8858   -8.2895    0.0000 H   0  0  0  0  0  0  0  0  0  0  0  0
   -1.1713  -10.1765    0.0000 H   0  0  0  0  0  0  0  0  0  0  0  0
   -0.4308  -10.1765    0.0000 H   0  0  0  0  0  0  0  0  0  0  0  0
    0.2837   -8.2895    0.0000 H   0  0  0  0  0  0  0  0  0  0  0  0
   -0.4568   -8.2895    0.0000 H   0  0  0  0  0  0  0  0  0  0  0  0
    0.2577  -10.1765    0.0000 H   0  0  0  0  0  0  0  0  0  0  0  0
    0.9982  -10.1765    0.0000 H   0  0  0  0  0  0  0  0  0  0  0  0
    1.7126   -8.2895    0.0000 H   0  0  0  0  0  0  0  0  0  0  0  0
    0.9721   -8.2895    0.0000 H   0  0  0  0  0  0  0  0  0  0  0  0
    1.6866  -10.1765    0.0000 H   0  0  0  0  0  0  0  0  0  0  0  0
    2.4271  -10.1765    0.0000 H   0  0  0  0  0  0  0  0  0  0  0  0
    3.1416   -8.2895    0.0000 H   0  0  0  0  0  0  0  0  0  0  0  0
    2.4011   -8.2895    0.0000 H   0  0  0  0  0  0  0  0  0  0  0  0
    3.1155  -10.1765    0.0000 H   0  0  0  0  0  0  0  0  0  0  0  0
    3.8561  -10.1765    0.0000 H   0  0  0  0  0  0  0  0  0  0  0  0
    4.5705   -8.2895    0.0000 H   0  0  0  0  0  0  0  0  0  0  0  0
    3.8300   -8.2895    0.0000 H   0  0  0  0  0  0  0  0  0  0  0  0
    4.5445  -10.1765    0.0000 H   0  0  0  0  0  0  0  0  0  0  0  0
    5.2850  -10.1765    0.0000 H   0  0  0  0  0  0  0  0  0  0  0  0
    7.4284   -8.2895    0.0000 H   0  0  0  0  0  0  0  0  0  0  0  0
    6.6879   -8.2895    0.0000 H   0  0  0  0  0  0  0  0  0  0  0  0
    7.0581   -9.8518    0.0000 H   0  0  0  0  0  0  0  0  0  0  0  0
    8.1851  -10.9788    0.0000 H   0  0  0  0  0  0  0  0  0  0  0  0
    8.5303   -9.8507    0.0000 H   0  0  0  0  0  0  0  0  0  0  0  0
   10.0304   -7.5269    0.0000 H   0  0  0  0  0  0  0  0  0  0  0  0
    9.3227   -7.2118    0.0000 H   0  0  0  0  0  0  0  0  0  0  0  0
   10.0885   -9.5195    0.0000 H   0  0  0  0  0  0  0  0  0  0  0  0
   11.3713   -8.5098    0.0000 H   0  0  0  0  0  0  0  0  0  0  0  0
    9.0692   -8.5554    0.0000 H   0  0  0  0  0  0  0  0  0  0  0  0
    9.5838  -10.9763    0.0000 H   0  0  0  0  0  0  0  0  0  0  0  0
  1  2  1  0  0  0  0
  2  3  1  0  0  0  0
  3  4  1  0  0  0  0
  4  5  1  0  0  0  0
  5  6  1  0  0  0  0
  6  7  1  0  0  0  0
  7  8  1  0  0  0  0
  8  9  1  0  0  0  0
  9 10  1  0  0  0  0
 10 11  1  0  0  0  0
 11 12  1  0  0  0  0
 12 13  2  0  0  0  0
 12 14  1  0  0  0  0
 14 15  1  0  0  0  0
 15 16  1  0  0  0  0
 16 17  1  0  0  0  0
 16 18  1  0  0  0  0
 18 19  1  0  0  0  0
 19 20  1  0  0  0  0
 20 21  1  0  0  0  0
 21 22  1  0  0  0  0
 21 23  1  0  0  0  0
 18 23  1  0  0  0  0
 23 24  1  0  0  0  0
  1 25  1  0  0  0  0
  1 26  1  0  0  0  0
  1 27  1  0  0  0  0
  2 28  1  0  0  0  0
  2 29  1  0  0  0  0
  3 30  1  0  0  0  0
  3 31  1  0  0  0  0
  4 32  1  0  0  0  0
  4 33  1  0  0  0  0
  5 34  1  0  0  0  0
  5 35  1  0  0  0  0
  6 36  1  0  0  0  0
  6 37  1  0  0  0  0
  7 38  1  0  0  0  0
  7 39  1  0  0  0  0
  8 40  1  0  0  0  0
  8 41  1  0  0  0  0
  9 42  1  0  0  0  0
  9 43  1  0  0  0  0
 10 44  1  0  0  0  0
 10 45  1  0  0  0  0
 11 46  1  0  0  0  0
 11 47  1  0  0  0  0
 15 48  1  0  0  0  0
 15 49  1  0  0  0  0
 16 50  1  0  0  0  0
 17 51  1  0  0  0  0
 18 52  1  0  0  0  0
 20 53  1  0  0  0  0
 20 54  1  0  0  0  0
 21 55  1  0  0  0  0
 22 56  1  0  0  0  0
 23 57  1  0  0  0  0
 24 58  1  0  0  0  0
M  END
>  <InChIKey>
InChI=1S/C18H34O6/c1-2-3-4-5-6-7-8-9-10-11-16(21)23-13-15(20)18-17(22)14(19)12-24-18/h14-15,17-20,22H,2-13H2,1H3

>  <CASRN>
1338-39-2

> <Outcome>
1

>  <Index>
2122

>  <StandardizerResult>
Clear Stereo (ID: ClearStereo)
Wedge Clean (ID: WedgeClean)
Mesomerize (ID: Mesomerize)
Tautomerize (ID: Tautomerize)
Add Explicit Hydrogens (ID: AddExplicitH)
Neutralize (ID: Neutralize)
Clean 2D (ID: Clean2D)

> <knn Distance>


> <CpId>
2122

$$$$
2124
  Mrv1532301301811342D          

 18 17  0  0  0  0            999 V2000
    1.7605    1.8434    0.0000 C   0  0  0  0  0  0  0  0  0  0  0  0
    2.4750    1.4309    0.0000 C   0  0  0  0  0  0  0  0  0  0  0  0
    3.1895    1.8434    0.0000 O   0  0  0  0  0  0  0  0  0  0  0  0
    3.9039    1.4309    0.0000 P   0  3  0  0  0  0  0  0  0  0  0  0
    3.9039    0.6059    0.0000 O   0  0  0  0  0  0  0  0  0  0  0  0
    4.6184    1.8434    0.0000 O   0  0  0  0  0  0  0  0  0  0  0  0
    5.3329    1.4309    0.0000 C   0  0  0  0  0  0  0  0  0  0  0  0
    6.0474    1.8434    0.0000 C   0  0  0  0  0  0  0  0  0  0  0  0
    2.1730    2.5578    0.0000 H   0  0  0  0  0  0  0  0  0  0  0  0
    1.0461    2.2559    0.0000 H   0  0  0  0  0  0  0  0  0  0  0  0
    1.3480    1.1289    0.0000 H   0  0  0  0  0  0  0  0  0  0  0  0
    2.1047    0.6936    0.0000 H   0  0  0  0  0  0  0  0  0  0  0  0
    2.8453    0.6936    0.0000 H   0  0  0  0  0  0  0  0  0  0  0  0
    4.9626    0.6936    0.0000 H   0  0  0  0  0  0  0  0  0  0  0  0
    5.7031    0.6936    0.0000 H   0  0  0  0  0  0  0  0  0  0  0  0
    6.4599    1.1289    0.0000 H   0  0  0  0  0  0  0  0  0  0  0  0
    6.7618    2.2559    0.0000 H   0  0  0  0  0  0  0  0  0  0  0  0
    5.6349    2.5578    0.0000 H   0  0  0  0  0  0  0  0  0  0  0  0
  1  2  1  0  0  0  0
  2  3  1  0  0  0  0
  3  4  1  0  0  0  0
  4  5  2  0  0  0  0
  4  6  1  0  0  0  0
  6  7  1  0  0  0  0
  7  8  1  0  0  0  0
  1  9  1  0  0  0  0
  1 10  1  0  0  0  0
  1 11  1  0  0  0  0
  2 12  1  0  0  0  0
  2 13  1  0  0  0  0
  7 14  1  0  0  0  0
  7 15  1  0  0  0  0
  8 16  1  0  0  0  0
  8 17  1  0  0  0  0
  8 18  1  0  0  0  0
M  CHG  1   4   1
M  END
>  <InChIKey>
InChI=1S/C4H10O3P/c1-3-6-8(5)7-4-2/h3-4H2,1-2H3/q+1

>  <CASRN>
762-04-9

> <Outcome>
1

>  <Index>
2124

>  <StandardizerResult>
Clear Stereo (ID: ClearStereo)
Wedge Clean (ID: WedgeClean)
Mesomerize (ID: Mesomerize)
Tautomerize (ID: Tautomerize)
Add Explicit Hydrogens (ID: AddExplicitH)
Clean 2D (ID: Clean2D)

> <knn Distance>


> <CpId>
2124

$$$$
2125
  Mrv1532301301811342D          

 16 16  0  0  0  0            999 V2000
   -0.0000    2.4750    0.0000 Cl  0  0  0  0  0  0  0  0  0  0  0  0
    0.7145    2.0625    0.0000 C   0  0  0  0  0  0  0  0  0  0  0  0
    1.4289    2.4750    0.0000 O   0  0  0  0  0  0  0  0  0  0  0  0
    0.7145    1.2375    0.0000 C   0  0  0  0  0  0  0  0  0  0  0  0
    1.4289    0.8250    0.0000 C   0  0  0  0  0  0  0  0  0  0  0  0
    1.4289   -0.0000    0.0000 C   0  0  0  0  0  0  0  0  0  0  0  0
    0.7145   -0.4125    0.0000 C   0  0  0  0  0  0  0  0  0  0  0  0
   -0.0000    0.0000    0.0000 C   0  0  0  0  0  0  0  0  0  0  0  0
   -0.0000    0.8250    0.0000 C   0  0  0  0  0  0  0  0  0  0  0  0
    0.7145   -1.2375    0.0000 C   0  0  0  0  0  0  0  0  0  0  0  0
    1.4289   -1.6500    0.0000 Cl  0  0  0  0  0  0  0  0  0  0  0  0
   -0.0000   -1.6500    0.0000 O   0  0  0  0  0  0  0  0  0  0  0  0
    2.1434    1.2375    0.0000 H   0  0  0  0  0  0  0  0  0  0  0  0
    2.1434   -0.4125    0.0000 H   0  0  0  0  0  0  0  0  0  0  0  0
   -0.7145   -0.4125    0.0000 H   0  0  0  0  0  0  0  0  0  0  0  0
   -0.7145    1.2375    0.0000 H   0  0  0  0  0  0  0  0  0  0  0  0
  1  2  1  0  0  0  0
  2  3  2  0  0  0  0
  2  4  1  0  0  0  0
  4  5  4  0  0  0  0
  5  6  4  0  0  0  0
  6  7  4  0  0  0  0
  7  8  4  0  0  0  0
  8  9  4  0  0  0  0
  4  9  4  0  0  0  0
  7 10  1  0  0  0  0
 10 11  1  0  0  0  0
 10 12  2  0  0  0  0
  5 13  1  0  0  0  0
  6 14  1  0  0  0  0
  8 15  1  0  0  0  0
  9 16  1  0  0  0  0
M  END
>  <InChIKey>
InChI=1S/C8H4Cl2O2/c9-7(11)5-1-2-6(4-3-5)8(10)12/h1-4H

>  <CASRN>
100-20-9

> <Outcome>
1

>  <Index>
2125

>  <StandardizerResult>
Dearomatize (ID: Dearomatize)
Clear Stereo (ID: ClearStereo)
Wedge Clean (ID: WedgeClean)
Mesomerize (ID: Mesomerize)
Tautomerize (ID: Tautomerize)
Aromatize (ID: Aromatize)
Add Explicit Hydrogens (ID: AddExplicitH)
Neutralize (ID: Neutralize)
Clean 2D (ID: Clean2D)

> <knn Distance>


> <CpId>
2125

$$$$
2128
  Mrv1532301301811342D          

 18 18  0  0  0  0            999 V2000
    0.7145    2.0625    0.0000 N   0  0  0  0  0  0  0  0  0  0  0  0
    0.7145    1.2375    0.0000 C   0  0  0  0  0  0  0  0  0  0  0  0
    1.4289    0.8250    0.0000 C   0  0  0  0  0  0  0  0  0  0  0  0
    1.4289   -0.0000    0.0000 C   0  0  0  0  0  0  0  0  0  0  0  0
    0.7145   -0.4125    0.0000 C   0  0  0  0  0  0  0  0  0  0  0  0
   -0.0000   -0.0000    0.0000 C   0  0  0  0  0  0  0  0  0  0  0  0
   -0.0000    0.8250    0.0000 C   0  0  0  0  0  0  0  0  0  0  0  0
   -0.7145    1.2375    0.0000 N   0  0  0  0  0  0  0  0  0  0  0  0
   -0.7145    2.0625    0.0000 O   0  0  0  0  0  0  0  0  0  0  0  0
   -1.4289    0.8250    0.0000 O   0  0  0  0  0  0  0  0  0  0  0  0
    0.7145   -1.2375    0.0000 N   0  0  0  0  0  0  0  0  0  0  0  0
    1.4289   -1.6500    0.0000 O   0  0  0  0  0  0  0  0  0  0  0  0
   -0.0000   -1.6500    0.0000 O   0  0  0  0  0  0  0  0  0  0  0  0
    1.4289    2.4750    0.0000 H   0  0  0  0  0  0  0  0  0  0  0  0
   -0.0000    2.4750    0.0000 H   0  0  0  0  0  0  0  0  0  0  0  0
    2.1434    1.2375    0.0000 H   0  0  0  0  0  0  0  0  0  0  0  0
    2.1434   -0.4125    0.0000 H   0  0  0  0  0  0  0  0  0  0  0  0
   -0.7145   -0.4125    0.0000 H   0  0  0  0  0  0  0  0  0  0  0  0
  1  2  1  0  0  0  0
  2  3  4  0  0  0  0
  3  4  4  0  0  0  0
  4  5  4  0  0  0  0
  5  6  4  0  0  0  0
  6  7  4  0  0  0  0
  2  7  4  0  0  0  0
  7  8  1  0  0  0  0
  8  9  2  0  0  0  0
  8 10  2  0  0  0  0
  5 11  1  0  0  0  0
 11 12  2  0  0  0  0
 11 13  2  0  0  0  0
  1 14  1  0  0  0  0
  1 15  1  0  0  0  0
  3 16  1  0  0  0  0
  4 17  1  0  0  0  0
  6 18  1  0  0  0  0
M  END
>  <InChIKey>
InChI=1S/C6H5N3O4/c7-5-2-1-4(8(10)11)3-6(5)9(12)13/h1-3H,7H2

>  <CASRN>
97-02-9

> <Outcome>
1

>  <Index>
2128

>  <StandardizerResult>
Dearomatize (ID: Dearomatize)
Clear Stereo (ID: ClearStereo)
Wedge Clean (ID: WedgeClean)
Mesomerize (ID: Mesomerize)
Tautomerize (ID: Tautomerize)
Aromatize (ID: Aromatize)
Add Explicit Hydrogens (ID: AddExplicitH)
Neutralize (ID: Neutralize)
Clean 2D (ID: Clean2D)

> <knn Distance>


> <CpId>
2128

$$$$
2130
  Mrv1532301301811342D          

  7  6  0  0  0  0            999 V2000
    1.2375    0.7145    0.0000 C   0  0  0  0  0  0  0  0  0  0  0  0
    0.8250    0.0000    0.0000 N   0  0  0  0  0  0  0  0  0  0  0  0
    1.2375   -0.7145    0.0000 O   0  0  0  0  0  0  0  0  0  0  0  0
   -0.0000    0.0000    0.0000 O   0  0  0  0  0  0  0  0  0  0  0  0
    1.9520    0.3020    0.0000 H   0  0  0  0  0  0  0  0  0  0  0  0
    1.6500    1.4290    0.0000 H   0  0  0  0  0  0  0  0  0  0  0  0
    0.5230    1.1270    0.0000 H   0  0  0  0  0  0  0  0  0  0  0  0
  1  2  1  0  0  0  0
  2  3  2  0  0  0  0
  2  4  2  0  0  0  0
  1  5  1  0  0  0  0
  1  6  1  0  0  0  0
  1  7  1  0  0  0  0
M  END
>  <InChIKey>
InChI=1S/CH3NO2/c1-2(3)4/h1H3

>  <CASRN>
75-52-5

> <Outcome>
1

>  <Index>
2130

>  <StandardizerResult>
Clear Stereo (ID: ClearStereo)
Wedge Clean (ID: WedgeClean)
Mesomerize (ID: Mesomerize)
Tautomerize (ID: Tautomerize)
Add Explicit Hydrogens (ID: AddExplicitH)
Neutralize (ID: Neutralize)
Clean 2D (ID: Clean2D)

> <knn Distance>


> <CpId>
2130

$$$$
2139
  Mrv1532301301811342D          

 45 46  0  0  0  0            999 V2000
    6.4623    0.2866    0.0000 C   0  0  0  0  0  0  0  0  0  0  0  0
    6.2642   -0.5143    0.0000 C   0  0  0  0  0  0  0  0  0  0  0  0
    6.8587   -1.0863    0.0000 C   0  0  0  0  0  0  0  0  0  0  0  0
    7.6513   -0.8575    0.0000 C   0  0  0  0  0  0  0  0  0  0  0  0
    8.2458   -1.4295    0.0000 C   0  0  0  0  0  0  0  0  0  0  0  0
    8.0476   -2.2304    0.0000 C   0  0  0  0  0  0  0  0  0  0  0  0
    8.6421   -2.8024    0.0000 O   0  0  0  0  0  0  0  0  0  0  0  0
    7.2550   -2.4592    0.0000 C   0  0  0  0  0  0  0  0  0  0  0  0
    7.0568   -3.2600    0.0000 C   0  0  0  0  0  0  0  0  0  0  0  0
    6.2642   -3.4888    0.0000 C   0  0  0  0  0  0  0  0  0  0  0  0
    5.6697   -2.9168    0.0000 C   0  0  0  0  0  0  0  0  0  0  0  0
    4.8771   -3.1456    0.0000 C   0  0  0  0  0  0  0  0  0  0  0  0
    4.2826   -2.5736    0.0000 C   0  0  0  0  0  0  0  0  0  0  0  0
    3.4900   -2.8024    0.0000 C   0  0  0  0  0  0  0  0  0  0  0  0
    2.8955   -2.2304    0.0000 C   0  0  0  0  0  0  0  0  0  0  0  0
    2.1029   -2.4592    0.0000 O   0  0  0  0  0  0  0  0  0  0  0  0
    3.0937   -1.4295    0.0000 C   0  0  0  0  0  0  0  0  0  0  0  0
    3.8863   -1.2007    0.0000 C   0  0  0  0  0  0  0  0  0  0  0  0
    4.0844   -0.3999    0.0000 O   0  0  0  0  0  0  0  0  0  0  0  0
    4.4808   -1.7727    0.0000 C   0  0  0  0  0  0  0  0  0  0  0  0
    5.2734   -1.5439    0.0000 C   0  0  0  0  0  0  0  0  0  0  0  0
    5.8679   -2.1160    0.0000 O   0  0  0  0  0  0  0  0  0  0  0  0
    5.4716   -0.7431    0.0000 O   0  0  0  0  0  0  0  0  0  0  0  0
    7.2632    0.0884    0.0000 H   0  0  0  0  0  0  0  0  0  0  0  0
    6.6605    1.0874    0.0000 H   0  0  0  0  0  0  0  0  0  0  0  0
    5.6615    0.4847    0.0000 H   0  0  0  0  0  0  0  0  0  0  0  0
    5.6697    0.0578    0.0000 H   0  0  0  0  0  0  0  0  0  0  0  0
    6.3222   -1.7130    0.0000 H   0  0  0  0  0  0  0  0  0  0  0  0
    7.0410   -1.8909    0.0000 H   0  0  0  0  0  0  0  0  0  0  0  0
    8.1878   -0.2307    0.0000 H   0  0  0  0  0  0  0  0  0  0  0  0
    7.4690   -0.0529    0.0000 H   0  0  0  0  0  0  0  0  0  0  0  0
    9.0568   -1.5808    0.0000 H   0  0  0  0  0  0  0  0  0  0  0  0
    8.8514   -0.8693    0.0000 H   0  0  0  0  0  0  0  0  0  0  0  0
    6.4314   -2.5076    0.0000 H   0  0  0  0  0  0  0  0  0  0  0  0
    7.8495   -3.0312    0.0000 H   0  0  0  0  0  0  0  0  0  0  0  0
    7.0007   -4.0831    0.0000 H   0  0  0  0  0  0  0  0  0  0  0  0
    7.5429   -3.9266    0.0000 H   0  0  0  0  0  0  0  0  0  0  0  0
    5.5361   -3.8767    0.0000 H   0  0  0  0  0  0  0  0  0  0  0  0
    5.9707   -4.2599    0.0000 H   0  0  0  0  0  0  0  0  0  0  0  0
    5.0752   -2.3448    0.0000 H   0  0  0  0  0  0  0  0  0  0  0  0
    4.6789   -3.9465    0.0000 H   0  0  0  0  0  0  0  0  0  0  0  0
    3.2918   -3.6032    0.0000 H   0  0  0  0  0  0  0  0  0  0  0  0
    1.5084   -1.8871    0.0000 H   0  0  0  0  0  0  0  0  0  0  0  0
    2.4992   -0.8575    0.0000 H   0  0  0  0  0  0  0  0  0  0  0  0
    4.8771   -0.1710    0.0000 H   0  0  0  0  0  0  0  0  0  0  0  0
  1  2  1  0  0  0  0
  2  3  1  0  0  0  0
  3  4  1  0  0  0  0
  4  5  1  0  0  0  0
  5  6  1  0  0  0  0
  6  7  2  0  0  0  0
  6  8  1  0  0  0  0
  8  9  1  0  0  0  0
  9 10  1  0  0  0  0
 11 10  1  4  0  0  0
 11 12  2  0  0  0  0
 12 13  1  0  0  0  0
 13 14  4  0  0  0  0
 14 15  4  0  0  0  0
 15 16  1  0  0  0  0
 15 17  4  0  0  0  0
 17 18  4  0  0  0  0
 18 19  1  0  0  0  0
 18 20  4  0  0  0  0
 13 20  4  0  0  0  0
 20 21  1  0  0  0  0
 21 22  2  0  0  0  0
 21 23  1  0  0  0  0
  2 23  1  0  0  0  0
  1 24  1  0  0  0  0
  1 25  1  0  0  0  0
  1 26  1  0  0  0  0
  2 27  1  0  0  0  0
  3 28  1  0  0  0  0
  3 29  1  0  0  0  0
  4 30  1  0  0  0  0
  4 31  1  0  0  0  0
  5 32  1  0  0  0  0
  5 33  1  0  0  0  0
  8 34  1  0  0  0  0
  8 35  1  0  0  0  0
  9 36  1  0  0  0  0
  9 37  1  0  0  0  0
 10 38  1  0  0  0  0
 10 39  1  0  0  0  0
 11 40  1  0  0  0  0
 12 41  1  0  0  0  0
 14 42  1  0  0  0  0
 16 43  1  0  0  0  0
 17 44  1  0  0  0  0
 19 45  1  0  0  0  0
M  END
>  <InChIKey>
InChI=1S/C18H22O5/c1-12-6-5-9-14(19)8-4-2-3-7-13-10-15(20)11-16(21)17(13)18(22)23-12/h3,7,10-12,20-21H,2,4-6,8-9H2,1H3

>  <CASRN>
17924-92-4

> <Outcome>
1

>  <Index>
2139

>  <StandardizerResult>
Dearomatize (ID: Dearomatize)
Clear Stereo (ID: ClearStereo)
Wedge Clean (ID: WedgeClean)
Mesomerize (ID: Mesomerize)
Tautomerize (ID: Tautomerize)
Aromatize (ID: Aromatize)
Add Explicit Hydrogens (ID: AddExplicitH)
Neutralize (ID: Neutralize)
Clean 2D (ID: Clean2D)

> <knn Distance>


> <CpId>
2139

$$$$
2144
  Mrv1532301301811342D          

 25 25  0  0  0  0            999 V2000
   -2.1434   -2.0625    0.0000 Cl  0  0  0  0  0  0  0  0  0  0  0  0
   -1.4289   -1.6500    0.0000 C   0  0  0  0  0  0  0  0  0  0  0  0
   -0.7145   -2.0625    0.0000 C   0  0  0  0  0  0  0  0  0  0  0  0
    0.0000   -2.4750    0.0000 C   0  0  0  0  0  0  0  0  0  0  0  0
    0.7145   -2.8875    0.0000 C   0  0  0  0  0  0  0  0  0  0  0  0
    1.4290   -2.4750    0.0000 O   0  0  0  0  0  0  0  0  0  0  0  0
    2.1434   -2.8875    0.0000 C   0  0  0  0  0  0  0  0  0  0  0  0
    2.1434   -3.7125    0.0000 O   0  0  0  0  0  0  0  0  0  0  0  0
    2.8579   -2.4750    0.0000 N   0  0  0  0  0  0  0  0  0  0  0  0
    3.5724   -2.8875    0.0000 C   0  0  0  0  0  0  0  0  0  0  0  0
    4.2868   -2.4750    0.0000 C   0  0  0  0  0  0  0  0  0  0  0  0
    5.0013   -2.8875    0.0000 C   0  0  0  0  0  0  0  0  0  0  0  0
    5.0013   -3.7125    0.0000 C   0  0  0  0  0  0  0  0  0  0  0  0
    4.2868   -4.1250    0.0000 C   0  0  0  0  0  0  0  0  0  0  0  0
    4.2868   -4.9500    0.0000 Cl  0  0  0  0  0  0  0  0  0  0  0  0
    3.5724   -3.7125    0.0000 C   0  0  0  0  0  0  0  0  0  0  0  0
   -1.0587   -0.9128    0.0000 H   0  0  0  0  0  0  0  0  0  0  0  0
   -1.7992   -0.9128    0.0000 H   0  0  0  0  0  0  0  0  0  0  0  0
    0.3442   -3.6247    0.0000 H   0  0  0  0  0  0  0  0  0  0  0  0
    1.0847   -3.6247    0.0000 H   0  0  0  0  0  0  0  0  0  0  0  0
    2.8579   -1.6500    0.0000 H   0  0  0  0  0  0  0  0  0  0  0  0
    4.2868   -1.6500    0.0000 H   0  0  0  0  0  0  0  0  0  0  0  0
    5.7158   -2.4750    0.0000 H   0  0  0  0  0  0  0  0  0  0  0  0
    5.7158   -4.1250    0.0000 H   0  0  0  0  0  0  0  0  0  0  0  0
    2.8579   -4.1250    0.0000 H   0  0  0  0  0  0  0  0  0  0  0  0
  1  2  1  0  0  0  0
  2  3  1  0  0  0  0
  3  4  3  0  0  0  0
  4  5  1  0  0  0  0
  5  6  1  0  0  0  0
  6  7  1  0  0  0  0
  7  8  2  0  0  0  0
  7  9  1  0  0  0  0
  9 10  1  0  0  0  0
 10 11  4  0  0  0  0
 11 12  4  0  0  0  0
 12 13  4  0  0  0  0
 13 14  4  0  0  0  0
 14 15  1  0  0  0  0
 14 16  4  0  0  0  0
 10 16  4  0  0  0  0
  2 17  1  0  0  0  0
  2 18  1  0  0  0  0
  5 19  1  0  0  0  0
  5 20  1  0  0  0  0
  9 21  1  0  0  0  0
 11 22  1  0  0  0  0
 12 23  1  0  0  0  0
 13 24  1  0  0  0  0
 16 25  1  0  0  0  0
M  END
>  <InChIKey>
InChI=1S/C11H9Cl2NO2/c12-6-1-2-7-16-11(15)14-10-5-3-4-9(13)8-10/h3-5,8H,6-7H2,(H,14,15)

>  <CASRN>
101-27-9

> <Outcome>
1

>  <Index>
2144

>  <StandardizerResult>
Dearomatize (ID: Dearomatize)
Clear Stereo (ID: ClearStereo)
Wedge Clean (ID: WedgeClean)
Mesomerize (ID: Mesomerize)
Tautomerize (ID: Tautomerize)
Aromatize (ID: Aromatize)
Add Explicit Hydrogens (ID: AddExplicitH)
Neutralize (ID: Neutralize)
Clean 2D (ID: Clean2D)

> <knn Distance>


> <CpId>
2144

$$$$
2145
  Mrv1532301301811342D          

 10  9  0  0  0  0            999 V2000
    0.8233    1.4290    0.0000 C   0  0  0  0  0  0  0  0  0  0  0  0
    1.2358    0.7145    0.0000 C   0  0  0  0  0  0  0  0  0  0  0  0
    0.8233    0.0000    0.0000 N   0  0  0  0  0  0  0  0  0  0  0  0
    1.2358   -0.7144    0.0000 O   0  0  0  0  0  0  0  0  0  0  0  0
   -0.0017    0.0000    0.0000 O   0  0  0  0  0  0  0  0  0  0  0  0
    1.5378    1.8415    0.0000 H   0  0  0  0  0  0  0  0  0  0  0  0
    0.4108    2.1435    0.0000 H   0  0  0  0  0  0  0  0  0  0  0  0
    0.1088    1.0165    0.0000 H   0  0  0  0  0  0  0  0  0  0  0  0
    1.9730    0.3443    0.0000 H   0  0  0  0  0  0  0  0  0  0  0  0
    1.9730    1.0848    0.0000 H   0  0  0  0  0  0  0  0  0  0  0  0
  1  2  1  0  0  0  0
  2  3  1  0  0  0  0
  3  4  2  0  0  0  0
  3  5  2  0  0  0  0
  1  6  1  0  0  0  0
  1  7  1  0  0  0  0
  1  8  1  0  0  0  0
  2  9  1  0  0  0  0
  2 10  1  0  0  0  0
M  END
>  <InChIKey>
InChI=1S/C2H5NO2/c1-2-3(4)5/h2H2,1H3

>  <CASRN>
79-24-3

> <Outcome>
1

>  <Index>
2145

>  <StandardizerResult>
Clear Stereo (ID: ClearStereo)
Wedge Clean (ID: WedgeClean)
Mesomerize (ID: Mesomerize)
Tautomerize (ID: Tautomerize)
Add Explicit Hydrogens (ID: AddExplicitH)
Neutralize (ID: Neutralize)
Clean 2D (ID: Clean2D)

> <knn Distance>


> <CpId>
2145

$$$$
2147
  Mrv1532301301811342D          

 23 22  0  0  0  0            999 V2000
    1.4532   -4.6705    0.0000 Cl  0  0  0  0  0  0  0  0  0  0  0  0
    1.4532   -3.8455    0.0000 C   0  0  0  0  0  0  0  0  0  0  0  0
    0.7387   -3.4330    0.0000 C   0  0  0  0  0  0  0  0  0  0  0  0
    0.0243   -3.8455    0.0000 O   0  0  0  0  0  0  0  0  0  0  0  0
    0.7387   -2.6080    0.0000 N   0  0  0  0  0  0  0  0  0  0  0  0
    0.0243   -2.1955    0.0000 C   0  0  0  0  0  0  0  0  0  0  0  0
    0.0243   -1.3705    0.0000 C   0  0  0  0  0  0  0  0  0  0  0  0
   -0.6902   -0.9580    0.0000 C   0  0  0  0  0  0  0  0  0  0  0  0
    1.4532   -2.1955    0.0000 C   0  0  0  0  0  0  0  0  0  0  0  0
    1.4532   -1.3705    0.0000 C   0  0  0  0  0  0  0  0  0  0  0  0
    2.1677   -0.9580    0.0000 C   0  0  0  0  0  0  0  0  0  0  0  0
    2.2768   -3.7975    0.0000 H   0  0  0  0  0  0  0  0  0  0  0  0
    1.9065   -3.1562    0.0000 H   0  0  0  0  0  0  0  0  0  0  0  0
   -0.7993   -2.2434    0.0000 H   0  0  0  0  0  0  0  0  0  0  0  0
   -0.4291   -2.8847    0.0000 H   0  0  0  0  0  0  0  0  0  0  0  0
    0.7387   -0.9580    0.0000 H   0  0  0  0  0  0  0  0  0  0  0  0
   -0.6902   -0.1330    0.0000 H   0  0  0  0  0  0  0  0  0  0  0  0
   -1.4047   -1.3705    0.0000 H   0  0  0  0  0  0  0  0  0  0  0  0
    1.9065   -2.8847    0.0000 H   0  0  0  0  0  0  0  0  0  0  0  0
    2.2768   -2.2434    0.0000 H   0  0  0  0  0  0  0  0  0  0  0  0
    0.7387   -1.7830    0.0000 H   0  0  0  0  0  0  0  0  0  0  0  0
    2.8821   -1.3705    0.0000 H   0  0  0  0  0  0  0  0  0  0  0  0
    2.1677   -0.1330    0.0000 H   0  0  0  0  0  0  0  0  0  0  0  0
  1  2  1  0  0  0  0
  2  3  1  0  0  0  0
  3  4  2  0  0  0  0
  3  5  1  0  0  0  0
  5  6  1  0  0  0  0
  6  7  1  0  0  0  0
  7  8  2  0  0  0  0
  5  9  1  0  0  0  0
  9 10  1  0  0  0  0
 10 11  2  0  0  0  0
  2 12  1  0  0  0  0
  2 13  1  0  0  0  0
  6 14  1  0  0  0  0
  6 15  1  0  0  0  0
  7 16  1  0  0  0  0
  8 17  1  0  0  0  0
  8 18  1  0  0  0  0
  9 19  1  0  0  0  0
  9 20  1  0  0  0  0
 10 21  1  0  0  0  0
 11 22  1  0  0  0  0
 11 23  1  0  0  0  0
M  END
>  <InChIKey>
InChI=1S/C8H12ClNO/c1-3-5-10(6-4-2)8(11)7-9/h3-4H,1-2,5-7H2

>  <CASRN>
93-71-0

> <Outcome>
1

>  <Index>
2147

>  <StandardizerResult>
Clear Stereo (ID: ClearStereo)
Wedge Clean (ID: WedgeClean)
Mesomerize (ID: Mesomerize)
Tautomerize (ID: Tautomerize)
Add Explicit Hydrogens (ID: AddExplicitH)
Neutralize (ID: Neutralize)
Clean 2D (ID: Clean2D)

> <knn Distance>


> <CpId>
2147

$$$$
2151
  Mrv1532301301811342D          

 27 28  0  0  0  0            999 V2000
    2.0765   -0.4563    0.0000 O   0  0  0  0  0  0  0  0  0  0  0  0
    2.0765   -1.2813    0.0000 C   0  0  0  0  0  0  0  0  0  0  0  0
    1.3620   -1.6938    0.0000 C   0  0  0  0  0  0  0  0  0  0  0  0
    1.3620   -2.5188    0.0000 C   0  0  0  0  0  0  0  0  0  0  0  0
    2.0765   -2.9313    0.0000 C   0  0  0  0  0  0  0  0  0  0  0  0
    2.0765   -3.7563    0.0000 Cl  0  0  0  0  0  0  0  0  0  0  0  0
    2.7909   -2.5188    0.0000 C   0  0  0  0  0  0  0  0  0  0  0  0
    2.7909   -1.6938    0.0000 C   0  0  0  0  0  0  0  0  0  0  0  0
    3.5054   -1.2813    0.0000 C   0  0  0  0  0  0  0  0  0  0  0  0
    4.2199   -1.6938    0.0000 C   0  0  0  0  0  0  0  0  0  0  0  0
    4.9343   -1.2813    0.0000 C   0  0  0  0  0  0  0  0  0  0  0  0
    5.6488   -1.6938    0.0000 C   0  0  0  0  0  0  0  0  0  0  0  0
    6.3633   -1.2813    0.0000 Cl  0  0  0  0  0  0  0  0  0  0  0  0
    5.6488   -2.5188    0.0000 C   0  0  0  0  0  0  0  0  0  0  0  0
    4.9343   -2.9313    0.0000 C   0  0  0  0  0  0  0  0  0  0  0  0
    4.2199   -2.5188    0.0000 C   0  0  0  0  0  0  0  0  0  0  0  0
    3.5054   -2.9313    0.0000 O   0  0  0  0  0  0  0  0  0  0  0  0
    2.7909   -0.0438    0.0000 H   0  0  0  0  0  0  0  0  0  0  0  0
    0.6475   -1.2813    0.0000 H   0  0  0  0  0  0  0  0  0  0  0  0
    0.6475   -2.9313    0.0000 H   0  0  0  0  0  0  0  0  0  0  0  0
    3.5054   -2.1063    0.0000 H   0  0  0  0  0  0  0  0  0  0  0  0
    3.8757   -0.5441    0.0000 H   0  0  0  0  0  0  0  0  0  0  0  0
    3.1351   -0.5441    0.0000 H   0  0  0  0  0  0  0  0  0  0  0  0
    4.9343   -0.4563    0.0000 H   0  0  0  0  0  0  0  0  0  0  0  0
    6.3633   -2.9313    0.0000 H   0  0  0  0  0  0  0  0  0  0  0  0
    4.9343   -3.7563    0.0000 H   0  0  0  0  0  0  0  0  0  0  0  0
    3.5054   -3.7563    0.0000 H   0  0  0  0  0  0  0  0  0  0  0  0
  1  2  1  0  0  0  0
  2  3  4  0  0  0  0
  3  4  4  0  0  0  0
  4  5  4  0  0  0  0
  5  6  1  0  0  0  0
  5  7  4  0  0  0  0
  7  8  4  0  0  0  0
  2  8  4  0  0  0  0
  8  9  1  0  0  0  0
  9 10  1  0  0  0  0
 10 11  4  0  0  0  0
 11 12  4  0  0  0  0
 12 13  1  0  0  0  0
 12 14  4  0  0  0  0
 14 15  4  0  0  0  0
 15 16  4  0  0  0  0
 10 16  4  0  0  0  0
 16 17  1  0  0  0  0
  1 18  1  0  0  0  0
  3 19  1  0  0  0  0
  4 20  1  0  0  0  0
  7 21  1  0  0  0  0
  9 22  1  0  0  0  0
  9 23  1  0  0  0  0
 11 24  1  0  0  0  0
 14 25  1  0  0  0  0
 15 26  1  0  0  0  0
 17 27  1  0  0  0  0
M  END
>  <InChIKey>
InChI=1S/C13H10Cl2O2/c14-10-1-3-12(16)8(6-10)5-9-7-11(15)2-4-13(9)17/h1-4,6-7,16-17H,5H2

>  <CASRN>
97-23-4

> <Outcome>
1

>  <Index>
2151

>  <StandardizerResult>
Dearomatize (ID: Dearomatize)
Clear Stereo (ID: ClearStereo)
Wedge Clean (ID: WedgeClean)
Mesomerize (ID: Mesomerize)
Tautomerize (ID: Tautomerize)
Aromatize (ID: Aromatize)
Add Explicit Hydrogens (ID: AddExplicitH)
Neutralize (ID: Neutralize)
Clean 2D (ID: Clean2D)

> <knn Distance>


> <CpId>
2151

$$$$
2153
  Mrv1532301301811342D          

 27 27  0  0  0  0            999 V2000
   -0.1290    2.3491    0.0000 C   0  0  0  0  0  0  0  0  0  0  0  0
    0.5854    1.9366    0.0000 O   0  0  0  0  0  0  0  0  0  0  0  0
    0.5854    1.1116    0.0000 C   0  0  0  0  0  0  0  0  0  0  0  0
    1.2529    0.6267    0.0000 N   0  0  0  0  0  0  0  0  0  0  0  0
    0.9979   -0.1580    0.0000 N   0  0  0  0  0  0  0  0  0  0  0  0
    1.4829   -0.8254    0.0000 C   0  0  0  0  0  0  0  0  0  0  0  0
    2.3033   -0.7392    0.0000 S   0  0  0  0  0  0  0  0  0  0  0  0
    2.7883   -1.4066    0.0000 P   0  0  0  0  0  0  0  0  0  0  0  0
    2.1208   -1.8915    0.0000 S   0  0  0  0  0  0  0  0  0  0  0  0
    3.2732   -2.0740    0.0000 O   0  0  0  0  0  0  0  0  0  0  0  0
    4.0937   -1.9878    0.0000 C   0  0  0  0  0  0  0  0  0  0  0  0
    3.4557   -0.9217    0.0000 O   0  0  0  0  0  0  0  0  0  0  0  0
    4.2094   -1.2572    0.0000 C   0  0  0  0  0  0  0  0  0  0  0  0
    0.1729   -0.1580    0.0000 C   0  0  0  0  0  0  0  0  0  0  0  0
   -0.3120   -0.8254    0.0000 O   0  0  0  0  0  0  0  0  0  0  0  0
   -0.0820    0.6267    0.0000 S   0  0  0  0  0  0  0  0  0  0  0  0
    0.2835    3.0636    0.0000 H   0  0  0  0  0  0  0  0  0  0  0  0
   -0.8435    2.7616    0.0000 H   0  0  0  0  0  0  0  0  0  0  0  0
   -0.5415    1.6346    0.0000 H   0  0  0  0  0  0  0  0  0  0  0  0
    0.8447   -1.3483    0.0000 H   0  0  0  0  0  0  0  0  0  0  0  0
    1.5212   -1.6495    0.0000 H   0  0  0  0  0  0  0  0  0  0  0  0
    3.8081   -2.7618    0.0000 H   0  0  0  0  0  0  0  0  0  0  0  0
    4.6616   -2.5862    0.0000 H   0  0  0  0  0  0  0  0  0  0  0  0
    4.8816   -1.7432    0.0000 H   0  0  0  0  0  0  0  0  0  0  0  0
    4.8528   -0.7408    0.0000 H   0  0  0  0  0  0  0  0  0  0  0  0
    4.3329   -0.4415    0.0000 H   0  0  0  0  0  0  0  0  0  0  0  0
    3.4844   -1.6509    0.0000 H   0  0  0  0  0  0  0  0  0  0  0  0
  1  2  1  0  0  0  0
  2  3  1  0  0  0  0
  3  4  2  0  0  0  0
  4  5  1  0  0  0  0
  5  6  1  0  0  0  0
  6  7  1  0  0  0  0
  7  8  1  0  0  0  0
  8  9  2  0  0  0  0
  8 10  1  0  0  0  0
 10 11  1  0  0  0  0
  8 12  1  0  0  0  0
 12 13  1  0  0  0  0
  5 14  1  0  0  0  0
 14 15  2  0  0  0  0
 14 16  1  0  0  0  0
  3 16  1  0  0  0  0
  1 17  1  0  0  0  0
  1 18  1  0  0  0  0
  1 19  1  0  0  0  0
  6 20  1  0  0  0  0
  6 21  1  0  0  0  0
 11 22  1  0  0  0  0
 11 23  1  0  0  0  0
 11 24  1  0  0  0  0
 13 25  1  0  0  0  0
 13 26  1  0  0  0  0
 13 27  1  0  0  0  0
M  END
>  <InChIKey>
InChI=1S/C6H11N2O4PS3/c1-10-5-7-8(6(9)16-5)4-15-13(14,11-2)12-3/h4H2,1-3H3

>  <CASRN>
950-37-8

> <Outcome>
1

>  <Index>
2153

>  <StandardizerResult>
Dearomatize (ID: Dearomatize)
Clear Stereo (ID: ClearStereo)
Wedge Clean (ID: WedgeClean)
Mesomerize (ID: Mesomerize)
Tautomerize (ID: Tautomerize)
Add Explicit Hydrogens (ID: AddExplicitH)
Neutralize (ID: Neutralize)
Clean 2D (ID: Clean2D)

> <knn Distance>


> <CpId>
2153

$$$$
2154
  Mrv1532301301811342D          

 19 19  0  0  0  0            999 V2000
   -0.7145    3.7125    0.0000 O   0  0  0  0  0  0  0  0  0  0  0  0
   -0.0000    3.3000    0.0000 C   0  0  0  0  0  0  0  0  0  0  0  0
    0.7145    3.7125    0.0000 O   0  0  0  0  0  0  0  0  0  0  0  0
   -0.0000    2.4750    0.0000 C   0  0  0  0  0  0  0  0  0  0  0  0
    0.7145    2.0625    0.0000 C   0  0  0  0  0  0  0  0  0  0  0  0
    0.7145    1.2375    0.0000 C   0  0  0  0  0  0  0  0  0  0  0  0
    1.4289    0.8250    0.0000 C   0  0  0  0  0  0  0  0  0  0  0  0
    1.4289   -0.0000    0.0000 C   0  0  0  0  0  0  0  0  0  0  0  0
    0.7145   -0.4125    0.0000 C   0  0  0  0  0  0  0  0  0  0  0  0
    0.7145   -1.2375    0.0000 Cl  0  0  0  0  0  0  0  0  0  0  0  0
   -0.0000   -0.0000    0.0000 C   0  0  0  0  0  0  0  0  0  0  0  0
   -0.0000    0.8250    0.0000 C   0  0  0  0  0  0  0  0  0  0  0  0
   -0.7145    1.2375    0.0000 Cl  0  0  0  0  0  0  0  0  0  0  0  0
   -0.7145    4.5375    0.0000 H   0  0  0  0  0  0  0  0  0  0  0  0
   -0.7145    2.0625    0.0000 H   0  0  0  0  0  0  0  0  0  0  0  0
    1.4289    2.4750    0.0000 H   0  0  0  0  0  0  0  0  0  0  0  0
    2.1434    1.2375    0.0000 H   0  0  0  0  0  0  0  0  0  0  0  0
    2.1434   -0.4125    0.0000 H   0  0  0  0  0  0  0  0  0  0  0  0
   -0.7145   -0.4125    0.0000 H   0  0  0  0  0  0  0  0  0  0  0  0
  1  2  1  0  0  0  0
  2  3  2  0  0  0  0
  4  2  1  4  0  0  0
  4  5  2  0  0  0  0
  5  6  1  0  0  0  0
  6  7  4  0  0  0  0
  7  8  4  0  0  0  0
  8  9  4  0  0  0  0
  9 10  1  0  0  0  0
  9 11  4  0  0  0  0
 11 12  4  0  0  0  0
  6 12  4  0  0  0  0
 12 13  1  0  0  0  0
  1 14  1  0  0  0  0
  4 15  1  0  0  0  0
  5 16  1  0  0  0  0
  7 17  1  0  0  0  0
  8 18  1  0  0  0  0
 11 19  1  0  0  0  0
M  END
>  <InChIKey>
InChI=1S/C9H6Cl2O2/c10-7-3-1-6(8(11)5-7)2-4-9(12)13/h1-5H,(H,12,13)

>  <CASRN>
1201-99-6

> <Outcome>
1

>  <Index>
2154

>  <StandardizerResult>
Dearomatize (ID: Dearomatize)
Clear Stereo (ID: ClearStereo)
Wedge Clean (ID: WedgeClean)
Mesomerize (ID: Mesomerize)
Tautomerize (ID: Tautomerize)
Aromatize (ID: Aromatize)
Add Explicit Hydrogens (ID: AddExplicitH)
Neutralize (ID: Neutralize)
Clean 2D (ID: Clean2D)

> <knn Distance>


> <CpId>
2154

$$$$
2160
  Mrv1532301301811342D          

 14 13  0  0  0  0            999 V2000
   -0.1914    0.7146    0.0000 C   0  0  0  0  0  0  0  0  0  0  0  0
    0.5231    1.1271    0.0000 C   0  0  0  0  0  0  0  0  0  0  0  0
    1.2376    0.7146    0.0000 O   0  0  0  0  0  0  0  0  0  0  0  0
    1.9521    1.1271    0.0000 C   0  0  0  0  0  0  0  0  0  0  0  0
    1.9521    1.9521    0.0000 O   0  0  0  0  0  0  0  0  0  0  0  0
    2.6665    0.7146    0.0000 C   0  0  0  0  0  0  0  0  0  0  0  0
    3.3810    1.1271    0.0000 I   0  0  0  0  0  0  0  0  0  0  0  0
   -0.6039    1.4290    0.0000 H   0  0  0  0  0  0  0  0  0  0  0  0
   -0.9058    0.3021    0.0000 H   0  0  0  0  0  0  0  0  0  0  0  0
    0.2211    0.0001    0.0000 H   0  0  0  0  0  0  0  0  0  0  0  0
    0.8934    1.8643    0.0000 H   0  0  0  0  0  0  0  0  0  0  0  0
    0.1529    1.8643    0.0000 H   0  0  0  0  0  0  0  0  0  0  0  0
    2.2963   -0.0227    0.0000 H   0  0  0  0  0  0  0  0  0  0  0  0
    3.0368   -0.0227    0.0000 H   0  0  0  0  0  0  0  0  0  0  0  0
  1  2  1  0  0  0  0
  2  3  1  0  0  0  0
  3  4  1  0  0  0  0
  4  5  2  0  0  0  0
  4  6  1  0  0  0  0
  6  7  1  0  0  0  0
  1  8  1  0  0  0  0
  1  9  1  0  0  0  0
  1 10  1  0  0  0  0
  2 11  1  0  0  0  0
  2 12  1  0  0  0  0
  6 13  1  0  0  0  0
  6 14  1  0  0  0  0
M  END
>  <InChIKey>
InChI=1S/C4H7IO2/c1-2-7-4(6)3-5/h2-3H2,1H3

>  <CASRN>
623-48-3

> <Outcome>
1

>  <Index>
2160

>  <StandardizerResult>
Clear Stereo (ID: ClearStereo)
Wedge Clean (ID: WedgeClean)
Mesomerize (ID: Mesomerize)
Tautomerize (ID: Tautomerize)
Add Explicit Hydrogens (ID: AddExplicitH)
Neutralize (ID: Neutralize)
Clean 2D (ID: Clean2D)

> <knn Distance>


> <CpId>
2160

$$$$
2161
  Mrv1532301301811342D          

 15 15  0  0  0  0            999 V2000
    0.5678    1.9393    0.0000 C   0  0  0  0  0  0  0  0  0  0  0  0
    0.5678    1.1143    0.0000 C   0  0  0  0  0  0  0  0  0  0  0  0
    1.2352    0.6294    0.0000 C   0  0  0  0  0  0  0  0  0  0  0  0
    2.0198    0.8843    0.0000 C   0  0  0  0  0  0  0  0  0  0  0  0
    0.9803   -0.1553    0.0000 C   0  0  0  0  0  0  0  0  0  0  0  0
    1.4652   -0.8227    0.0000 O   0  0  0  0  0  0  0  0  0  0  0  0
    0.1553   -0.1553    0.0000 O   0  0  0  0  0  0  0  0  0  0  0  0
   -0.0997    0.6294    0.0000 C   0  0  0  0  0  0  0  0  0  0  0  0
   -0.8843    0.8843    0.0000 O   0  0  0  0  0  0  0  0  0  0  0  0
    1.3928    1.9393    0.0000 H   0  0  0  0  0  0  0  0  0  0  0  0
    0.5678    2.7643    0.0000 H   0  0  0  0  0  0  0  0  0  0  0  0
   -0.2572    1.9393    0.0000 H   0  0  0  0  0  0  0  0  0  0  0  0
    2.2748    0.0997    0.0000 H   0  0  0  0  0  0  0  0  0  0  0  0
    2.8045    1.1392    0.0000 H   0  0  0  0  0  0  0  0  0  0  0  0
    1.7649    1.6689    0.0000 H   0  0  0  0  0  0  0  0  0  0  0  0
  1  2  1  0  0  0  0
  2  3  2  0  0  0  0
  3  4  1  0  0  0  0
  3  5  1  0  0  0  0
  5  6  2  0  0  0  0
  5  7  1  0  0  0  0
  7  8  1  0  0  0  0
  2  8  1  0  0  0  0
  8  9  2  0  0  0  0
  1 10  1  0  0  0  0
  1 11  1  0  0  0  0
  1 12  1  0  0  0  0
  4 13  1  0  0  0  0
  4 14  1  0  0  0  0
  4 15  1  0  0  0  0
M  END
>  <InChIKey>
InChI=1S/C6H6O3/c1-3-4(2)6(8)9-5(3)7/h1-2H3

>  <CASRN>
766-39-2

> <Outcome>
1

>  <Index>
2161

>  <StandardizerResult>
Clear Stereo (ID: ClearStereo)
Wedge Clean (ID: WedgeClean)
Mesomerize (ID: Mesomerize)
Tautomerize (ID: Tautomerize)
Add Explicit Hydrogens (ID: AddExplicitH)
Neutralize (ID: Neutralize)
Clean 2D (ID: Clean2D)

> <knn Distance>


> <CpId>
2161

$$$$
2163
  Mrv1532301301811342D          

 28 28  0  0  0  0            999 V2000
    1.4532   -2.5589    0.0000 C   0  0  0  0  0  0  0  0  0  0  0  0
    0.7387   -2.1464    0.0000 C   0  0  0  0  0  0  0  0  0  0  0  0
    0.0243   -2.5589    0.0000 C   0  0  0  0  0  0  0  0  0  0  0  0
    0.7387   -1.3214    0.0000 N   0  0  0  0  0  0  0  0  0  0  0  0
    1.4532   -0.9089    0.0000 C   0  0  0  0  0  0  0  0  0  0  0  0
    1.4532   -0.0839    0.0000 O   0  0  0  0  0  0  0  0  0  0  0  0
    2.1677   -1.3214    0.0000 C   0  0  0  0  0  0  0  0  0  0  0  0
    2.8821   -0.9089    0.0000 Cl  0  0  0  0  0  0  0  0  0  0  0  0
    0.0243   -0.9089    0.0000 C   0  0  0  0  0  0  0  0  0  0  0  0
   -0.6902   -1.3214    0.0000 C   0  0  0  0  0  0  0  0  0  0  0  0
   -1.4047   -0.9089    0.0000 C   0  0  0  0  0  0  0  0  0  0  0  0
   -1.4047   -0.0839    0.0000 C   0  0  0  0  0  0  0  0  0  0  0  0
   -0.6902    0.3286    0.0000 C   0  0  0  0  0  0  0  0  0  0  0  0
    0.0243   -0.0839    0.0000 C   0  0  0  0  0  0  0  0  0  0  0  0
    1.0407   -3.2734    0.0000 H   0  0  0  0  0  0  0  0  0  0  0  0
    2.1677   -2.9714    0.0000 H   0  0  0  0  0  0  0  0  0  0  0  0
    1.8657   -1.8445    0.0000 H   0  0  0  0  0  0  0  0  0  0  0  0
    0.7387   -2.9714    0.0000 H   0  0  0  0  0  0  0  0  0  0  0  0
   -0.1893   -1.7620    0.0000 H   0  0  0  0  0  0  0  0  0  0  0  0
   -0.8007   -2.5589    0.0000 H   0  0  0  0  0  0  0  0  0  0  0  0
   -0.1893   -3.3558    0.0000 H   0  0  0  0  0  0  0  0  0  0  0  0
    2.7510   -1.9048    0.0000 H   0  0  0  0  0  0  0  0  0  0  0  0
    2.1677   -0.4964    0.0000 H   0  0  0  0  0  0  0  0  0  0  0  0
   -1.1713   -1.9917    0.0000 H   0  0  0  0  0  0  0  0  0  0  0  0
   -2.1192   -1.3214    0.0000 H   0  0  0  0  0  0  0  0  0  0  0  0
   -2.1192    0.3286    0.0000 H   0  0  0  0  0  0  0  0  0  0  0  0
   -0.6902    1.1536    0.0000 H   0  0  0  0  0  0  0  0  0  0  0  0
    0.7387    0.3286    0.0000 H   0  0  0  0  0  0  0  0  0  0  0  0
  1  2  1  0  0  0  0
  2  3  1  0  0  0  0
  2  4  1  0  0  0  0
  4  5  1  0  0  0  0
  5  6  2  0  0  0  0
  5  7  1  0  0  0  0
  7  8  1  0  0  0  0
  4  9  1  0  0  0  0
  9 10  4  0  0  0  0
 10 11  4  0  0  0  0
 11 12  4  0  0  0  0
 12 13  4  0  0  0  0
 13 14  4  0  0  0  0
  9 14  4  0  0  0  0
  1 15  1  0  0  0  0
  1 16  1  0  0  0  0
  1 17  1  0  0  0  0
  2 18  1  0  0  0  0
  3 19  1  0  0  0  0
  3 20  1  0  0  0  0
  3 21  1  0  0  0  0
  7 22  1  0  0  0  0
  7 23  1  0  0  0  0
 10 24  1  0  0  0  0
 11 25  1  0  0  0  0
 12 26  1  0  0  0  0
 13 27  1  0  0  0  0
 14 28  1  0  0  0  0
M  END
>  <InChIKey>
InChI=1S/C11H14ClNO/c1-9(2)13(11(14)8-12)10-6-4-3-5-7-10/h3-7,9H,8H2,1-2H3

>  <CASRN>
1918-16-7

> <Outcome>
1

>  <Index>
2163

>  <StandardizerResult>
Dearomatize (ID: Dearomatize)
Clear Stereo (ID: ClearStereo)
Wedge Clean (ID: WedgeClean)
Mesomerize (ID: Mesomerize)
Tautomerize (ID: Tautomerize)
Aromatize (ID: Aromatize)
Add Explicit Hydrogens (ID: AddExplicitH)
Neutralize (ID: Neutralize)
Clean 2D (ID: Clean2D)

> <knn Distance>


> <CpId>
2163

$$$$
2164
  Mrv1532301301811342D          

 14 14  0  0  0  0            999 V2000
    0.7145    2.0625    0.0000 Cl  0  0  0  0  0  0  0  0  0  0  0  0
    0.7145    1.2375    0.0000 C   0  0  0  0  0  0  0  0  0  0  0  0
    1.4289    0.8250    0.0000 C   0  0  0  0  0  0  0  0  0  0  0  0
    1.4289   -0.0000    0.0000 C   0  0  0  0  0  0  0  0  0  0  0  0
    0.7145   -0.4125    0.0000 C   0  0  0  0  0  0  0  0  0  0  0  0
   -0.0000   -0.0000    0.0000 C   0  0  0  0  0  0  0  0  0  0  0  0
   -0.0000    0.8250    0.0000 C   0  0  0  0  0  0  0  0  0  0  0  0
   -0.7145    1.2375    0.0000 Cl  0  0  0  0  0  0  0  0  0  0  0  0
    0.7145   -1.2375    0.0000 N   0  0  0  0  0  0  0  0  0  0  0  0
    1.4289   -1.6500    0.0000 C   0  0  0  0  0  0  0  0  0  0  0  0
    2.1434   -2.0625    0.0000 O   0  0  0  0  0  0  0  0  0  0  0  0
    2.1434    1.2375    0.0000 H   0  0  0  0  0  0  0  0  0  0  0  0
    2.1434   -0.4125    0.0000 H   0  0  0  0  0  0  0  0  0  0  0  0
   -0.7145   -0.4125    0.0000 H   0  0  0  0  0  0  0  0  0  0  0  0
  1  2  1  0  0  0  0
  2  3  4  0  0  0  0
  3  4  4  0  0  0  0
  4  5  4  0  0  0  0
  5  6  4  0  0  0  0
  6  7  4  0  0  0  0
  2  7  4  0  0  0  0
  7  8  1  0  0  0  0
  5  9  1  0  0  0  0
  9 10  2  0  0  0  0
 10 11  2  0  0  0  0
  3 12  1  0  0  0  0
  4 13  1  0  0  0  0
  6 14  1  0  0  0  0
M  END
>  <InChIKey>
InChI=1S/C7H3Cl2NO/c8-6-2-1-5(10-4-11)3-7(6)9/h1-3H

>  <UN GHS>
1

>  <CASRN>
102-36-3

> <Outcome>
1

>  <Index>
2164

>  <StandardizerResult>
Dearomatize (ID: Dearomatize)
Clear Stereo (ID: ClearStereo)
Wedge Clean (ID: WedgeClean)
Mesomerize (ID: Mesomerize)
Tautomerize (ID: Tautomerize)
Aromatize (ID: Aromatize)
Add Explicit Hydrogens (ID: AddExplicitH)
Neutralize (ID: Neutralize)
Clean 2D (ID: Clean2D)

> <knn Distance>


> <CpId>
2164

$$$$
2168
  Mrv1532301301811342D          

 14 13  0  0  0  0            999 V2000
    2.4750   -1.4289    0.0000 C   0  0  0  0  0  0  0  0  0  0  0  0
    2.0625   -0.7145    0.0000 N   0  0  0  0  0  0  0  0  0  0  0  0
    1.2375   -0.7145    0.0000 C   0  0  0  0  0  0  0  0  0  0  0  0
    0.8250   -1.4289    0.0000 O   0  0  0  0  0  0  0  0  0  0  0  0
    0.8250    0.0000    0.0000 N   0  0  0  0  0  0  0  0  0  0  0  0
    0.0000    0.0000    0.0000 C   0  0  0  0  0  0  0  0  0  0  0  0
    1.7605   -1.8414    0.0000 H   0  0  0  0  0  0  0  0  0  0  0  0
    2.8875   -2.1434    0.0000 H   0  0  0  0  0  0  0  0  0  0  0  0
    3.1895   -1.0164    0.0000 H   0  0  0  0  0  0  0  0  0  0  0  0
    2.4750    0.0000    0.0000 H   0  0  0  0  0  0  0  0  0  0  0  0
    1.2375    0.7145    0.0000 H   0  0  0  0  0  0  0  0  0  0  0  0
    0.0000    0.8250    0.0000 H   0  0  0  0  0  0  0  0  0  0  0  0
   -0.8250    0.0000    0.0000 H   0  0  0  0  0  0  0  0  0  0  0  0
    0.0000   -0.8250    0.0000 H   0  0  0  0  0  0  0  0  0  0  0  0
  1  2  1  0  0  0  0
  2  3  1  0  0  0  0
  3  4  2  0  0  0  0
  3  5  1  0  0  0  0
  5  6  1  0  0  0  0
  1  7  1  0  0  0  0
  1  8  1  0  0  0  0
  1  9  1  0  0  0  0
  2 10  1  0  0  0  0
  5 11  1  0  0  0  0
  6 12  1  0  0  0  0
  6 13  1  0  0  0  0
  6 14  1  0  0  0  0
M  END
>  <InChIKey>
InChI=1S/C3H8N2O/c1-4-3(6)5-2/h1-2H3,(H2,4,5,6)

>  <CASRN>
96-31-1

> <Outcome>
1

>  <Index>
2168

>  <StandardizerResult>
Clear Stereo (ID: ClearStereo)
Wedge Clean (ID: WedgeClean)
Mesomerize (ID: Mesomerize)
Tautomerize (ID: Tautomerize)
Add Explicit Hydrogens (ID: AddExplicitH)
Neutralize (ID: Neutralize)
Clean 2D (ID: Clean2D)

> <knn Distance>


> <CpId>
2168

$$$$
2169
  Mrv1532301301811342D          

 61 63  0  0  0  0            999 V2000
   -0.7960   -3.0861    0.0000 C   0  0  0  0  0  0  0  0  0  0  0  0
   -0.3835   -2.3716    0.0000 C   0  0  0  0  0  0  0  0  0  0  0  0
   -0.7960   -1.6571    0.0000 C   0  0  0  0  0  0  0  0  0  0  0  0
   -1.6210   -1.6571    0.0000 C   0  0  0  0  0  0  0  0  0  0  0  0
   -2.0335   -0.9427    0.0000 C   0  0  0  0  0  0  0  0  0  0  0  0
   -2.8585   -0.9427    0.0000 C   0  0  0  0  0  0  0  0  0  0  0  0
   -1.6210   -0.2282    0.0000 C   0  0  0  0  0  0  0  0  0  0  0  0
   -0.7960   -0.2282    0.0000 C   0  0  0  0  0  0  0  0  0  0  0  0
   -0.3835    0.4863    0.0000 C   0  0  0  0  0  0  0  0  0  0  0  0
   -0.7960    1.2008    0.0000 C   0  0  0  0  0  0  0  0  0  0  0  0
   -0.3835   -0.9427    0.0000 C   0  0  0  0  0  0  0  0  0  0  0  0
    0.4415   -0.9427    0.0000 C   0  0  0  0  0  0  0  0  0  0  0  0
    0.9265   -0.2752    0.0000 C   0  0  0  0  0  0  0  0  0  0  0  0
    0.6715    0.5094    0.0000 O   0  0  0  0  0  0  0  0  0  0  0  0
    1.2235    1.1225    0.0000 C   0  0  0  0  0  0  0  0  0  0  0  0
    2.0305    0.9510    0.0000 O   0  0  0  0  0  0  0  0  0  0  0  0
    0.9686    1.9071    0.0000 C   0  0  0  0  0  0  0  0  0  0  0  0
    0.7137    2.6917    0.0000 C   0  0  0  0  0  0  0  0  0  0  0  0
    1.7532    2.1621    0.0000 C   0  0  0  0  0  0  0  0  0  0  0  0
    0.1840    1.6522    0.0000 C   0  0  0  0  0  0  0  0  0  0  0  0
    1.7111   -0.5302    0.0000 N   0  0  0  0  0  0  0  0  0  0  0  0
    2.3561   -0.0158    0.0000 C   0  0  0  0  0  0  0  0  0  0  0  0
    3.1604   -0.1994    0.0000 C   0  0  0  0  0  0  0  0  0  0  0  0
    3.5184   -0.9427    0.0000 O   0  0  0  0  0  0  0  0  0  0  0  0
    3.1604   -1.6860    0.0000 C   0  0  0  0  0  0  0  0  0  0  0  0
    2.3561   -1.8695    0.0000 C   0  0  0  0  0  0  0  0  0  0  0  0
    1.7111   -1.3552    0.0000 N   0  0  0  0  0  0  0  0  0  0  0  0
    0.9265   -1.6101    0.0000 C   0  0  0  0  0  0  0  0  0  0  0  0
    0.6715   -2.3947    0.0000 O   0  0  0  0  0  0  0  0  0  0  0  0
   -1.5104   -2.6736    0.0000 H   0  0  0  0  0  0  0  0  0  0  0  0
   -1.2085   -3.8005    0.0000 H   0  0  0  0  0  0  0  0  0  0  0  0
   -0.0815   -3.4986    0.0000 H   0  0  0  0  0  0  0  0  0  0  0  0
    0.3538   -2.7419    0.0000 H   0  0  0  0  0  0  0  0  0  0  0  0
    0.3538   -2.0013    0.0000 H   0  0  0  0  0  0  0  0  0  0  0  0
   -2.0335   -2.3716    0.0000 H   0  0  0  0  0  0  0  0  0  0  0  0
   -2.8585   -0.1177    0.0000 H   0  0  0  0  0  0  0  0  0  0  0  0
   -3.6835   -0.9427    0.0000 H   0  0  0  0  0  0  0  0  0  0  0  0
   -2.8585   -1.7677    0.0000 H   0  0  0  0  0  0  0  0  0  0  0  0
   -2.0335    0.4863    0.0000 H   0  0  0  0  0  0  0  0  0  0  0  0
    0.3538    0.1160    0.0000 H   0  0  0  0  0  0  0  0  0  0  0  0
    0.3538    0.8565    0.0000 H   0  0  0  0  0  0  0  0  0  0  0  0
   -0.0815    1.6133    0.0000 H   0  0  0  0  0  0  0  0  0  0  0  0
   -1.2085    1.9152    0.0000 H   0  0  0  0  0  0  0  0  0  0  0  0
   -1.5104    0.7883    0.0000 H   0  0  0  0  0  0  0  0  0  0  0  0
    1.4983    2.9467    0.0000 H   0  0  0  0  0  0  0  0  0  0  0  0
    0.4587    3.4764    0.0000 H   0  0  0  0  0  0  0  0  0  0  0  0
   -0.0710    2.4368    0.0000 H   0  0  0  0  0  0  0  0  0  0  0  0
    1.6885    1.3396    0.0000 H   0  0  0  0  0  0  0  0  0  0  0  0
    2.4883    1.7875    0.0000 H   0  0  0  0  0  0  0  0  0  0  0  0
    2.3806    2.6979    0.0000 H   0  0  0  0  0  0  0  0  0  0  0  0
   -0.2869    0.9748    0.0000 H   0  0  0  0  0  0  0  0  0  0  0  0
    0.8986    1.2400    0.0000 H   0  0  0  0  0  0  0  0  0  0  0  0
   -0.5170    2.0873    0.0000 H   0  0  0  0  0  0  0  0  0  0  0  0
    2.5397    0.7885    0.0000 H   0  0  0  0  0  0  0  0  0  0  0  0
    1.8417    0.6292    0.0000 H   0  0  0  0  0  0  0  0  0  0  0  0
    3.9037    0.1586    0.0000 H   0  0  0  0  0  0  0  0  0  0  0  0
    3.3440    0.6050    0.0000 H   0  0  0  0  0  0  0  0  0  0  0  0
    3.3440   -2.4903    0.0000 H   0  0  0  0  0  0  0  0  0  0  0  0
    3.9037   -2.0439    0.0000 H   0  0  0  0  0  0  0  0  0  0  0  0
    1.8417   -2.5145    0.0000 H   0  0  0  0  0  0  0  0  0  0  0  0
    2.5397   -2.6738    0.0000 H   0  0  0  0  0  0  0  0  0  0  0  0
  1  2  1  0  0  0  0
  2  3  1  0  0  0  0
  3  4  4  0  0  0  0
  4  5  4  0  0  0  0
  5  6  1  0  0  0  0
  5  7  4  0  0  0  0
  7  8  4  0  0  0  0
  8  9  1  0  0  0  0
  9 10  1  0  0  0  0
  8 11  4  0  0  0  0
  3 11  4  0  0  0  0
 11 12  1  0  0  0  0
 12 13  2  0  0  0  0
 13 14  1  0  0  0  0
 14 15  1  0  0  0  0
 15 16  2  0  0  0  0
 15 17  1  0  0  0  0
 17 18  1  0  0  0  0
 17 19  1  0  0  0  0
 17 20  1  0  0  0  0
 13 21  1  0  0  0  0
 21 22  1  0  0  0  0
 22 23  1  0  0  0  0
 23 24  1  0  0  0  0
 24 25  1  0  0  0  0
 25 26  1  0  0  0  0
 26 27  1  0  0  0  0
 21 27  1  0  0  0  0
 27 28  1  0  0  0  0
 12 28  1  0  0  0  0
 28 29  2  0  0  0  0
  1 30  1  0  0  0  0
  1 31  1  0  0  0  0
  1 32  1  0  0  0  0
  2 33  1  0  0  0  0
  2 34  1  0  0  0  0
  4 35  1  0  0  0  0
  6 36  1  0  0  0  0
  6 37  1  0  0  0  0
  6 38  1  0  0  0  0
  7 39  1  0  0  0  0
  9 40  1  0  0  0  0
  9 41  1  0  0  0  0
 10 42  1  0  0  0  0
 10 43  1  0  0  0  0
 10 44  1  0  0  0  0
 18 45  1  0  0  0  0
 18 46  1  0  0  0  0
 18 47  1  0  0  0  0
 19 48  1  0  0  0  0
 19 49  1  0  0  0  0
 19 50  1  0  0  0  0
 20 51  1  0  0  0  0
 20 52  1  0  0  0  0
 20 53  1  0  0  0  0
 22 54  1  0  0  0  0
 22 55  1  0  0  0  0
 23 56  1  0  0  0  0
 23 57  1  0  0  0  0
 25 58  1  0  0  0  0
 25 59  1  0  0  0  0
 26 60  1  0  0  0  0
 26 61  1  0  0  0  0
M  END
>  <InChIKey>
InChI=1S/C23H32N2O4/c1-7-16-13-15(3)14-17(8-2)18(16)19-20(26)24-9-11-28-12-10-25(24)21(19)29-22(27)23(4,5)6/h13-14H,7-12H2,1-6H3

>  <UN GHS>
1

>  <CASRN>
243973-20-8

> <Outcome>
1

>  <Index>
2169

>  <StandardizerResult>
Dearomatize (ID: Dearomatize)
Clear Stereo (ID: ClearStereo)
Wedge Clean (ID: WedgeClean)
Mesomerize (ID: Mesomerize)
Tautomerize (ID: Tautomerize)
Aromatize (ID: Aromatize)
Add Explicit Hydrogens (ID: AddExplicitH)
Neutralize (ID: Neutralize)
Clean 2D (ID: Clean2D)

> <knn Distance>


> <CpId>
2169

$$$$
2170
  Mrv1532301301811342D          

 45 47  0  0  0  0            999 V2000
   -0.0362   -4.1286    0.0000 C   0  0  0  0  0  0  0  0  0  0  0  0
   -0.7507   -3.7161    0.0000 C   0  0  0  0  0  0  0  0  0  0  0  0
   -1.4652   -4.1286    0.0000 C   0  0  0  0  0  0  0  0  0  0  0  0
   -2.1796   -3.7161    0.0000 C   0  0  0  0  0  0  0  0  0  0  0  0
   -2.8941   -4.1286    0.0000 C   0  0  0  0  0  0  0  0  0  0  0  0
   -2.1796   -2.8911    0.0000 C   0  0  0  0  0  0  0  0  0  0  0  0
   -1.4652   -2.4786    0.0000 C   0  0  0  0  0  0  0  0  0  0  0  0
   -0.7507   -2.8911    0.0000 C   0  0  0  0  0  0  0  0  0  0  0  0
   -0.0362   -2.4786    0.0000 N   0  0  0  0  0  0  0  0  0  0  0  0
   -0.0362   -1.6536    0.0000 N   0  0  0  0  0  0  0  0  0  0  0  0
    0.6783   -1.2411    0.0000 C   0  0  0  0  0  0  0  0  0  0  0  0
    0.6783   -0.4161    0.0000 C   0  0  0  0  0  0  0  0  0  0  0  0
    1.3927   -0.0036    0.0000 C   0  0  0  0  0  0  0  0  0  0  0  0
    2.1072   -0.4161    0.0000 C   0  0  0  0  0  0  0  0  0  0  0  0
    2.8217   -0.0036    0.0000 C   0  0  0  0  0  0  0  0  0  0  0  0
    3.5361   -0.4161    0.0000 C   0  0  0  0  0  0  0  0  0  0  0  0
    3.5361   -1.2411    0.0000 C   0  0  0  0  0  0  0  0  0  0  0  0
    2.8217   -1.6536    0.0000 C   0  0  0  0  0  0  0  0  0  0  0  0
    2.1072   -1.2411    0.0000 C   0  0  0  0  0  0  0  0  0  0  0  0
    1.3927   -1.6536    0.0000 C   0  0  0  0  0  0  0  0  0  0  0  0
    1.3927   -2.4786    0.0000 O   0  0  0  0  0  0  0  0  0  0  0  0
    1.3927    0.8214    0.0000 S   0  0  0  0  0  0  0  0  0  0  0  0
    1.3927    1.6464    0.0000 O   0  0  0  0  0  0  0  0  0  0  0  0
    2.2177    0.8214    0.0000 O   0  0  0  0  0  0  0  0  0  0  0  0
    0.5677    0.8214    0.0000 O   0  0  0  0  0  0  0  0  0  0  0  0
   -2.8941   -2.4786    0.0000 S   0  0  0  0  0  0  0  0  0  0  0  0
   -3.6086   -2.0661    0.0000 O   0  0  0  0  0  0  0  0  0  0  0  0
   -2.4816   -1.7641    0.0000 O   0  0  0  0  0  0  0  0  0  0  0  0
   -3.3066   -3.1931    0.0000 O   0  0  0  0  0  0  0  0  0  0  0  0
   -0.4487   -4.8431    0.0000 H   0  0  0  0  0  0  0  0  0  0  0  0
    0.6783   -4.5411    0.0000 H   0  0  0  0  0  0  0  0  0  0  0  0
    0.3763   -3.4141    0.0000 H   0  0  0  0  0  0  0  0  0  0  0  0
   -1.4652   -4.9536    0.0000 H   0  0  0  0  0  0  0  0  0  0  0  0
   -3.3066   -3.4141    0.0000 H   0  0  0  0  0  0  0  0  0  0  0  0
   -3.6086   -4.5411    0.0000 H   0  0  0  0  0  0  0  0  0  0  0  0
   -2.4816   -4.8431    0.0000 H   0  0  0  0  0  0  0  0  0  0  0  0
   -1.4652   -1.6536    0.0000 H   0  0  0  0  0  0  0  0  0  0  0  0
    0.6783   -2.8911    0.0000 H   0  0  0  0  0  0  0  0  0  0  0  0
   -0.0362   -0.0036    0.0000 H   0  0  0  0  0  0  0  0  0  0  0  0
    2.8217    0.8214    0.0000 H   0  0  0  0  0  0  0  0  0  0  0  0
    4.2506   -0.0036    0.0000 H   0  0  0  0  0  0  0  0  0  0  0  0
    4.2506   -1.6536    0.0000 H   0  0  0  0  0  0  0  0  0  0  0  0
    2.8217   -2.4786    0.0000 H   0  0  0  0  0  0  0  0  0  0  0  0
    2.1072    2.0589    0.0000 H   0  0  0  0  0  0  0  0  0  0  0  0
   -3.6086   -1.2411    0.0000 H   0  0  0  0  0  0  0  0  0  0  0  0
  1  2  1  0  0  0  0
  2  3  4  0  0  0  0
  3  4  4  0  0  0  0
  4  5  1  0  0  0  0
  4  6  4  0  0  0  0
  6  7  4  0  0  0  0
  7  8  4  0  0  0  0
  2  8  4  0  0  0  0
  8  9  1  0  0  0  0
 10  9  1  4  0  0  0
 10 11  2  0  0  0  0
 11 12  1  0  0  0  0
 12 13  2  0  0  0  0
 13 14  1  0  0  0  0
 14 15  4  0  0  0  0
 15 16  4  0  0  0  0
 16 17  4  0  0  0  0
 17 18  4  0  0  0  0
 18 19  4  0  0  0  0
 14 19  4  0  0  0  0
 19 20  1  0  0  0  0
 11 20  1  0  0  0  0
 20 21  2  0  0  0  0
 13 22  1  0  0  0  0
 22 23  1  0  0  0  0
 22 24  2  0  0  0  0
 22 25  2  0  0  0  0
  6 26  1  0  0  0  0
 26 27  1  0  0  0  0
 26 28  2  0  0  0  0
 26 29  2  0  0  0  0
  1 30  1  0  0  0  0
  1 31  1  0  0  0  0
  1 32  1  0  0  0  0
  3 33  1  0  0  0  0
  5 34  1  0  0  0  0
  5 35  1  0  0  0  0
  5 36  1  0  0  0  0
  7 37  1  0  0  0  0
  9 38  1  0  0  0  0
 12 39  1  0  0  0  0
 15 40  1  0  0  0  0
 16 41  1  0  0  0  0
 17 42  1  0  0  0  0
 18 43  1  0  0  0  0
 23 44  1  0  0  0  0
 27 45  1  0  0  0  0
M  END
>  <InChIKey>
InChI=1S/C18H16N2O7S2/c1-10-7-11(2)16(28(22,23)24)8-14(10)19-20-15-9-17(29(25,26)27)12-5-3-4-6-13(12)18(15)21/h3-9,19H,1-2H3,(H,22,23,24)(H,25,26,27)

>  <CASRN>
4548-53-2

> <Outcome>
1

>  <Index>
2170

>  <StandardizerResult>
Dearomatize (ID: Dearomatize)
Clear Stereo (ID: ClearStereo)
Wedge Clean (ID: WedgeClean)
Mesomerize (ID: Mesomerize)
Tautomerize (ID: Tautomerize)
Aromatize (ID: Aromatize)
Add Explicit Hydrogens (ID: AddExplicitH)
Neutralize (ID: Neutralize)
Clean 2D (ID: Clean2D)

> <knn Distance>


> <CpId>
2170

$$$$
2174
  Mrv1532301301811342D          

 34 33  0  0  0  0            999 V2000
    4.2355    3.2709    0.0000 C   0  0  0  0  0  0  0  0  0  0  0  0
    4.9500    2.8584    0.0000 C   0  0  0  0  0  0  0  0  0  0  0  0
    5.6645    3.2709    0.0000 C   0  0  0  0  0  0  0  0  0  0  0  0
    6.3789    2.8584    0.0000 C   0  0  0  0  0  0  0  0  0  0  0  0
    7.0934    3.2709    0.0000 C   0  0  0  0  0  0  0  0  0  0  0  0
    7.8079    2.8584    0.0000 C   0  0  0  0  0  0  0  0  0  0  0  0
    8.5224    3.2709    0.0000 C   0  0  0  0  0  0  0  0  0  0  0  0
    9.2368    2.8584    0.0000 C   0  0  0  0  0  0  0  0  0  0  0  0
    9.9513    3.2709    0.0000 C   0  0  0  0  0  0  0  0  0  0  0  0
   10.6658    2.8584    0.0000 C   0  0  0  0  0  0  0  0  0  0  0  0
   11.3802    3.2709    0.0000 N   0  0  0  0  0  0  0  0  0  0  0  0
    4.6480    3.9854    0.0000 H   0  0  0  0  0  0  0  0  0  0  0  0
    3.5211    3.6834    0.0000 H   0  0  0  0  0  0  0  0  0  0  0  0
    3.8230    2.5564    0.0000 H   0  0  0  0  0  0  0  0  0  0  0  0
    4.5797    2.1212    0.0000 H   0  0  0  0  0  0  0  0  0  0  0  0
    5.3203    2.1212    0.0000 H   0  0  0  0  0  0  0  0  0  0  0  0
    6.0347    4.0082    0.0000 H   0  0  0  0  0  0  0  0  0  0  0  0
    5.2942    4.0082    0.0000 H   0  0  0  0  0  0  0  0  0  0  0  0
    6.0087    2.1212    0.0000 H   0  0  0  0  0  0  0  0  0  0  0  0
    6.7492    2.1212    0.0000 H   0  0  0  0  0  0  0  0  0  0  0  0
    7.4637    4.0082    0.0000 H   0  0  0  0  0  0  0  0  0  0  0  0
    6.7232    4.0082    0.0000 H   0  0  0  0  0  0  0  0  0  0  0  0
    7.4376    2.1212    0.0000 H   0  0  0  0  0  0  0  0  0  0  0  0
    8.1781    2.1212    0.0000 H   0  0  0  0  0  0  0  0  0  0  0  0
    8.8926    4.0082    0.0000 H   0  0  0  0  0  0  0  0  0  0  0  0
    8.1521    4.0082    0.0000 H   0  0  0  0  0  0  0  0  0  0  0  0
    8.8666    2.1212    0.0000 H   0  0  0  0  0  0  0  0  0  0  0  0
    9.6071    2.1212    0.0000 H   0  0  0  0  0  0  0  0  0  0  0  0
   10.3216    4.0082    0.0000 H   0  0  0  0  0  0  0  0  0  0  0  0
    9.5810    4.0082    0.0000 H   0  0  0  0  0  0  0  0  0  0  0  0
   10.2955    2.1212    0.0000 H   0  0  0  0  0  0  0  0  0  0  0  0
   11.0360    2.1212    0.0000 H   0  0  0  0  0  0  0  0  0  0  0  0
   12.0947    2.8584    0.0000 H   0  0  0  0  0  0  0  0  0  0  0  0
   11.3802    4.0959    0.0000 H   0  0  0  0  0  0  0  0  0  0  0  0
  1  2  1  0  0  0  0
  2  3  1  0  0  0  0
  3  4  1  0  0  0  0
  4  5  1  0  0  0  0
  5  6  1  0  0  0  0
  6  7  1  0  0  0  0
  7  8  1  0  0  0  0
  8  9  1  0  0  0  0
  9 10  1  0  0  0  0
 10 11  1  0  0  0  0
  1 12  1  0  0  0  0
  1 13  1  0  0  0  0
  1 14  1  0  0  0  0
  2 15  1  0  0  0  0
  2 16  1  0  0  0  0
  3 17  1  0  0  0  0
  3 18  1  0  0  0  0
  4 19  1  0  0  0  0
  4 20  1  0  0  0  0
  5 21  1  0  0  0  0
  5 22  1  0  0  0  0
  6 23  1  0  0  0  0
  6 24  1  0  0  0  0
  7 25  1  0  0  0  0
  7 26  1  0  0  0  0
  8 27  1  0  0  0  0
  8 28  1  0  0  0  0
  9 29  1  0  0  0  0
  9 30  1  0  0  0  0
 10 31  1  0  0  0  0
 10 32  1  0  0  0  0
 11 33  1  0  0  0  0
 11 34  1  0  0  0  0
M  END
>  <InChIKey>
InChI=1S/C10H23N/c1-2-3-4-5-6-7-8-9-10-11/h2-11H2,1H3

>  <CASRN>
2016-57-1

> <Outcome>
1

>  <Index>
2174

>  <StandardizerResult>
Clear Stereo (ID: ClearStereo)
Wedge Clean (ID: WedgeClean)
Mesomerize (ID: Mesomerize)
Tautomerize (ID: Tautomerize)
Add Explicit Hydrogens (ID: AddExplicitH)
Neutralize (ID: Neutralize)
Clean 2D (ID: Clean2D)

> <knn Distance>


> <CpId>
2174

$$$$
2175
  Mrv1532301301811342D          

 24 23  0  0  0  0            999 V2000
   -0.2551    0.6296    0.0000 C   0  0  0  0  0  0  0  0  0  0  0  0
    0.4593    1.0421    0.0000 C   0  0  0  0  0  0  0  0  0  0  0  0
    1.1738    0.6296    0.0000 C   0  0  0  0  0  0  0  0  0  0  0  0
    1.1738   -0.1954    0.0000 C   0  0  0  0  0  0  0  0  0  0  0  0
    1.8883    1.0421    0.0000 C   0  0  0  0  0  0  0  0  0  0  0  0
    1.8883    1.8671    0.0000 C   0  0  0  0  0  0  0  0  0  0  0  0
    2.6028    0.6296    0.0000 C   0  0  0  0  0  0  0  0  0  0  0  0
    3.3172    1.0421    0.0000 O   0  0  0  0  0  0  0  0  0  0  0  0
   -0.6676    1.3441    0.0000 H   0  0  0  0  0  0  0  0  0  0  0  0
   -0.9696    0.2171    0.0000 H   0  0  0  0  0  0  0  0  0  0  0  0
    0.1574   -0.0848    0.0000 H   0  0  0  0  0  0  0  0  0  0  0  0
    0.8296    1.7794    0.0000 H   0  0  0  0  0  0  0  0  0  0  0  0
    0.0891    1.7794    0.0000 H   0  0  0  0  0  0  0  0  0  0  0  0
    0.4593    0.2171    0.0000 H   0  0  0  0  0  0  0  0  0  0  0  0
    0.5905   -0.7787    0.0000 H   0  0  0  0  0  0  0  0  0  0  0  0
    1.5863   -0.9098    0.0000 H   0  0  0  0  0  0  0  0  0  0  0  0
    1.9707    0.0182    0.0000 H   0  0  0  0  0  0  0  0  0  0  0  0
    1.1738    1.4546    0.0000 H   0  0  0  0  0  0  0  0  0  0  0  0
    2.6852    1.6536    0.0000 H   0  0  0  0  0  0  0  0  0  0  0  0
    2.3008    2.5816    0.0000 H   0  0  0  0  0  0  0  0  0  0  0  0
    1.3049    2.4505    0.0000 H   0  0  0  0  0  0  0  0  0  0  0  0
    3.0996   -0.0290    0.0000 H   0  0  0  0  0  0  0  0  0  0  0  0
    2.6028    1.4546    0.0000 H   0  0  0  0  0  0  0  0  0  0  0  0
    4.1360    0.9412    0.0000 H   0  0  0  0  0  0  0  0  0  0  0  0
  1  2  1  0  0  0  0
  2  3  1  0  0  0  0
  3  4  1  0  0  0  0
  3  5  1  0  0  0  0
  5  6  1  0  0  0  0
  5  7  1  0  0  0  0
  7  8  1  0  0  0  0
  1  9  1  0  0  0  0
  1 10  1  0  0  0  0
  1 11  1  0  0  0  0
  2 12  1  0  0  0  0
  2 13  1  0  0  0  0
  3 14  1  0  0  0  0
  4 15  1  0  0  0  0
  4 16  1  0  0  0  0
  4 17  1  0  0  0  0
  5 18  1  0  0  0  0
  6 19  1  0  0  0  0
  6 20  1  0  0  0  0
  6 21  1  0  0  0  0
  7 22  1  0  0  0  0
  7 23  1  0  0  0  0
  8 24  1  0  0  0  0
M  END
>  <InChIKey>
InChI=1S/C7H16O/c1-4-6(2)7(3)5-8/h6-8H,4-5H2,1-3H3

>  <CASRN>
10143-23-4

> <Outcome>
1

>  <Index>
2175

>  <StandardizerResult>
Clear Stereo (ID: ClearStereo)
Wedge Clean (ID: WedgeClean)
Mesomerize (ID: Mesomerize)
Tautomerize (ID: Tautomerize)
Add Explicit Hydrogens (ID: AddExplicitH)
Neutralize (ID: Neutralize)
Clean 2D (ID: Clean2D)

> <knn Distance>


> <CpId>
2175

$$$$
2181
  Mrv1532301301811342D          

 12 11  0  0  0  0            999 V2000
    2.4743   -1.4302    0.0000 C   0  0  0  0  0  0  0  0  0  0  0  0
    2.0618   -0.7157    0.0000 O   0  0  0  0  0  0  0  0  0  0  0  0
    1.2368   -0.7157    0.0000 C   0  0  0  0  0  0  0  0  0  0  0  0
    0.8243   -1.4302    0.0000 O   0  0  0  0  0  0  0  0  0  0  0  0
    0.8243   -0.0013    0.0000 C   0  0  0  0  0  0  0  0  0  0  0  0
   -0.0007   -0.0013    0.0000 S   0  0  0  0  0  0  0  0  0  0  0  0
    1.7598   -1.8427    0.0000 H   0  0  0  0  0  0  0  0  0  0  0  0
    2.8868   -2.1447    0.0000 H   0  0  0  0  0  0  0  0  0  0  0  0
    3.1887   -1.0177    0.0000 H   0  0  0  0  0  0  0  0  0  0  0  0
    1.5135    0.4521    0.0000 H   0  0  0  0  0  0  0  0  0  0  0  0
    0.8722    0.8223    0.0000 H   0  0  0  0  0  0  0  0  0  0  0  0
   -0.4132    0.7132    0.0000 H   0  0  0  0  0  0  0  0  0  0  0  0
  1  2  1  0  0  0  0
  2  3  1  0  0  0  0
  3  4  2  0  0  0  0
  3  5  1  0  0  0  0
  5  6  1  0  0  0  0
  1  7  1  0  0  0  0
  1  8  1  0  0  0  0
  1  9  1  0  0  0  0
  5 10  1  0  0  0  0
  5 11  1  0  0  0  0
  6 12  1  0  0  0  0
M  END
>  <InChIKey>
InChI=1S/C3H6O2S/c1-5-3(4)2-6/h6H,2H2,1H3

>  <UN GHS>
1

>  <CASRN>
2365-48-2

> <Outcome>
1

>  <Index>
2181

>  <StandardizerResult>
Clear Stereo (ID: ClearStereo)
Wedge Clean (ID: WedgeClean)
Mesomerize (ID: Mesomerize)
Tautomerize (ID: Tautomerize)
Add Explicit Hydrogens (ID: AddExplicitH)
Neutralize (ID: Neutralize)
Clean 2D (ID: Clean2D)

> <knn Distance>


> <CpId>
2181

$$$$
2185
  Mrv1532301301811342D          

 26 25  0  0  0  0            999 V2000
    3.5211    2.8579    0.0000 O   0  0  0  0  0  0  0  0  0  0  0  0
    4.2355    3.2704    0.0000 C   0  0  0  0  0  0  0  0  0  0  0  0
    4.2355    4.0954    0.0000 O   0  0  0  0  0  0  0  0  0  0  0  0
    4.9500    2.8579    0.0000 C   0  0  0  0  0  0  0  0  0  0  0  0
    5.6645    3.2704    0.0000 C   0  0  0  0  0  0  0  0  0  0  0  0
    6.3789    2.8579    0.0000 C   0  0  0  0  0  0  0  0  0  0  0  0
    6.3789    2.0329    0.0000 O   0  0  0  0  0  0  0  0  0  0  0  0
    7.0934    3.2704    0.0000 O   0  0  0  0  0  0  0  0  0  0  0  0
    7.8079    2.8579    0.0000 O   0  0  0  0  0  0  0  0  0  0  0  0
    8.5224    3.2704    0.0000 C   0  0  0  0  0  0  0  0  0  0  0  0
    8.5224    4.0954    0.0000 O   0  0  0  0  0  0  0  0  0  0  0  0
    9.2368    2.8579    0.0000 C   0  0  0  0  0  0  0  0  0  0  0  0
    9.9513    3.2704    0.0000 C   0  0  0  0  0  0  0  0  0  0  0  0
   10.6658    2.8579    0.0000 C   0  0  0  0  0  0  0  0  0  0  0  0
   11.3802    3.2704    0.0000 O   0  0  0  0  0  0  0  0  0  0  0  0
   10.6658    2.0329    0.0000 O   0  0  0  0  0  0  0  0  0  0  0  0
    2.8066    3.2704    0.0000 H   0  0  0  0  0  0  0  0  0  0  0  0
    4.5797    2.1207    0.0000 H   0  0  0  0  0  0  0  0  0  0  0  0
    5.3203    2.1207    0.0000 H   0  0  0  0  0  0  0  0  0  0  0  0
    6.0347    4.0076    0.0000 H   0  0  0  0  0  0  0  0  0  0  0  0
    5.2942    4.0076    0.0000 H   0  0  0  0  0  0  0  0  0  0  0  0
    8.8666    2.1207    0.0000 H   0  0  0  0  0  0  0  0  0  0  0  0
    9.6071    2.1207    0.0000 H   0  0  0  0  0  0  0  0  0  0  0  0
   10.3216    4.0076    0.0000 H   0  0  0  0  0  0  0  0  0  0  0  0
    9.5810    4.0076    0.0000 H   0  0  0  0  0  0  0  0  0  0  0  0
   12.0947    2.8579    0.0000 H   0  0  0  0  0  0  0  0  0  0  0  0
  1  2  1  0  0  0  0
  2  3  2  0  0  0  0
  2  4  1  0  0  0  0
  4  5  1  0  0  0  0
  5  6  1  0  0  0  0
  6  7  2  0  0  0  0
  6  8  1  0  0  0  0
  8  9  1  0  0  0  0
  9 10  1  0  0  0  0
 10 11  2  0  0  0  0
 10 12  1  0  0  0  0
 12 13  1  0  0  0  0
 13 14  1  0  0  0  0
 14 15  1  0  0  0  0
 14 16  2  0  0  0  0
  1 17  1  0  0  0  0
  4 18  1  0  0  0  0
  4 19  1  0  0  0  0
  5 20  1  0  0  0  0
  5 21  1  0  0  0  0
 12 22  1  0  0  0  0
 12 23  1  0  0  0  0
 13 24  1  0  0  0  0
 13 25  1  0  0  0  0
 15 26  1  0  0  0  0
M  END
>  <InChIKey>
InChI=1S/C8H10O8/c9-5(10)1-3-7(13)15-16-8(14)4-2-6(11)12/h1-4H2,(H,9,10)(H,11,12)

>  <CASRN>
123-23-9

> <Outcome>
1

>  <Index>
2185

>  <StandardizerResult>
Clear Stereo (ID: ClearStereo)
Wedge Clean (ID: WedgeClean)
Mesomerize (ID: Mesomerize)
Tautomerize (ID: Tautomerize)
Add Explicit Hydrogens (ID: AddExplicitH)
Neutralize (ID: Neutralize)
Clean 2D (ID: Clean2D)

> <knn Distance>


> <CpId>
2185

$$$$
2189
  Mrv1532301301811342D          

 23 22  0  0  0  0            999 V2000
    1.7223    1.7777    0.0000 C   0  0  0  0  0  0  0  0  0  0  0  0
    2.4368    1.3652    0.0000 C   0  0  0  0  0  0  0  0  0  0  0  0
    2.4368    0.5402    0.0000 C   0  0  0  0  0  0  0  0  0  0  0  0
    3.1513    1.7777    0.0000 C   0  0  0  0  0  0  0  0  0  0  0  0
    3.8657    1.3652    0.0000 C   0  0  0  0  0  0  0  0  0  0  0  0
    4.5802    1.7777    0.0000 O   0  0  0  0  0  0  0  0  0  0  0  0
    5.2947    1.3652    0.0000 C   0  0  0  0  0  0  0  0  0  0  0  0
    6.0091    1.7777    0.0000 C   0  0  0  0  0  0  0  0  0  0  0  0
    5.2947    0.5402    0.0000 O   0  0  0  0  0  0  0  0  0  0  0  0
    2.1348    2.4921    0.0000 H   0  0  0  0  0  0  0  0  0  0  0  0
    1.0079    2.1902    0.0000 H   0  0  0  0  0  0  0  0  0  0  0  0
    1.3098    1.0632    0.0000 H   0  0  0  0  0  0  0  0  0  0  0  0
    1.7223    0.9527    0.0000 H   0  0  0  0  0  0  0  0  0  0  0  0
    1.8534   -0.0432    0.0000 H   0  0  0  0  0  0  0  0  0  0  0  0
    2.8493   -0.1743    0.0000 H   0  0  0  0  0  0  0  0  0  0  0  0
    3.2337    0.7537    0.0000 H   0  0  0  0  0  0  0  0  0  0  0  0
    3.5215    2.5149    0.0000 H   0  0  0  0  0  0  0  0  0  0  0  0
    2.7810    2.5149    0.0000 H   0  0  0  0  0  0  0  0  0  0  0  0
    4.3625    0.7065    0.0000 H   0  0  0  0  0  0  0  0  0  0  0  0
    3.8657    2.1902    0.0000 H   0  0  0  0  0  0  0  0  0  0  0  0
    6.4216    1.0632    0.0000 H   0  0  0  0  0  0  0  0  0  0  0  0
    6.7236    2.1902    0.0000 H   0  0  0  0  0  0  0  0  0  0  0  0
    5.5966    2.4921    0.0000 H   0  0  0  0  0  0  0  0  0  0  0  0
  1  2  1  0  0  0  0
  2  3  1  0  0  0  0
  2  4  1  0  0  0  0
  4  5  1  0  0  0  0
  5  6  1  0  0  0  0
  6  7  1  0  0  0  0
  7  8  1  0  0  0  0
  7  9  2  0  0  0  0
  1 10  1  0  0  0  0
  1 11  1  0  0  0  0
  1 12  1  0  0  0  0
  2 13  1  0  0  0  0
  3 14  1  0  0  0  0
  3 15  1  0  0  0  0
  3 16  1  0  0  0  0
  4 17  1  0  0  0  0
  4 18  1  0  0  0  0
  5 19  1  0  0  0  0
  5 20  1  0  0  0  0
  8 21  1  0  0  0  0
  8 22  1  0  0  0  0
  8 23  1  0  0  0  0
M  END
>  <InChIKey>
InChI=1S/C7H14O2/c1-6(2)4-5-9-7(3)8/h6H,4-5H2,1-3H3

>  <CASRN>
123-92-2

> <Outcome>
1

>  <Index>
2189

>  <StandardizerResult>
Clear Stereo (ID: ClearStereo)
Wedge Clean (ID: WedgeClean)
Mesomerize (ID: Mesomerize)
Tautomerize (ID: Tautomerize)
Add Explicit Hydrogens (ID: AddExplicitH)
Neutralize (ID: Neutralize)
Clean 2D (ID: Clean2D)

> <knn Distance>


> <CpId>
2189

$$$$
2190
  Mrv1532301301811342D          

  9  8  0  0  0  0            999 V2000
    2.8865   -0.7162    0.0000 O   0  0  0  0  0  0  0  0  0  0  0  0
    2.0615   -0.7162    0.0000 C   0  0  0  0  0  0  0  0  0  0  0  0
    1.6490   -1.4306    0.0000 O   0  0  0  0  0  0  0  0  0  0  0  0
    1.6490   -0.0017    0.0000 C   0  0  0  0  0  0  0  0  0  0  0  0
    0.8240   -0.0017    0.0000 C   0  0  0  0  0  0  0  0  0  0  0  0
   -0.0010   -0.0017    0.0000 N   0  0  0  0  0  0  0  0  0  0  0  0
    3.2990   -1.4306    0.0000 H   0  0  0  0  0  0  0  0  0  0  0  0
    2.3383    0.4516    0.0000 H   0  0  0  0  0  0  0  0  0  0  0  0
    1.6970    0.8219    0.0000 H   0  0  0  0  0  0  0  0  0  0  0  0
  1  2  1  0  0  0  0
  2  3  2  0  0  0  0
  2  4  1  0  0  0  0
  4  5  1  0  0  0  0
  5  6  3  0  0  0  0
  1  7  1  0  0  0  0
  4  8  1  0  0  0  0
  4  9  1  0  0  0  0
M  END
>  <InChIKey>
InChI=1S/C3H3NO2/c4-2-1-3(5)6/h1H2,(H,5,6)

>  <CASRN>
372-09-8

> <Outcome>
1

>  <Index>
2190

>  <StandardizerResult>
Clear Stereo (ID: ClearStereo)
Wedge Clean (ID: WedgeClean)
Mesomerize (ID: Mesomerize)
Tautomerize (ID: Tautomerize)
Add Explicit Hydrogens (ID: AddExplicitH)
Neutralize (ID: Neutralize)
Clean 2D (ID: Clean2D)

> <knn Distance>


> <CpId>
2190

$$$$
2192
  Mrv1532301301811342D          

 50 49  0  0  0  0            999 V2000
    7.9480    5.4142    0.0000 C   0  0  0  0  0  0  0  0  0  0  0  0
    8.6625    5.0017    0.0000 C   0  0  0  0  0  0  0  0  0  0  0  0
    9.3770    5.4142    0.0000 C   0  0  0  0  0  0  0  0  0  0  0  0
   10.0914    5.0017    0.0000 C   0  0  0  0  0  0  0  0  0  0  0  0
   10.8059    5.4142    0.0000 C   0  0  0  0  0  0  0  0  0  0  0  0
   11.5204    5.0017    0.0000 C   0  0  0  0  0  0  0  0  0  0  0  0
   12.2349    5.4142    0.0000 C   0  0  0  0  0  0  0  0  0  0  0  0
   12.9493    5.0017    0.0000 C   0  0  0  0  0  0  0  0  0  0  0  0
   13.6638    5.4142    0.0000 C   0  0  0  0  0  0  0  0  0  0  0  0
   14.3783    5.0017    0.0000 C   0  0  0  0  0  0  0  0  0  0  0  0
   15.0927    5.4142    0.0000 C   0  0  0  0  0  0  0  0  0  0  0  0
   15.8072    5.0017    0.0000 C   0  0  0  0  0  0  0  0  0  0  0  0
   16.5217    5.4142    0.0000 C   0  0  0  0  0  0  0  0  0  0  0  0
   17.2362    5.0017    0.0000 C   0  0  0  0  0  0  0  0  0  0  0  0
   17.2362    4.1767    0.0000 O   0  0  0  0  0  0  0  0  0  0  0  0
   17.9506    5.4142    0.0000 O   0  0  0  0  0  0  0  0  0  0  0  0
   18.6651    5.0017    0.0000 C   0  0  0  0  0  0  0  0  0  0  0  0
   19.3796    5.4142    0.0000 C   0  0  0  0  0  0  0  0  0  0  0  0
    8.3605    6.1286    0.0000 H   0  0  0  0  0  0  0  0  0  0  0  0
    7.2336    5.8267    0.0000 H   0  0  0  0  0  0  0  0  0  0  0  0
    7.5355    4.6997    0.0000 H   0  0  0  0  0  0  0  0  0  0  0  0
    8.2922    4.2644    0.0000 H   0  0  0  0  0  0  0  0  0  0  0  0
    9.0328    4.2644    0.0000 H   0  0  0  0  0  0  0  0  0  0  0  0
    9.7472    6.1514    0.0000 H   0  0  0  0  0  0  0  0  0  0  0  0
    9.0067    6.1514    0.0000 H   0  0  0  0  0  0  0  0  0  0  0  0
    9.7212    4.2644    0.0000 H   0  0  0  0  0  0  0  0  0  0  0  0
   10.4617    4.2644    0.0000 H   0  0  0  0  0  0  0  0  0  0  0  0
   11.1762    6.1514    0.0000 H   0  0  0  0  0  0  0  0  0  0  0  0
   10.4357    6.1514    0.0000 H   0  0  0  0  0  0  0  0  0  0  0  0
   11.1501    4.2644    0.0000 H   0  0  0  0  0  0  0  0  0  0  0  0
   11.8906    4.2644    0.0000 H   0  0  0  0  0  0  0  0  0  0  0  0
   12.6051    6.1514    0.0000 H   0  0  0  0  0  0  0  0  0  0  0  0
   11.8646    6.1514    0.0000 H   0  0  0  0  0  0  0  0  0  0  0  0
   12.5791    4.2644    0.0000 H   0  0  0  0  0  0  0  0  0  0  0  0
   13.3196    4.2644    0.0000 H   0  0  0  0  0  0  0  0  0  0  0  0
   14.0341    6.1514    0.0000 H   0  0  0  0  0  0  0  0  0  0  0  0
   13.2935    6.1514    0.0000 H   0  0  0  0  0  0  0  0  0  0  0  0
   14.0080    4.2644    0.0000 H   0  0  0  0  0  0  0  0  0  0  0  0
   14.7485    4.2644    0.0000 H   0  0  0  0  0  0  0  0  0  0  0  0
   15.4630    6.1514    0.0000 H   0  0  0  0  0  0  0  0  0  0  0  0
   14.7225    6.1514    0.0000 H   0  0  0  0  0  0  0  0  0  0  0  0
   15.4370    4.2644    0.0000 H   0  0  0  0  0  0  0  0  0  0  0  0
   16.1775    4.2644    0.0000 H   0  0  0  0  0  0  0  0  0  0  0  0
   16.8919    6.1514    0.0000 H   0  0  0  0  0  0  0  0  0  0  0  0
   16.1514    6.1514    0.0000 H   0  0  0  0  0  0  0  0  0  0  0  0
   18.2948    4.2644    0.0000 H   0  0  0  0  0  0  0  0  0  0  0  0
   19.0354    4.2644    0.0000 H   0  0  0  0  0  0  0  0  0  0  0  0
   19.7921    4.6997    0.0000 H   0  0  0  0  0  0  0  0  0  0  0  0
   20.0940    5.8267    0.0000 H   0  0  0  0  0  0  0  0  0  0  0  0
   18.9671    6.1286    0.0000 H   0  0  0  0  0  0  0  0  0  0  0  0
  1  2  1  0  0  0  0
  2  3  1  0  0  0  0
  3  4  1  0  0  0  0
  4  5  1  0  0  0  0
  5  6  1  0  0  0  0
  6  7  1  0  0  0  0
  7  8  1  0  0  0  0
  8  9  1  0  0  0  0
  9 10  1  0  0  0  0
 10 11  1  0  0  0  0
 11 12  1  0  0  0  0
 12 13  1  0  0  0  0
 13 14  1  0  0  0  0
 14 15  2  0  0  0  0
 14 16  1  0  0  0  0
 16 17  1  0  0  0  0
 17 18  1  0  0  0  0
  1 19  1  0  0  0  0
  1 20  1  0  0  0  0
  1 21  1  0  0  0  0
  2 22  1  0  0  0  0
  2 23  1  0  0  0  0
  3 24  1  0  0  0  0
  3 25  1  0  0  0  0
  4 26  1  0  0  0  0
  4 27  1  0  0  0  0
  5 28  1  0  0  0  0
  5 29  1  0  0  0  0
  6 30  1  0  0  0  0
  6 31  1  0  0  0  0
  7 32  1  0  0  0  0
  7 33  1  0  0  0  0
  8 34  1  0  0  0  0
  8 35  1  0  0  0  0
  9 36  1  0  0  0  0
  9 37  1  0  0  0  0
 10 38  1  0  0  0  0
 10 39  1  0  0  0  0
 11 40  1  0  0  0  0
 11 41  1  0  0  0  0
 12 42  1  0  0  0  0
 12 43  1  0  0  0  0
 13 44  1  0  0  0  0
 13 45  1  0  0  0  0
 17 46  1  0  0  0  0
 17 47  1  0  0  0  0
 18 48  1  0  0  0  0
 18 49  1  0  0  0  0
 18 50  1  0  0  0  0
M  END
>  <InChIKey>
InChI=1S/C16H32O2/c1-3-5-6-7-8-9-10-11-12-13-14-15-16(17)18-4-2/h3-15H2,1-2H3

>  <CASRN>
124-06-1

> <Outcome>
1

>  <Index>
2192

>  <StandardizerResult>
Clear Stereo (ID: ClearStereo)
Wedge Clean (ID: WedgeClean)
Mesomerize (ID: Mesomerize)
Tautomerize (ID: Tautomerize)
Add Explicit Hydrogens (ID: AddExplicitH)
Neutralize (ID: Neutralize)
Clean 2D (ID: Clean2D)

> <knn Distance>


> <CpId>
2192

$$$$
2193
  Mrv1532301301811342D          

 31 31  0  0  0  0            999 V2000
   -0.6836    3.7309    0.0000 C   0  0  0  0  0  0  0  0  0  0  0  0
    0.0308    3.3184    0.0000 C   0  0  0  0  0  0  0  0  0  0  0  0
    0.0308    2.4934    0.0000 N   0  0  0  0  0  0  0  0  0  0  0  0
   -0.6836    2.0809    0.0000 C   0  0  0  0  0  0  0  0  0  0  0  0
   -0.6836    1.2559    0.0000 C   0  0  0  0  0  0  0  0  0  0  0  0
    0.7453    2.0809    0.0000 C   0  0  0  0  0  0  0  0  0  0  0  0
    1.4598    2.4934    0.0000 O   0  0  0  0  0  0  0  0  0  0  0  0
    0.7453    1.2559    0.0000 C   0  0  0  0  0  0  0  0  0  0  0  0
    1.4598    0.8434    0.0000 C   0  0  0  0  0  0  0  0  0  0  0  0
    1.4598    0.0184    0.0000 C   0  0  0  0  0  0  0  0  0  0  0  0
    0.7453   -0.3941    0.0000 C   0  0  0  0  0  0  0  0  0  0  0  0
    0.0308    0.0184    0.0000 C   0  0  0  0  0  0  0  0  0  0  0  0
   -0.6836   -0.3941    0.0000 C   0  0  0  0  0  0  0  0  0  0  0  0
    0.0308    0.8434    0.0000 C   0  0  0  0  0  0  0  0  0  0  0  0
   -0.2711    4.4454    0.0000 H   0  0  0  0  0  0  0  0  0  0  0  0
   -1.3981    4.1434    0.0000 H   0  0  0  0  0  0  0  0  0  0  0  0
   -1.0961    3.0165    0.0000 H   0  0  0  0  0  0  0  0  0  0  0  0
    0.8544    3.3664    0.0000 H   0  0  0  0  0  0  0  0  0  0  0  0
    0.4842    4.0077    0.0000 H   0  0  0  0  0  0  0  0  0  0  0  0
   -1.1370    2.7702    0.0000 H   0  0  0  0  0  0  0  0  0  0  0  0
   -1.5073    2.1289    0.0000 H   0  0  0  0  0  0  0  0  0  0  0  0
   -1.3981    1.6684    0.0000 H   0  0  0  0  0  0  0  0  0  0  0  0
   -1.3981    0.8434    0.0000 H   0  0  0  0  0  0  0  0  0  0  0  0
   -0.6836    0.4309    0.0000 H   0  0  0  0  0  0  0  0  0  0  0  0
    2.1742    1.2559    0.0000 H   0  0  0  0  0  0  0  0  0  0  0  0
    2.1742   -0.3941    0.0000 H   0  0  0  0  0  0  0  0  0  0  0  0
    0.7453   -1.2191    0.0000 H   0  0  0  0  0  0  0  0  0  0  0  0
   -1.4805   -0.1805    0.0000 H   0  0  0  0  0  0  0  0  0  0  0  0
   -1.0961   -1.1085    0.0000 H   0  0  0  0  0  0  0  0  0  0  0  0
   -0.1003   -0.9774    0.0000 H   0  0  0  0  0  0  0  0  0  0  0  0
    0.0308    1.6684    0.0000 H   0  0  0  0  0  0  0  0  0  0  0  0
  1  2  1  0  0  0  0
  2  3  1  0  0  0  0
  3  4  1  0  0  0  0
  4  5  1  0  0  0  0
  3  6  1  0  0  0  0
  6  7  2  0  0  0  0
  6  8  1  0  0  0  0
  8  9  4  0  0  0  0
  9 10  4  0  0  0  0
 10 11  4  0  0  0  0
 11 12  4  0  0  0  0
 12 13  1  0  0  0  0
 12 14  4  0  0  0  0
  8 14  4  0  0  0  0
  1 15  1  0  0  0  0
  1 16  1  0  0  0  0
  1 17  1  0  0  0  0
  2 18  1  0  0  0  0
  2 19  1  0  0  0  0
  4 20  1  0  0  0  0
  4 21  1  0  0  0  0
  5 22  1  0  0  0  0
  5 23  1  0  0  0  0
  5 24  1  0  0  0  0
  9 25  1  0  0  0  0
 10 26  1  0  0  0  0
 11 27  1  0  0  0  0
 13 28  1  0  0  0  0
 13 29  1  0  0  0  0
 13 30  1  0  0  0  0
 14 31  1  0  0  0  0
M  END
>  <InChIKey>
InChI=1S/C12H17NO/c1-4-13(5-2)12(14)11-8-6-7-10(3)9-11/h6-9H,4-5H2,1-3H3

>  <UN GHS>
2B

>  <CASRN>
134-62-3

> <Outcome>
1

>  <Index>
2193

>  <StandardizerResult>
Dearomatize (ID: Dearomatize)
Clear Stereo (ID: ClearStereo)
Wedge Clean (ID: WedgeClean)
Mesomerize (ID: Mesomerize)
Tautomerize (ID: Tautomerize)
Aromatize (ID: Aromatize)
Add Explicit Hydrogens (ID: AddExplicitH)
Neutralize (ID: Neutralize)
Clean 2D (ID: Clean2D)

> <knn Distance>


> <CpId>
2193

$$$$
2199
  Mrv1532301301811342D          

 11 10  0  0  0  0            999 V2000
    0.8250    1.4289    0.0000 C   0  0  0  0  0  0  0  0  0  0  0  0
    1.2375    0.7145    0.0000 C   0  0  0  0  0  0  0  0  0  0  0  0
    2.0625    0.7145    0.0000 Br  0  0  0  0  0  0  0  0  0  0  0  0
    0.8250   -0.0000    0.0000 C   0  0  0  0  0  0  0  0  0  0  0  0
    1.2375   -0.7145    0.0000 O   0  0  0  0  0  0  0  0  0  0  0  0
   -0.0000   -0.0000    0.0000 O   0  0  0  0  0  0  0  0  0  0  0  0
    1.5395    1.8414    0.0000 H   0  0  0  0  0  0  0  0  0  0  0  0
    0.4125    2.1434    0.0000 H   0  0  0  0  0  0  0  0  0  0  0  0
    0.1105    1.0164    0.0000 H   0  0  0  0  0  0  0  0  0  0  0  0
    1.6500    1.4289    0.0000 H   0  0  0  0  0  0  0  0  0  0  0  0
    0.8250   -1.4290    0.0000 H   0  0  0  0  0  0  0  0  0  0  0  0
  1  2  1  0  0  0  0
  2  3  1  0  0  0  0
  2  4  1  0  0  0  0
  4  5  1  0  0  0  0
  4  6  2  0  0  0  0
  1  7  1  0  0  0  0
  1  8  1  0  0  0  0
  1  9  1  0  0  0  0
  2 10  1  0  0  0  0
  5 11  1  0  0  0  0
M  END
>  <InChIKey>
InChI=1S/C3H5BrO2/c1-2(4)3(5)6/h2H,1H3,(H,5,6)

>  <CASRN>
598-72-1

> <Outcome>
1

>  <Index>
2199

>  <StandardizerResult>
Clear Stereo (ID: ClearStereo)
Wedge Clean (ID: WedgeClean)
Mesomerize (ID: Mesomerize)
Tautomerize (ID: Tautomerize)
Add Explicit Hydrogens (ID: AddExplicitH)
Neutralize (ID: Neutralize)
Clean 2D (ID: Clean2D)

> <knn Distance>


> <CpId>
2199

$$$$
2201
  Mrv1532301301811342D          

 29 30  0  0  0  0            999 V2000
    2.8574   -1.6497    0.0000 O   0  0  0  0  0  0  0  0  0  0  0  0
    2.8574   -2.4747    0.0000 C   0  0  0  0  0  0  0  0  0  0  0  0
    3.5718   -2.8872    0.0000 C   0  0  0  0  0  0  0  0  0  0  0  0
    3.5718   -3.7122    0.0000 C   0  0  0  0  0  0  0  0  0  0  0  0
    2.8574   -4.1247    0.0000 C   0  0  0  0  0  0  0  0  0  0  0  0
    2.1429   -3.7122    0.0000 C   0  0  0  0  0  0  0  0  0  0  0  0
    2.1429   -2.8872    0.0000 C   0  0  0  0  0  0  0  0  0  0  0  0
    2.8574   -4.9497    0.0000 C   0  0  0  0  0  0  0  0  0  0  0  0
    3.5718   -5.3622    0.0000 O   0  0  0  0  0  0  0  0  0  0  0  0
    2.1429   -5.3622    0.0000 O   0  0  0  0  0  0  0  0  0  0  0  0
    2.1429   -6.1872    0.0000 C   0  0  0  0  0  0  0  0  0  0  0  0
    1.4284   -6.5997    0.0000 C   0  0  0  0  0  0  0  0  0  0  0  0
    1.4284   -7.4247    0.0000 C   0  0  0  0  0  0  0  0  0  0  0  0
    0.7140   -7.8372    0.0000 C   0  0  0  0  0  0  0  0  0  0  0  0
   -0.0005   -7.4247    0.0000 C   0  0  0  0  0  0  0  0  0  0  0  0
   -0.0005   -6.5997    0.0000 C   0  0  0  0  0  0  0  0  0  0  0  0
    0.7140   -6.1872    0.0000 C   0  0  0  0  0  0  0  0  0  0  0  0
    3.5718   -1.2372    0.0000 H   0  0  0  0  0  0  0  0  0  0  0  0
    4.2863   -2.4747    0.0000 H   0  0  0  0  0  0  0  0  0  0  0  0
    4.2863   -4.1247    0.0000 H   0  0  0  0  0  0  0  0  0  0  0  0
    1.4284   -4.1247    0.0000 H   0  0  0  0  0  0  0  0  0  0  0  0
    1.4284   -2.4747    0.0000 H   0  0  0  0  0  0  0  0  0  0  0  0
    2.5962   -6.8765    0.0000 H   0  0  0  0  0  0  0  0  0  0  0  0
    2.9665   -6.2352    0.0000 H   0  0  0  0  0  0  0  0  0  0  0  0
    2.1429   -7.8372    0.0000 H   0  0  0  0  0  0  0  0  0  0  0  0
    0.7140   -8.6622    0.0000 H   0  0  0  0  0  0  0  0  0  0  0  0
   -0.7150   -7.8372    0.0000 H   0  0  0  0  0  0  0  0  0  0  0  0
   -0.7150   -6.1872    0.0000 H   0  0  0  0  0  0  0  0  0  0  0  0
    0.7140   -5.3622    0.0000 H   0  0  0  0  0  0  0  0  0  0  0  0
  1  2  1  0  0  0  0
  2  3  4  0  0  0  0
  3  4  4  0  0  0  0
  4  5  4  0  0  0  0
  5  6  4  0  0  0  0
  6  7  4  0  0  0  0
  2  7  4  0  0  0  0
  5  8  1  0  0  0  0
  8  9  2  0  0  0  0
  8 10  1  0  0  0  0
 10 11  1  0  0  0  0
 11 12  1  0  0  0  0
 12 13  4  0  0  0  0
 13 14  4  0  0  0  0
 14 15  4  0  0  0  0
 15 16  4  0  0  0  0
 16 17  4  0  0  0  0
 12 17  4  0  0  0  0
  1 18  1  0  0  0  0
  3 19  1  0  0  0  0
  4 20  1  0  0  0  0
  6 21  1  0  0  0  0
  7 22  1  0  0  0  0
 11 23  1  0  0  0  0
 11 24  1  0  0  0  0
 13 25  1  0  0  0  0
 14 26  1  0  0  0  0
 15 27  1  0  0  0  0
 16 28  1  0  0  0  0
 17 29  1  0  0  0  0
M  END
>  <InChIKey>
InChI=1S/C14H12O3/c15-13-8-6-12(7-9-13)14(16)17-10-11-4-2-1-3-5-11/h1-9,15H,10H2

>  <CASRN>
94-18-8

> <Outcome>
1

>  <Index>
2201

>  <StandardizerResult>
Dearomatize (ID: Dearomatize)
Clear Stereo (ID: ClearStereo)
Wedge Clean (ID: WedgeClean)
Mesomerize (ID: Mesomerize)
Tautomerize (ID: Tautomerize)
Aromatize (ID: Aromatize)
Add Explicit Hydrogens (ID: AddExplicitH)
Neutralize (ID: Neutralize)
Clean 2D (ID: Clean2D)

> <knn Distance>


> <CpId>
2201

$$$$
2202
  Mrv1532301301811342D          

 80 84  0  0  0  0            999 V2000
    6.9328    1.4336    0.0000 C   0  0  0  0  0  0  0  0  0  0  0  0
    6.1575    1.1514    0.0000 C   0  0  0  0  0  0  0  0  0  0  0  0
    6.0143    1.9639    0.0000 C   0  0  0  0  0  0  0  0  0  0  0  0
    6.5700    0.4369    0.0000 C   0  0  0  0  0  0  0  0  0  0  0  0
    7.3950    0.4369    0.0000 O   0  0  0  0  0  0  0  0  0  0  0  0
    6.1575   -0.2775    0.0000 C   0  0  0  0  0  0  0  0  0  0  0  0
    5.3325   -0.2775    0.0000 C   0  0  0  0  0  0  0  0  0  0  0  0
    4.9200    0.4369    0.0000 C   0  0  0  0  0  0  0  0  0  0  0  0
    4.5075   -0.2775    0.0000 C   0  0  0  0  0  0  0  0  0  0  0  0
    5.3325    1.1514    0.0000 C   0  0  0  0  0  0  0  0  0  0  0  0
    4.9200    1.8659    0.0000 C   0  0  0  0  0  0  0  0  0  0  0  0
    4.0950    1.8659    0.0000 C   0  0  0  0  0  0  0  0  0  0  0  0
    3.6825    1.1514    0.0000 C   0  0  0  0  0  0  0  0  0  0  0  0
    3.2700    1.8659    0.0000 C   0  0  0  0  0  0  0  0  0  0  0  0
    4.0950    0.4369    0.0000 C   0  0  0  0  0  0  0  0  0  0  0  0
    3.6825   -0.2775    0.0000 C   0  0  0  0  0  0  0  0  0  0  0  0
    4.0950   -0.9920    0.0000 O   0  0  0  0  0  0  0  0  0  0  0  0
    2.8575   -0.2775    0.0000 C   0  0  0  0  0  0  0  0  0  0  0  0
    2.4450    0.4369    0.0000 C   0  0  0  0  0  0  0  0  0  0  0  0
    1.6200    0.4369    0.0000 C   0  0  0  0  0  0  0  0  0  0  0  0
    1.2075   -0.2775    0.0000 C   0  0  0  0  0  0  0  0  0  0  0  0
    0.3825   -0.2775    0.0000 C   0  0  0  0  0  0  0  0  0  0  0  0
    0.5258   -1.0900    0.0000 C   0  0  0  0  0  0  0  0  0  0  0  0
   -0.0300    0.4369    0.0000 C   0  0  0  0  0  0  0  0  0  0  0  0
    0.3825    1.1514    0.0000 C   0  0  0  0  0  0  0  0  0  0  0  0
    1.2075    1.1514    0.0000 C   0  0  0  0  0  0  0  0  0  0  0  0
    0.7950    1.8659    0.0000 C   0  0  0  0  0  0  0  0  0  0  0  0
    1.6200    1.8659    0.0000 C   0  0  0  0  0  0  0  0  0  0  0  0
    2.4450    1.8659    0.0000 C   0  0  0  0  0  0  0  0  0  0  0  0
    2.8575    1.1514    0.0000 C   0  0  0  0  0  0  0  0  0  0  0  0
    2.7713    1.9719    0.0000 C   0  0  0  0  0  0  0  0  0  0  0  0
   -0.3927   -0.5597    0.0000 C   0  0  0  0  0  0  0  0  0  0  0  0
   -0.5360   -1.3722    0.0000 O   0  0  0  0  0  0  0  0  0  0  0  0
   -1.0247   -0.0294    0.0000 O   0  0  0  0  0  0  0  0  0  0  0  0
    7.2150    0.6583    0.0000 H   0  0  0  0  0  0  0  0  0  0  0  0
    7.7080    1.7157    0.0000 H   0  0  0  0  0  0  0  0  0  0  0  0
    6.6506    2.2088    0.0000 H   0  0  0  0  0  0  0  0  0  0  0  0
    6.0749    2.7866    0.0000 H   0  0  0  0  0  0  0  0  0  0  0  0
    5.2961    2.3698    0.0000 H   0  0  0  0  0  0  0  0  0  0  0  0
    5.3407    1.4876    0.0000 H   0  0  0  0  0  0  0  0  0  0  0  0
    6.9825   -0.2775    0.0000 H   0  0  0  0  0  0  0  0  0  0  0  0
    8.2174    0.5026    0.0000 H   0  0  0  0  0  0  0  0  0  0  0  0
    5.8754   -1.0528    0.0000 H   0  0  0  0  0  0  0  0  0  0  0  0
    6.4397   -1.0528    0.0000 H   0  0  0  0  0  0  0  0  0  0  0  0
    4.9516   -1.0093    0.0000 H   0  0  0  0  0  0  0  0  0  0  0  0
    5.7450    0.4369    0.0000 H   0  0  0  0  0  0  0  0  0  0  0  0
    4.3702   -1.0910    0.0000 H   0  0  0  0  0  0  0  0  0  0  0  0
    4.6626   -1.0878    0.0000 H   0  0  0  0  0  0  0  0  0  0  0  0
    3.7931   -0.6900    0.0000 H   0  0  0  0  0  0  0  0  0  0  0  0
    4.5075    1.1514    0.0000 H   0  0  0  0  0  0  0  0  0  0  0  0
    4.8408    2.6871    0.0000 H   0  0  0  0  0  0  0  0  0  0  0  0
    4.3093    2.4205    0.0000 H   0  0  0  0  0  0  0  0  0  0  0  0
    3.8688    2.6592    0.0000 H   0  0  0  0  0  0  0  0  0  0  0  0
    3.4365    2.3628    0.0000 H   0  0  0  0  0  0  0  0  0  0  0  0
    3.1894    2.6869    0.0000 H   0  0  0  0  0  0  0  0  0  0  0  0
    2.8608    2.5822    0.0000 H   0  0  0  0  0  0  0  0  0  0  0  0
    2.6037    2.3523    0.0000 H   0  0  0  0  0  0  0  0  0  0  0  0
    3.2700    0.4369    0.0000 H   0  0  0  0  0  0  0  0  0  0  0  0
    2.4450   -0.9920    0.0000 H   0  0  0  0  0  0  0  0  0  0  0  0
    2.0325   -0.2775    0.0000 H   0  0  0  0  0  0  0  0  0  0  0  0
    0.9254   -1.0528    0.0000 H   0  0  0  0  0  0  0  0  0  0  0  0
    1.4897   -1.0528    0.0000 H   0  0  0  0  0  0  0  0  0  0  0  0
   -0.2731   -0.8842    0.0000 H   0  0  0  0  0  0  0  0  0  0  0  0
    0.0078   -1.7321    0.0000 H   0  0  0  0  0  0  0  0  0  0  0  0
    0.8960   -1.8273    0.0000 H   0  0  0  0  0  0  0  0  0  0  0  0
   -0.7672    0.8072    0.0000 H   0  0  0  0  0  0  0  0  0  0  0  0
   -0.7672    0.0667    0.0000 H   0  0  0  0  0  0  0  0  0  0  0  0
   -0.1478    1.7834    0.0000 H   0  0  0  0  0  0  0  0  0  0  0  0
   -0.4299    1.2947    0.0000 H   0  0  0  0  0  0  0  0  0  0  0  0
    1.3655    2.4618    0.0000 H   0  0  0  0  0  0  0  0  0  0  0  0
    0.7591    2.6901    0.0000 H   0  0  0  0  0  0  0  0  0  0  0  0
    0.1748    2.4098    0.0000 H   0  0  0  0  0  0  0  0  0  0  0  0
    2.0746    2.5543    0.0000 H   0  0  0  0  0  0  0  0  0  0  0  0
    2.0325    1.1514    0.0000 H   0  0  0  0  0  0  0  0  0  0  0  0
    2.4450    1.0409    0.0000 H   0  0  0  0  0  0  0  0  0  0  0  0
    2.3716    2.6876    0.0000 H   0  0  0  0  0  0  0  0  0  0  0  0
    3.1838    1.2574    0.0000 H   0  0  0  0  0  0  0  0  0  0  0  0
    3.4388    1.4870    0.0000 H   0  0  0  0  0  0  0  0  0  0  0  0
    3.2918    2.6120    0.0000 H   0  0  0  0  0  0  0  0  0  0  0  0
   -1.2940   -1.6978    0.0000 H   0  0  0  0  0  0  0  0  0  0  0  0
  1  2  1  0  0  0  0
  2  3  1  0  0  0  0
  2  4  1  0  0  0  0
  4  5  1  0  0  0  0
  4  6  1  0  0  0  0
  6  7  1  0  0  0  0
  7  8  1  0  0  0  0
  8  9  1  0  0  0  0
  8 10  1  0  0  0  0
  2 10  1  0  0  0  0
 10 11  1  0  0  0  0
 11 12  1  0  0  0  0
 12 13  1  0  0  0  0
 13 14  1  0  0  0  0
 13 15  1  0  0  0  0
  8 15  1  0  0  0  0
 15 16  1  0  0  0  0
 16 17  2  0  0  0  0
 16 18  1  0  0  0  0
 18 19  2  0  0  0  0
 19 20  1  0  0  0  0
 20 21  1  0  0  0  0
 21 22  1  0  0  0  0
 22 23  1  0  0  0  0
 22 24  1  0  0  0  0
 24 25  1  0  0  0  0
 25 26  1  0  0  0  0
 20 26  1  0  0  0  0
 26 27  1  0  0  0  0
 26 28  1  0  0  0  0
 28 29  1  0  0  0  0
 29 30  1  0  0  0  0
 13 30  1  0  0  0  0
 19 30  1  0  0  0  0
 30 31  1  0  0  0  0
 22 32  1  0  0  0  0
 32 33  1  0  0  0  0
 32 34  2  0  0  0  0
  1 35  1  0  0  0  0
  1 36  1  0  0  0  0
  1 37  1  0  0  0  0
  3 38  1  0  0  0  0
  3 39  1  0  0  0  0
  3 40  1  0  0  0  0
  4 41  1  0  0  0  0
  5 42  1  0  0  0  0
  6 43  1  0  0  0  0
  6 44  1  0  0  0  0
  7 45  1  0  0  0  0
  7 46  1  0  0  0  0
  9 47  1  0  0  0  0
  9 48  1  0  0  0  0
  9 49  1  0  0  0  0
 10 50  1  0  0  0  0
 11 51  1  0  0  0  0
 11 52  1  0  0  0  0
 12 53  1  0  0  0  0
 12 54  1  0  0  0  0
 14 55  1  0  0  0  0
 14 56  1  0  0  0  0
 14 57  1  0  0  0  0
 15 58  1  0  0  0  0
 18 59  1  0  0  0  0
 20 60  1  0  0  0  0
 21 61  1  0  0  0  0
 21 62  1  0  0  0  0
 23 63  1  0  0  0  0
 23 64  1  0  0  0  0
 23 65  1  0  0  0  0
 24 66  1  0  0  0  0
 24 67  1  0  0  0  0
 25 68  1  0  0  0  0
 25 69  1  0  0  0  0
 27 70  1  0  0  0  0
 27 71  1  0  0  0  0
 27 72  1  0  0  0  0
 28 73  1  0  0  0  0
 28 74  1  0  0  0  0
 29 75  1  0  0  0  0
 29 76  1  0  0  0  0
 31 77  1  0  0  0  0
 31 78  1  0  0  0  0
 31 79  1  0  0  0  0
 33 80  1  0  0  0  0
M  END
>  <InChIKey>
InChI=1S/C30H46O4/c1-25(2)21-8-11-30(7)23(28(21,5)10-9-22(25)32)20(31)16-18-19-17-27(4,24(33)34)13-12-26(19,3)14-15-29(18,30)6/h16,19,21-23,32H,8-15,17H2,1-7H3,(H,33,34)

>  <CASRN>
471-53-4

> <Outcome>
1

>  <Index>
2202

>  <StandardizerResult>
Clear Stereo (ID: ClearStereo)
Wedge Clean (ID: WedgeClean)
Mesomerize (ID: Mesomerize)
Tautomerize (ID: Tautomerize)
Add Explicit Hydrogens (ID: AddExplicitH)
Neutralize (ID: Neutralize)
Clean 2D (ID: Clean2D)

> <knn Distance>


> <CpId>
2202

$$$$
2203
  Mrv1532301301811342D          

 37 37  0  0  0  0            999 V2000
    5.7863    2.8948    0.0000 C   0  0  0  0  0  0  0  0  0  0  0  0
    6.5007    3.3073    0.0000 C   0  0  0  0  0  0  0  0  0  0  0  0
    7.2152    2.8948    0.0000 C   0  0  0  0  0  0  0  0  0  0  0  0
    7.9297    3.3073    0.0000 C   0  0  0  0  0  0  0  0  0  0  0  0
    8.6441    2.8948    0.0000 C   0  0  0  0  0  0  0  0  0  0  0  0
    9.3586    3.3073    0.0000 C   0  0  0  0  0  0  0  0  0  0  0  0
   10.0731    2.8948    0.0000 C   0  0  0  0  0  0  0  0  0  0  0  0
   10.7876    3.3073    0.0000 C   0  0  0  0  0  0  0  0  0  0  0  0
   11.5020    2.8948    0.0000 C   0  0  0  0  0  0  0  0  0  0  0  0
   12.2165    3.3073    0.0000 C   0  0  0  0  0  0  0  0  0  0  0  0
   12.9310    2.8948    0.0000 C   0  0  0  0  0  0  0  0  0  0  0  0
   13.7560    2.8948    0.0000 C   0  0  0  0  0  0  0  0  0  0  0  0
   13.3435    2.1803    0.0000 O   0  0  0  0  0  0  0  0  0  0  0  0
    5.3738    3.6093    0.0000 H   0  0  0  0  0  0  0  0  0  0  0  0
    5.0718    2.4823    0.0000 H   0  0  0  0  0  0  0  0  0  0  0  0
    6.1988    2.1803    0.0000 H   0  0  0  0  0  0  0  0  0  0  0  0
    6.8710    4.0445    0.0000 H   0  0  0  0  0  0  0  0  0  0  0  0
    6.1305    4.0445    0.0000 H   0  0  0  0  0  0  0  0  0  0  0  0
    6.8449    2.1575    0.0000 H   0  0  0  0  0  0  0  0  0  0  0  0
    7.5855    2.1575    0.0000 H   0  0  0  0  0  0  0  0  0  0  0  0
    8.2999    4.0445    0.0000 H   0  0  0  0  0  0  0  0  0  0  0  0
    7.5594    4.0445    0.0000 H   0  0  0  0  0  0  0  0  0  0  0  0
    8.2739    2.1575    0.0000 H   0  0  0  0  0  0  0  0  0  0  0  0
    9.0144    2.1575    0.0000 H   0  0  0  0  0  0  0  0  0  0  0  0
    9.7289    4.0445    0.0000 H   0  0  0  0  0  0  0  0  0  0  0  0
    8.9884    4.0445    0.0000 H   0  0  0  0  0  0  0  0  0  0  0  0
    9.7028    2.1575    0.0000 H   0  0  0  0  0  0  0  0  0  0  0  0
   10.4433    2.1575    0.0000 H   0  0  0  0  0  0  0  0  0  0  0  0
   11.1578    4.0445    0.0000 H   0  0  0  0  0  0  0  0  0  0  0  0
   10.4173    4.0445    0.0000 H   0  0  0  0  0  0  0  0  0  0  0  0
   11.1318    2.1575    0.0000 H   0  0  0  0  0  0  0  0  0  0  0  0
   11.8723    2.1575    0.0000 H   0  0  0  0  0  0  0  0  0  0  0  0
   12.5868    4.0445    0.0000 H   0  0  0  0  0  0  0  0  0  0  0  0
   11.8462    4.0445    0.0000 H   0  0  0  0  0  0  0  0  0  0  0  0
   12.3476    2.3114    0.0000 H   0  0  0  0  0  0  0  0  0  0  0  0
   14.5796    2.8468    0.0000 H   0  0  0  0  0  0  0  0  0  0  0  0
   14.1262    3.6320    0.0000 H   0  0  0  0  0  0  0  0  0  0  0  0
  1  2  1  0  0  0  0
  2  3  1  0  0  0  0
  3  4  1  0  0  0  0
  4  5  1  0  0  0  0
  5  6  1  0  0  0  0
  6  7  1  0  0  0  0
  7  8  1  0  0  0  0
  8  9  1  0  0  0  0
  9 10  1  0  0  0  0
 10 11  1  0  0  0  0
 11 12  1  0  0  0  0
 12 13  1  0  0  0  0
 11 13  1  0  0  0  0
  1 14  1  0  0  0  0
  1 15  1  0  0  0  0
  1 16  1  0  0  0  0
  2 17  1  0  0  0  0
  2 18  1  0  0  0  0
  3 19  1  0  0  0  0
  3 20  1  0  0  0  0
  4 21  1  0  0  0  0
  4 22  1  0  0  0  0
  5 23  1  0  0  0  0
  5 24  1  0  0  0  0
  6 25  1  0  0  0  0
  6 26  1  0  0  0  0
  7 27  1  0  0  0  0
  7 28  1  0  0  0  0
  8 29  1  0  0  0  0
  8 30  1  0  0  0  0
  9 31  1  0  0  0  0
  9 32  1  0  0  0  0
 10 33  1  0  0  0  0
 10 34  1  0  0  0  0
 11 35  1  0  0  0  0
 12 36  1  0  0  0  0
 12 37  1  0  0  0  0
M  END
>  <InChIKey>
InChI=1S/C12H24O/c1-2-3-4-5-6-7-8-9-10-12-11-13-12/h12H,2-11H2,1H3

>  <CASRN>
2855-19-8

> <Outcome>
1

>  <Index>
2203

>  <StandardizerResult>
Clear Stereo (ID: ClearStereo)
Wedge Clean (ID: WedgeClean)
Mesomerize (ID: Mesomerize)
Tautomerize (ID: Tautomerize)
Add Explicit Hydrogens (ID: AddExplicitH)
Neutralize (ID: Neutralize)
Clean 2D (ID: Clean2D)

> <knn Distance>


> <CpId>
2203

$$$$
2206
  Mrv1532301301811342D          

 66 66  0  0  0  0            999 V2000
   -2.8581   -6.5996    0.0000 C   0  0  0  0  0  0  0  0  0  0  0  0
   -2.1436   -6.1871    0.0000 C   0  0  0  0  0  0  0  0  0  0  0  0
   -2.1436   -5.3621    0.0000 C   0  0  0  0  0  0  0  0  0  0  0  0
   -1.4292   -4.9496    0.0000 C   0  0  0  0  0  0  0  0  0  0  0  0
   -1.4292   -4.1246    0.0000 C   0  0  0  0  0  0  0  0  0  0  0  0
   -0.7147   -3.7121    0.0000 C   0  0  0  0  0  0  0  0  0  0  0  0
   -0.7147   -2.8871    0.0000 C   0  0  0  0  0  0  0  0  0  0  0  0
   -0.0002   -2.4746    0.0000 C   0  0  0  0  0  0  0  0  0  0  0  0
   -0.0002   -1.6496    0.0000 O   0  0  0  0  0  0  0  0  0  0  0  0
    0.7142   -1.2371    0.0000 C   0  0  0  0  0  0  0  0  0  0  0  0
    1.4287   -1.6496    0.0000 O   0  0  0  0  0  0  0  0  0  0  0  0
    0.7142   -0.4121    0.0000 C   0  0  0  0  0  0  0  0  0  0  0  0
   -0.0002    0.0004    0.0000 C   0  0  0  0  0  0  0  0  0  0  0  0
   -0.0002    0.8254    0.0000 C   0  0  0  0  0  0  0  0  0  0  0  0
    0.7142    1.2379    0.0000 C   0  0  0  0  0  0  0  0  0  0  0  0
    1.4287    0.8254    0.0000 C   0  0  0  0  0  0  0  0  0  0  0  0
    1.4287    0.0004    0.0000 C   0  0  0  0  0  0  0  0  0  0  0  0
    2.1432   -0.4121    0.0000 C   0  0  0  0  0  0  0  0  0  0  0  0
    2.1432   -1.2371    0.0000 O   0  0  0  0  0  0  0  0  0  0  0  0
    2.8577    0.0004    0.0000 O   0  0  0  0  0  0  0  0  0  0  0  0
    3.5721   -0.4121    0.0000 C   0  0  0  0  0  0  0  0  0  0  0  0
    4.2866    0.0004    0.0000 C   0  0  0  0  0  0  0  0  0  0  0  0
    5.0011   -0.4121    0.0000 C   0  0  0  0  0  0  0  0  0  0  0  0
    5.7155    0.0004    0.0000 C   0  0  0  0  0  0  0  0  0  0  0  0
    6.4300   -0.4121    0.0000 C   0  0  0  0  0  0  0  0  0  0  0  0
    7.1445    0.0004    0.0000 C   0  0  0  0  0  0  0  0  0  0  0  0
    7.8590   -0.4121    0.0000 C   0  0  0  0  0  0  0  0  0  0  0  0
    8.5734    0.0004    0.0000 C   0  0  0  0  0  0  0  0  0  0  0  0
   -3.2706   -5.8851    0.0000 H   0  0  0  0  0  0  0  0  0  0  0  0
   -3.5726   -7.0121    0.0000 H   0  0  0  0  0  0  0  0  0  0  0  0
   -2.4456   -7.3141    0.0000 H   0  0  0  0  0  0  0  0  0  0  0  0
   -1.6903   -6.8764    0.0000 H   0  0  0  0  0  0  0  0  0  0  0  0
   -1.3200   -6.2351    0.0000 H   0  0  0  0  0  0  0  0  0  0  0  0
   -2.5970   -4.6728    0.0000 H   0  0  0  0  0  0  0  0  0  0  0  0
   -2.9672   -5.3141    0.0000 H   0  0  0  0  0  0  0  0  0  0  0  0
   -0.9758   -5.6389    0.0000 H   0  0  0  0  0  0  0  0  0  0  0  0
   -0.6056   -4.9976    0.0000 H   0  0  0  0  0  0  0  0  0  0  0  0
   -1.8825   -3.4353    0.0000 H   0  0  0  0  0  0  0  0  0  0  0  0
   -2.2528   -4.0766    0.0000 H   0  0  0  0  0  0  0  0  0  0  0  0
   -0.2614   -4.4014    0.0000 H   0  0  0  0  0  0  0  0  0  0  0  0
    0.1089   -3.7601    0.0000 H   0  0  0  0  0  0  0  0  0  0  0  0
   -1.1680   -2.1978    0.0000 H   0  0  0  0  0  0  0  0  0  0  0  0
   -1.5383   -2.8391    0.0000 H   0  0  0  0  0  0  0  0  0  0  0  0
    0.4531   -3.1639    0.0000 H   0  0  0  0  0  0  0  0  0  0  0  0
    0.8234   -2.5226    0.0000 H   0  0  0  0  0  0  0  0  0  0  0  0
   -0.7147   -0.4121    0.0000 H   0  0  0  0  0  0  0  0  0  0  0  0
   -0.7147    1.2379    0.0000 H   0  0  0  0  0  0  0  0  0  0  0  0
    0.7142    2.0629    0.0000 H   0  0  0  0  0  0  0  0  0  0  0  0
    2.1432    1.2379    0.0000 H   0  0  0  0  0  0  0  0  0  0  0  0
    3.2019   -1.1493    0.0000 H   0  0  0  0  0  0  0  0  0  0  0  0
    3.9424   -1.1493    0.0000 H   0  0  0  0  0  0  0  0  0  0  0  0
    4.6569    0.7376    0.0000 H   0  0  0  0  0  0  0  0  0  0  0  0
    3.9163    0.7376    0.0000 H   0  0  0  0  0  0  0  0  0  0  0  0
    4.6308   -1.1493    0.0000 H   0  0  0  0  0  0  0  0  0  0  0  0
    5.3713   -1.1493    0.0000 H   0  0  0  0  0  0  0  0  0  0  0  0
    6.0858    0.7376    0.0000 H   0  0  0  0  0  0  0  0  0  0  0  0
    5.3453    0.7376    0.0000 H   0  0  0  0  0  0  0  0  0  0  0  0
    6.0598   -1.1493    0.0000 H   0  0  0  0  0  0  0  0  0  0  0  0
    6.8003   -1.1493    0.0000 H   0  0  0  0  0  0  0  0  0  0  0  0
    7.5147    0.7376    0.0000 H   0  0  0  0  0  0  0  0  0  0  0  0
    6.7742    0.7376    0.0000 H   0  0  0  0  0  0  0  0  0  0  0  0
    7.4887   -1.1493    0.0000 H   0  0  0  0  0  0  0  0  0  0  0  0
    8.2292   -1.1493    0.0000 H   0  0  0  0  0  0  0  0  0  0  0  0
    8.9859   -0.7141    0.0000 H   0  0  0  0  0  0  0  0  0  0  0  0
    9.2879    0.4129    0.0000 H   0  0  0  0  0  0  0  0  0  0  0  0
    8.1609    0.7149    0.0000 H   0  0  0  0  0  0  0  0  0  0  0  0
  1  2  1  0  0  0  0
  2  3  1  0  0  0  0
  3  4  1  0  0  0  0
  4  5  1  0  0  0  0
  5  6  1  0  0  0  0
  6  7  1  0  0  0  0
  7  8  1  0  0  0  0
  8  9  1  0  0  0  0
  9 10  1  0  0  0  0
 10 11  2  0  0  0  0
 10 12  1  0  0  0  0
 12 13  4  0  0  0  0
 13 14  4  0  0  0  0
 14 15  4  0  0  0  0
 15 16  4  0  0  0  0
 16 17  4  0  0  0  0
 12 17  4  0  0  0  0
 17 18  1  0  0  0  0
 18 19  2  0  0  0  0
 18 20  1  0  0  0  0
 20 21  1  0  0  0  0
 21 22  1  0  0  0  0
 22 23  1  0  0  0  0
 23 24  1  0  0  0  0
 24 25  1  0  0  0  0
 25 26  1  0  0  0  0
 26 27  1  0  0  0  0
 27 28  1  0  0  0  0
  1 29  1  0  0  0  0
  1 30  1  0  0  0  0
  1 31  1  0  0  0  0
  2 32  1  0  0  0  0
  2 33  1  0  0  0  0
  3 34  1  0  0  0  0
  3 35  1  0  0  0  0
  4 36  1  0  0  0  0
  4 37  1  0  0  0  0
  5 38  1  0  0  0  0
  5 39  1  0  0  0  0
  6 40  1  0  0  0  0
  6 41  1  0  0  0  0
  7 42  1  0  0  0  0
  7 43  1  0  0  0  0
  8 44  1  0  0  0  0
  8 45  1  0  0  0  0
 13 46  1  0  0  0  0
 14 47  1  0  0  0  0
 15 48  1  0  0  0  0
 16 49  1  0  0  0  0
 21 50  1  0  0  0  0
 21 51  1  0  0  0  0
 22 52  1  0  0  0  0
 22 53  1  0  0  0  0
 23 54  1  0  0  0  0
 23 55  1  0  0  0  0
 24 56  1  0  0  0  0
 24 57  1  0  0  0  0
 25 58  1  0  0  0  0
 25 59  1  0  0  0  0
 26 60  1  0  0  0  0
 26 61  1  0  0  0  0
 27 62  1  0  0  0  0
 27 63  1  0  0  0  0
 28 64  1  0  0  0  0
 28 65  1  0  0  0  0
 28 66  1  0  0  0  0
M  END
>  <InChIKey>
InChI=1S/C24H38O4/c1-3-5-7-9-11-15-19-27-23(25)21-17-13-14-18-22(21)24(26)28-20-16-12-10-8-6-4-2/h13-14,17-18H,3-12,15-16,19-20H2,1-2H3

>  <CASRN>
117-84-0

> <Outcome>
1

>  <Index>
2206

>  <StandardizerResult>
Dearomatize (ID: Dearomatize)
Clear Stereo (ID: ClearStereo)
Wedge Clean (ID: WedgeClean)
Mesomerize (ID: Mesomerize)
Tautomerize (ID: Tautomerize)
Aromatize (ID: Aromatize)
Add Explicit Hydrogens (ID: AddExplicitH)
Neutralize (ID: Neutralize)
Clean 2D (ID: Clean2D)

> <knn Distance>


> <CpId>
2206

$$$$
2211
  Mrv1532301301811342D          

 18 18  0  0  0  0            999 V2000
    0.7145    2.0625    0.0000 N   0  0  0  0  0  0  0  0  0  0  0  0
    0.7145    1.2375    0.0000 C   0  0  0  0  0  0  0  0  0  0  0  0
    1.4289    0.8250    0.0000 C   0  0  0  0  0  0  0  0  0  0  0  0
    1.4289   -0.0000    0.0000 C   0  0  0  0  0  0  0  0  0  0  0  0
    0.7145   -0.4125    0.0000 C   0  0  0  0  0  0  0  0  0  0  0  0
    0.0000   -0.0000    0.0000 C   0  0  0  0  0  0  0  0  0  0  0  0
    0.0000    0.8250    0.0000 C   0  0  0  0  0  0  0  0  0  0  0  0
   -0.7145    1.2375    0.0000 O   0  0  0  0  0  0  0  0  0  0  0  0
    2.1434   -0.4125    0.0000 C   0  0  0  0  0  0  0  0  0  0  0  0
    2.8579   -0.0000    0.0000 O   0  0  0  0  0  0  0  0  0  0  0  0
    2.1434   -1.2375    0.0000 O   0  0  0  0  0  0  0  0  0  0  0  0
    1.4289    2.4750    0.0000 H   0  0  0  0  0  0  0  0  0  0  0  0
    0.0000    2.4750    0.0000 H   0  0  0  0  0  0  0  0  0  0  0  0
    2.1434    1.2375    0.0000 H   0  0  0  0  0  0  0  0  0  0  0  0
    0.7145   -1.2375    0.0000 H   0  0  0  0  0  0  0  0  0  0  0  0
   -0.7145   -0.4125    0.0000 H   0  0  0  0  0  0  0  0  0  0  0  0
   -0.7145    2.0625    0.0000 H   0  0  0  0  0  0  0  0  0  0  0  0
    3.5724   -0.4125    0.0000 H   0  0  0  0  0  0  0  0  0  0  0  0
  1  2  1  0  0  0  0
  2  3  4  0  0  0  0
  3  4  4  0  0  0  0
  4  5  4  0  0  0  0
  5  6  4  0  0  0  0
  6  7  4  0  0  0  0
  2  7  4  0  0  0  0
  7  8  1  0  0  0  0
  4  9  1  0  0  0  0
  9 10  1  0  0  0  0
  9 11  2  0  0  0  0
  1 12  1  0  0  0  0
  1 13  1  0  0  0  0
  3 14  1  0  0  0  0
  5 15  1  0  0  0  0
  6 16  1  0  0  0  0
  8 17  1  0  0  0  0
 10 18  1  0  0  0  0
M  END
>  <InChIKey>
InChI=1S/C7H7NO3/c8-5-3-4(7(10)11)1-2-6(5)9/h1-3,9H,8H2,(H,10,11)

>  <CASRN>
1571-72-8

> <Outcome>
1

>  <Index>
2211

>  <StandardizerResult>
Dearomatize (ID: Dearomatize)
Clear Stereo (ID: ClearStereo)
Wedge Clean (ID: WedgeClean)
Mesomerize (ID: Mesomerize)
Tautomerize (ID: Tautomerize)
Aromatize (ID: Aromatize)
Add Explicit Hydrogens (ID: AddExplicitH)
Neutralize (ID: Neutralize)
Clean 2D (ID: Clean2D)

> <knn Distance>


> <CpId>
2211

$$$$
2216
  Mrv1532301301811342D          

 17 17  0  0  0  0            999 V2000
    0.7145    2.0625    0.0000 O   0  0  0  0  0  0  0  0  0  0  0  0
    0.7145    1.2375    0.0000 C   0  0  0  0  0  0  0  0  0  0  0  0
    1.4289    0.8250    0.0000 C   0  0  0  0  0  0  0  0  0  0  0  0
    1.4289    0.0000    0.0000 C   0  0  0  0  0  0  0  0  0  0  0  0
    0.7145   -0.4125    0.0000 C   0  0  0  0  0  0  0  0  0  0  0  0
   -0.0000    0.0000    0.0000 C   0  0  0  0  0  0  0  0  0  0  0  0
   -0.0000    0.8250    0.0000 C   0  0  0  0  0  0  0  0  0  0  0  0
    0.7145   -1.2375    0.0000 C   0  0  0  0  0  0  0  0  0  0  0  0
    1.4289   -1.6500    0.0000 O   0  0  0  0  0  0  0  0  0  0  0  0
   -0.0000   -1.6500    0.0000 C   0  0  0  0  0  0  0  0  0  0  0  0
   -0.0000   -2.4750    0.0000 O   0  0  0  0  0  0  0  0  0  0  0  0
    1.4289    2.4750    0.0000 H   0  0  0  0  0  0  0  0  0  0  0  0
    2.1434    1.2375    0.0000 H   0  0  0  0  0  0  0  0  0  0  0  0
    2.1434   -0.4125    0.0000 H   0  0  0  0  0  0  0  0  0  0  0  0
   -0.7145   -0.4125    0.0000 H   0  0  0  0  0  0  0  0  0  0  0  0
   -0.7145    1.2375    0.0000 H   0  0  0  0  0  0  0  0  0  0  0  0
   -0.7145   -1.2375    0.0000 H   0  0  0  0  0  0  0  0  0  0  0  0
  1  2  1  0  0  0  0
  2  3  4  0  0  0  0
  3  4  4  0  0  0  0
  4  5  4  0  0  0  0
  5  6  4  0  0  0  0
  6  7  4  0  0  0  0
  2  7  4  0  0  0  0
  5  8  1  0  0  0  0
  8  9  2  0  0  0  0
  8 10  1  0  0  0  0
 10 11  2  0  0  0  0
  1 12  1  0  0  0  0
  3 13  1  0  0  0  0
  4 14  1  0  0  0  0
  6 15  1  0  0  0  0
  7 16  1  0  0  0  0
 10 17  1  0  0  0  0
M  END
>  <InChIKey>
InChI=1S/C8H6O3/c9-5-8(11)6-1-3-7(10)4-2-6/h1-5,10H

>  <CASRN>
24645-80-5

> <Outcome>
1

>  <Index>
2216

>  <StandardizerResult>
Dearomatize (ID: Dearomatize)
Clear Stereo (ID: ClearStereo)
Wedge Clean (ID: WedgeClean)
Mesomerize (ID: Mesomerize)
Tautomerize (ID: Tautomerize)
Aromatize (ID: Aromatize)
Add Explicit Hydrogens (ID: AddExplicitH)
Neutralize (ID: Neutralize)
Clean 2D (ID: Clean2D)

> <knn Distance>


> <CpId>
2216

$$$$
2218
  Mrv1532301301811342D          

 21 21  0  0  0  0            999 V2000
   -0.7152    3.7121    0.0000 C   0  0  0  0  0  0  0  0  0  0  0  0
   -0.0007    3.2996    0.0000 C   0  0  0  0  0  0  0  0  0  0  0  0
   -0.0007    2.4746    0.0000 O   0  0  0  0  0  0  0  0  0  0  0  0
    0.7137    2.0621    0.0000 C   0  0  0  0  0  0  0  0  0  0  0  0
    1.4282    2.4746    0.0000 O   0  0  0  0  0  0  0  0  0  0  0  0
    0.7137    1.2371    0.0000 C   0  0  0  0  0  0  0  0  0  0  0  0
    1.4282    0.8246    0.0000 C   0  0  0  0  0  0  0  0  0  0  0  0
    1.4282   -0.0004    0.0000 C   0  0  0  0  0  0  0  0  0  0  0  0
    0.7137   -0.4129    0.0000 C   0  0  0  0  0  0  0  0  0  0  0  0
   -0.0007   -0.0004    0.0000 C   0  0  0  0  0  0  0  0  0  0  0  0
   -0.0007    0.8246    0.0000 C   0  0  0  0  0  0  0  0  0  0  0  0
   -0.3027    4.4266    0.0000 H   0  0  0  0  0  0  0  0  0  0  0  0
   -1.4297    4.1246    0.0000 H   0  0  0  0  0  0  0  0  0  0  0  0
   -1.1277    2.9976    0.0000 H   0  0  0  0  0  0  0  0  0  0  0  0
    0.8229    3.3475    0.0000 H   0  0  0  0  0  0  0  0  0  0  0  0
    0.4526    3.9889    0.0000 H   0  0  0  0  0  0  0  0  0  0  0  0
    2.1427    1.2371    0.0000 H   0  0  0  0  0  0  0  0  0  0  0  0
    2.1427   -0.4129    0.0000 H   0  0  0  0  0  0  0  0  0  0  0  0
    0.7137   -1.2379    0.0000 H   0  0  0  0  0  0  0  0  0  0  0  0
   -0.7152   -0.4129    0.0000 H   0  0  0  0  0  0  0  0  0  0  0  0
   -0.7152    1.2371    0.0000 H   0  0  0  0  0  0  0  0  0  0  0  0
  1  2  1  0  0  0  0
  2  3  1  0  0  0  0
  3  4  1  0  0  0  0
  4  5  2  0  0  0  0
  4  6  1  0  0  0  0
  6  7  4  0  0  0  0
  7  8  4  0  0  0  0
  8  9  4  0  0  0  0
  9 10  4  0  0  0  0
 10 11  4  0  0  0  0
  6 11  4  0  0  0  0
  1 12  1  0  0  0  0
  1 13  1  0  0  0  0
  1 14  1  0  0  0  0
  2 15  1  0  0  0  0
  2 16  1  0  0  0  0
  7 17  1  0  0  0  0
  8 18  1  0  0  0  0
  9 19  1  0  0  0  0
 10 20  1  0  0  0  0
 11 21  1  0  0  0  0
M  END
>  <InChIKey>
InChI=1S/C9H10O2/c1-2-11-9(10)8-6-4-3-5-7-8/h3-7H,2H2,1H3

>  <CASRN>
93-89-0

> <Outcome>
1

>  <Index>
2218

>  <StandardizerResult>
Dearomatize (ID: Dearomatize)
Clear Stereo (ID: ClearStereo)
Wedge Clean (ID: WedgeClean)
Mesomerize (ID: Mesomerize)
Tautomerize (ID: Tautomerize)
Aromatize (ID: Aromatize)
Add Explicit Hydrogens (ID: AddExplicitH)
Neutralize (ID: Neutralize)
Clean 2D (ID: Clean2D)

> <knn Distance>


> <CpId>
2218

$$$$
2224
  Mrv1532301301811342D          

 19 19  0  0  0  0            999 V2000
   -0.0000    3.3000    0.0000 C   0  0  0  0  0  0  0  0  0  0  0  0
   -0.0000    2.4750    0.0000 C   0  0  0  0  0  0  0  0  0  0  0  0
   -0.7145    2.0625    0.0000 O   0  0  0  0  0  0  0  0  0  0  0  0
    0.7145    2.0625    0.0000 N   0  0  0  0  0  0  0  0  0  0  0  0
    0.7145    1.2375    0.0000 C   0  0  0  0  0  0  0  0  0  0  0  0
    1.4289    0.8250    0.0000 C   0  0  0  0  0  0  0  0  0  0  0  0
    1.4289    0.0000    0.0000 C   0  0  0  0  0  0  0  0  0  0  0  0
    0.7145   -0.4125    0.0000 C   0  0  0  0  0  0  0  0  0  0  0  0
   -0.0000    0.0000    0.0000 C   0  0  0  0  0  0  0  0  0  0  0  0
   -0.7145   -0.4125    0.0000 Cl  0  0  0  0  0  0  0  0  0  0  0  0
   -0.0000    0.8250    0.0000 C   0  0  0  0  0  0  0  0  0  0  0  0
    0.8250    3.3000    0.0000 H   0  0  0  0  0  0  0  0  0  0  0  0
   -0.0000    4.1250    0.0000 H   0  0  0  0  0  0  0  0  0  0  0  0
   -0.8250    3.3000    0.0000 H   0  0  0  0  0  0  0  0  0  0  0  0
    1.4289    2.4750    0.0000 H   0  0  0  0  0  0  0  0  0  0  0  0
    2.1434    1.2375    0.0000 H   0  0  0  0  0  0  0  0  0  0  0  0
    2.1434   -0.4125    0.0000 H   0  0  0  0  0  0  0  0  0  0  0  0
    0.7145   -1.2375    0.0000 H   0  0  0  0  0  0  0  0  0  0  0  0
   -0.7145    1.2375    0.0000 H   0  0  0  0  0  0  0  0  0  0  0  0
  1  2  1  0  0  0  0
  2  3  2  0  0  0  0
  2  4  1  0  0  0  0
  4  5  1  0  0  0  0
  5  6  4  0  0  0  0
  6  7  4  0  0  0  0
  7  8  4  0  0  0  0
  8  9  4  0  0  0  0
  9 10  1  0  0  0  0
  9 11  4  0  0  0  0
  5 11  4  0  0  0  0
  1 12  1  0  0  0  0
  1 13  1  0  0  0  0
  1 14  1  0  0  0  0
  4 15  1  0  0  0  0
  6 16  1  0  0  0  0
  7 17  1  0  0  0  0
  8 18  1  0  0  0  0
 11 19  1  0  0  0  0
M  END
>  <InChIKey>
InChI=1S/C8H8ClNO/c1-6(11)10-8-4-2-3-7(9)5-8/h2-5H,1H3,(H,10,11)

>  <CASRN>
588-07-8

> <Outcome>
1

>  <Index>
2224

>  <StandardizerResult>
Dearomatize (ID: Dearomatize)
Clear Stereo (ID: ClearStereo)
Wedge Clean (ID: WedgeClean)
Mesomerize (ID: Mesomerize)
Tautomerize (ID: Tautomerize)
Aromatize (ID: Aromatize)
Add Explicit Hydrogens (ID: AddExplicitH)
Neutralize (ID: Neutralize)
Clean 2D (ID: Clean2D)

> <knn Distance>


> <CpId>
2224

$$$$
2229
  Mrv1532301301811342D          

 19 18  0  0  0  0            999 V2000
    1.2562   -0.0941    0.0000 C   0  0  0  0  0  0  0  0  0  0  0  0
    1.2562    0.7309    0.0000 C   0  0  0  0  0  0  0  0  0  0  0  0
    0.5417    1.1434    0.0000 C   0  0  0  0  0  0  0  0  0  0  0  0
   -0.1728    0.7309    0.0000 O   0  0  0  0  0  0  0  0  0  0  0  0
    1.9706    1.1434    0.0000 C   0  0  0  0  0  0  0  0  0  0  0  0
    2.6851    0.7309    0.0000 C   0  0  0  0  0  0  0  0  0  0  0  0
    3.3996    1.1434    0.0000 O   0  0  0  0  0  0  0  0  0  0  0  0
    0.4312   -0.0941    0.0000 H   0  0  0  0  0  0  0  0  0  0  0  0
    1.2562   -0.9191    0.0000 H   0  0  0  0  0  0  0  0  0  0  0  0
    2.0812   -0.0941    0.0000 H   0  0  0  0  0  0  0  0  0  0  0  0
    0.5417    0.3184    0.0000 H   0  0  0  0  0  0  0  0  0  0  0  0
    0.9119    1.8806    0.0000 H   0  0  0  0  0  0  0  0  0  0  0  0
    0.1714    1.8806    0.0000 H   0  0  0  0  0  0  0  0  0  0  0  0
   -0.9978    0.7309    0.0000 H   0  0  0  0  0  0  0  0  0  0  0  0
    2.3409    1.8806    0.0000 H   0  0  0  0  0  0  0  0  0  0  0  0
    1.6004    1.8806    0.0000 H   0  0  0  0  0  0  0  0  0  0  0  0
    2.3148   -0.0064    0.0000 H   0  0  0  0  0  0  0  0  0  0  0  0
    3.0554   -0.0064    0.0000 H   0  0  0  0  0  0  0  0  0  0  0  0
    4.1140    0.7309    0.0000 H   0  0  0  0  0  0  0  0  0  0  0  0
  1  2  1  0  0  0  0
  2  3  1  0  0  0  0
  3  4  1  0  0  0  0
  2  5  1  0  0  0  0
  5  6  1  0  0  0  0
  6  7  1  0  0  0  0
  1  8  1  0  0  0  0
  1  9  1  0  0  0  0
  1 10  1  0  0  0  0
  2 11  1  0  0  0  0
  3 12  1  0  0  0  0
  3 13  1  0  0  0  0
  4 14  1  0  0  0  0
  5 15  1  0  0  0  0
  5 16  1  0  0  0  0
  6 17  1  0  0  0  0
  6 18  1  0  0  0  0
  7 19  1  0  0  0  0
M  END
>  <InChIKey>
InChI=1S/C5H12O2/c1-5(4-7)2-3-6/h5-7H,2-4H2,1H3

>  <CASRN>
2938-98-9

> <Outcome>
1

>  <Index>
2229

>  <StandardizerResult>
Clear Stereo (ID: ClearStereo)
Wedge Clean (ID: WedgeClean)
Mesomerize (ID: Mesomerize)
Tautomerize (ID: Tautomerize)
Add Explicit Hydrogens (ID: AddExplicitH)
Neutralize (ID: Neutralize)
Clean 2D (ID: Clean2D)

> <knn Distance>


> <CpId>
2229

$$$$
2230
  Mrv1532301301811342D          

 13 12  0  0  0  0            999 V2000
   -0.1914   -0.7145    0.0000 C   0  0  0  0  0  0  0  0  0  0  0  0
    0.5230   -1.1270    0.0000 O   0  0  0  0  0  0  0  0  0  0  0  0
    1.2375   -0.7145    0.0000 C   0  0  0  0  0  0  0  0  0  0  0  0
    1.2375    0.1105    0.0000 O   0  0  0  0  0  0  0  0  0  0  0  0
    1.9520   -1.1270    0.0000 C   0  0  0  0  0  0  0  0  0  0  0  0
    1.9520   -1.9520    0.0000 C   0  0  0  0  0  0  0  0  0  0  0  0
    2.6665   -0.7145    0.0000 C   0  0  0  0  0  0  0  0  0  0  0  0
    3.3809   -0.3020    0.0000 N   0  0  0  0  0  0  0  0  0  0  0  0
    0.2211   -0.0000    0.0000 H   0  0  0  0  0  0  0  0  0  0  0  0
   -0.9059   -0.3020    0.0000 H   0  0  0  0  0  0  0  0  0  0  0  0
   -0.6039   -1.4290    0.0000 H   0  0  0  0  0  0  0  0  0  0  0  0
    1.2375   -2.3645    0.0000 H   0  0  0  0  0  0  0  0  0  0  0  0
    2.6665   -2.3645    0.0000 H   0  0  0  0  0  0  0  0  0  0  0  0
  1  2  1  0  0  0  0
  2  3  1  0  0  0  0
  3  4  2  0  0  0  0
  3  5  1  0  0  0  0
  5  6  2  0  0  0  0
  5  7  1  0  0  0  0
  7  8  3  0  0  0  0
  1  9  1  0  0  0  0
  1 10  1  0  0  0  0
  1 11  1  0  0  0  0
  6 12  1  0  0  0  0
  6 13  1  0  0  0  0
M  END
>  <InChIKey>
InChI=1S/C5H5NO2/c1-4(3-6)5(7)8-2/h1H2,2H3

>  <CASRN>
137-05-3

> <Outcome>
1

>  <Index>
2230

>  <StandardizerResult>
Clear Stereo (ID: ClearStereo)
Wedge Clean (ID: WedgeClean)
Mesomerize (ID: Mesomerize)
Tautomerize (ID: Tautomerize)
Add Explicit Hydrogens (ID: AddExplicitH)
Neutralize (ID: Neutralize)
Clean 2D (ID: Clean2D)

> <knn Distance>


> <CpId>
2230

$$$$
2231
  Mrv1532301301811342D          

 13 12  0  0  0  0            999 V2000
    2.5320    0.0347    0.0000 C   0  0  0  0  0  0  0  0  0  0  0  0
    1.7070    0.0347    0.0000 C   0  0  0  0  0  0  0  0  0  0  0  0
    1.7070    0.8597    0.0000 C   0  0  0  0  0  0  0  0  0  0  0  0
    1.7070   -0.7903    0.0000 O   0  0  0  0  0  0  0  0  0  0  0  0
    0.8820    0.0347    0.0000 C   0  0  0  0  0  0  0  0  0  0  0  0
    0.0570    0.0347    0.0000 N   0  0  0  0  0  0  0  0  0  0  0  0
    2.5320   -0.7903    0.0000 H   0  0  0  0  0  0  0  0  0  0  0  0
    3.3570    0.0347    0.0000 H   0  0  0  0  0  0  0  0  0  0  0  0
    2.5320    0.8597    0.0000 H   0  0  0  0  0  0  0  0  0  0  0  0
    2.0227    1.6219    0.0000 H   0  0  0  0  0  0  0  0  0  0  0  0
    1.1237    1.4431    0.0000 H   0  0  0  0  0  0  0  0  0  0  0  0
    0.9448    0.5440    0.0000 H   0  0  0  0  0  0  0  0  0  0  0  0
    1.1237   -1.3737    0.0000 H   0  0  0  0  0  0  0  0  0  0  0  0
  1  2  1  0  0  0  0
  2  3  1  0  0  0  0
  2  4  1  0  0  0  0
  2  5  1  0  0  0  0
  5  6  3  0  0  0  0
  1  7  1  0  0  0  0
  1  8  1  0  0  0  0
  1  9  1  0  0  0  0
  3 10  1  0  0  0  0
  3 11  1  0  0  0  0
  3 12  1  0  0  0  0
  4 13  1  0  0  0  0
M  END
>  <InChIKey>
InChI=1S/C4H7NO/c1-4(2,6)3-5/h6H,1-2H3

>  <CASRN>
75-86-5

> <Outcome>
1

>  <Index>
2231

>  <StandardizerResult>
Clear Stereo (ID: ClearStereo)
Wedge Clean (ID: WedgeClean)
Mesomerize (ID: Mesomerize)
Tautomerize (ID: Tautomerize)
Add Explicit Hydrogens (ID: AddExplicitH)
Neutralize (ID: Neutralize)
Clean 2D (ID: Clean2D)

> <knn Distance>


> <CpId>
2231

$$$$
2232
  Mrv1532301301811342D          

 23 23  0  0  0  0            999 V2000
    1.4268    2.4860    0.0000 C   0  0  0  0  0  0  0  0  0  0  0  0
    0.7123    2.0735    0.0000 N   0  0  0  0  0  0  0  0  0  0  0  0
   -0.0022    2.4860    0.0000 C   0  0  0  0  0  0  0  0  0  0  0  0
   -0.0022    3.3110    0.0000 C   0  0  0  0  0  0  0  0  0  0  0  0
   -0.7166    3.7235    0.0000 O   0  0  0  0  0  0  0  0  0  0  0  0
    0.7123    1.2485    0.0000 C   0  0  0  0  0  0  0  0  0  0  0  0
    1.4268    0.8360    0.0000 C   0  0  0  0  0  0  0  0  0  0  0  0
    1.4268    0.0110    0.0000 C   0  0  0  0  0  0  0  0  0  0  0  0
    0.7123   -0.4015    0.0000 C   0  0  0  0  0  0  0  0  0  0  0  0
   -0.0022    0.0110    0.0000 C   0  0  0  0  0  0  0  0  0  0  0  0
   -0.0022    0.8360    0.0000 N   0  0  0  0  0  0  0  0  0  0  0  0
    1.8393    1.7715    0.0000 H   0  0  0  0  0  0  0  0  0  0  0  0
    2.1413    2.8985    0.0000 H   0  0  0  0  0  0  0  0  0  0  0  0
    1.0143    3.2005    0.0000 H   0  0  0  0  0  0  0  0  0  0  0  0
   -0.8258    2.4380    0.0000 H   0  0  0  0  0  0  0  0  0  0  0  0
   -0.4555    1.7967    0.0000 H   0  0  0  0  0  0  0  0  0  0  0  0
    0.8215    3.3590    0.0000 H   0  0  0  0  0  0  0  0  0  0  0  0
    0.4512    4.0003    0.0000 H   0  0  0  0  0  0  0  0  0  0  0  0
   -0.7166    4.5485    0.0000 H   0  0  0  0  0  0  0  0  0  0  0  0
    2.1413    1.2485    0.0000 H   0  0  0  0  0  0  0  0  0  0  0  0
    2.1413   -0.4015    0.0000 H   0  0  0  0  0  0  0  0  0  0  0  0
    0.7123   -1.2265    0.0000 H   0  0  0  0  0  0  0  0  0  0  0  0
   -0.7166   -0.4015    0.0000 H   0  0  0  0  0  0  0  0  0  0  0  0
  1  2  1  0  0  0  0
  2  3  1  0  0  0  0
  3  4  1  0  0  0  0
  4  5  1  0  0  0  0
  2  6  1  0  0  0  0
  6  7  4  0  0  0  0
  7  8  4  0  0  0  0
  8  9  4  0  0  0  0
  9 10  4  0  0  0  0
 10 11  4  0  0  0  0
  6 11  4  0  0  0  0
  1 12  1  0  0  0  0
  1 13  1  0  0  0  0
  1 14  1  0  0  0  0
  3 15  1  0  0  0  0
  3 16  1  0  0  0  0
  4 17  1  0  0  0  0
  4 18  1  0  0  0  0
  5 19  1  0  0  0  0
  7 20  1  0  0  0  0
  8 21  1  0  0  0  0
  9 22  1  0  0  0  0
 10 23  1  0  0  0  0
M  END
>  <InChIKey>
InChI=1S/C8H12N2O/c1-10(6-7-11)8-4-2-3-5-9-8/h2-5,11H,6-7H2,1H3

>  <UN GHS>
1

>  <CASRN>
122321-04-4

> <Outcome>
1

>  <Index>
2232

>  <StandardizerResult>
Dearomatize (ID: Dearomatize)
Clear Stereo (ID: ClearStereo)
Wedge Clean (ID: WedgeClean)
Mesomerize (ID: Mesomerize)
Tautomerize (ID: Tautomerize)
Aromatize (ID: Aromatize)
Add Explicit Hydrogens (ID: AddExplicitH)
Neutralize (ID: Neutralize)
Clean 2D (ID: Clean2D)

> <knn Distance>


> <CpId>
2232

$$$$
2236
  Mrv1532301301811342D          

 23 24  0  0  0  0            999 V2000
   -1.4134   -0.4230    0.0000 O   0  0  0  0  0  0  0  0  0  0  0  0
   -1.0009    0.2914    0.0000 N   0  0  0  0  0  0  0  0  0  0  0  0
   -0.1759    0.2914    0.0000 N   0  0  0  0  0  0  0  0  0  0  0  0
    0.1399   -0.4708    0.0000 C   0  0  0  0  0  0  0  0  0  0  0  0
    0.9021   -0.7865    0.0000 N   0  0  0  0  0  0  0  0  0  0  0  0
    0.6326    0.2914    0.0000 C   0  0  0  0  0  0  0  0  0  0  0  0
    0.9021    1.3693    0.0000 N   0  0  0  0  0  0  0  0  0  0  0  0
    0.1399    1.0536    0.0000 C   0  0  0  0  0  0  0  0  0  0  0  0
    1.6643    1.0536    0.0000 C   0  0  0  0  0  0  0  0  0  0  0  0
    1.9800    0.2914    0.0000 N   0  0  0  0  0  0  0  0  0  0  0  0
    1.6643   -0.4708    0.0000 C   0  0  0  0  0  0  0  0  0  0  0  0
    2.8050    0.2914    0.0000 N   0  0  0  0  0  0  0  0  0  0  0  0
    3.2175    1.0059    0.0000 O   0  0  0  0  0  0  0  0  0  0  0  0
   -0.6354   -0.7529    0.0000 H   0  0  0  0  0  0  0  0  0  0  0  0
   -0.1423   -1.2460    0.0000 H   0  0  0  0  0  0  0  0  0  0  0  0
    1.3783   -0.0614    0.0000 H   0  0  0  0  0  0  0  0  0  0  0  0
    1.3783    0.6443    0.0000 H   0  0  0  0  0  0  0  0  0  0  0  0
   -0.1423    1.8289    0.0000 H   0  0  0  0  0  0  0  0  0  0  0  0
   -0.6354    1.3358    0.0000 H   0  0  0  0  0  0  0  0  0  0  0  0
    2.4395    1.3358    0.0000 H   0  0  0  0  0  0  0  0  0  0  0  0
    1.9464    1.8289    0.0000 H   0  0  0  0  0  0  0  0  0  0  0  0
    1.9464   -1.2460    0.0000 H   0  0  0  0  0  0  0  0  0  0  0  0
    2.4395   -0.7529    0.0000 H   0  0  0  0  0  0  0  0  0  0  0  0
  1  2  2  0  0  0  0
  2  3  1  0  0  0  0
  3  4  1  0  0  0  0
  4  5  1  0  0  0  0
  5  6  1  0  0  0  0
  6  7  1  0  0  0  0
  7  8  1  0  0  0  0
  3  8  1  0  0  0  0
  7  9  1  0  0  0  0
  9 10  1  0  0  0  0
 10 11  1  0  0  0  0
  5 11  1  0  0  0  0
 10 12  1  0  0  0  0
 12 13  2  0  0  0  0
  4 14  1  0  0  0  0
  4 15  1  0  0  0  0
  6 16  1  0  0  0  0
  6 17  1  0  0  0  0
  8 18  1  0  0  0  0
  8 19  1  0  0  0  0
  9 20  1  0  0  0  0
  9 21  1  0  0  0  0
 11 22  1  0  0  0  0
 11 23  1  0  0  0  0
M  END
>  <InChIKey>
InChI=1S/C5H10N6O2/c12-6-10-2-8-1-9(4-10)5-11(3-8)7-13/h1-5H2

>  <CASRN>
101-25-7

> <Outcome>
1

>  <Index>
2236

>  <StandardizerResult>
Clear Stereo (ID: ClearStereo)
Wedge Clean (ID: WedgeClean)
Mesomerize (ID: Mesomerize)
Tautomerize (ID: Tautomerize)
Add Explicit Hydrogens (ID: AddExplicitH)
Neutralize (ID: Neutralize)
Clean 2D (ID: Clean2D)

> <knn Distance>


> <CpId>
2236

$$$$
2238
  Mrv1532301301811342D          

 28 28  0  0  0  0            999 V2000
    1.4476    3.2856    0.0000 C   0  0  0  0  0  0  0  0  0  0  0  0
    1.4476    2.4606    0.0000 C   0  0  0  0  0  0  0  0  0  0  0  0
    0.7331    2.0481    0.0000 N   0  0  0  0  0  0  0  0  0  0  0  0
    0.7331    1.2231    0.0000 C   0  0  0  0  0  0  0  0  0  0  0  0
    1.4476    0.8106    0.0000 N   0  0  0  0  0  0  0  0  0  0  0  0
    1.4476   -0.0144    0.0000 C   0  0  0  0  0  0  0  0  0  0  0  0
    2.1621   -0.4269    0.0000 Cl  0  0  0  0  0  0  0  0  0  0  0  0
    0.7331   -0.4269    0.0000 N   0  0  0  0  0  0  0  0  0  0  0  0
    0.0187   -0.0144    0.0000 C   0  0  0  0  0  0  0  0  0  0  0  0
   -0.6958   -0.4269    0.0000 N   0  0  0  0  0  0  0  0  0  0  0  0
   -1.4103   -0.0144    0.0000 C   0  0  0  0  0  0  0  0  0  0  0  0
   -2.1248   -0.4269    0.0000 C   0  0  0  0  0  0  0  0  0  0  0  0
   -1.4103    0.8106    0.0000 C   0  0  0  0  0  0  0  0  0  0  0  0
    0.0187    0.8106    0.0000 N   0  0  0  0  0  0  0  0  0  0  0  0
    2.2726    3.2856    0.0000 H   0  0  0  0  0  0  0  0  0  0  0  0
    1.4476    4.1106    0.0000 H   0  0  0  0  0  0  0  0  0  0  0  0
    0.6226    3.2856    0.0000 H   0  0  0  0  0  0  0  0  0  0  0  0
    1.9009    1.7713    0.0000 H   0  0  0  0  0  0  0  0  0  0  0  0
    2.2712    2.4126    0.0000 H   0  0  0  0  0  0  0  0  0  0  0  0
    0.0187    2.4606    0.0000 H   0  0  0  0  0  0  0  0  0  0  0  0
   -0.6958   -1.2519    0.0000 H   0  0  0  0  0  0  0  0  0  0  0  0
   -1.4103   -0.8394    0.0000 H   0  0  0  0  0  0  0  0  0  0  0  0
   -2.3383    0.3700    0.0000 H   0  0  0  0  0  0  0  0  0  0  0  0
   -2.9498   -0.4269    0.0000 H   0  0  0  0  0  0  0  0  0  0  0  0
   -2.3383   -1.2238    0.0000 H   0  0  0  0  0  0  0  0  0  0  0  0
   -0.5853    0.8106    0.0000 H   0  0  0  0  0  0  0  0  0  0  0  0
   -1.4103    1.6356    0.0000 H   0  0  0  0  0  0  0  0  0  0  0  0
   -2.2353    0.8106    0.0000 H   0  0  0  0  0  0  0  0  0  0  0  0
  1  2  1  0  0  0  0
  2  3  1  0  0  0  0
  3  4  1  0  0  0  0
  4  5  4  0  0  0  0
  5  6  4  0  0  0  0
  6  7  1  0  0  0  0
  6  8  4  0  0  0  0
  8  9  4  0  0  0  0
  9 10  1  0  0  0  0
 10 11  1  0  0  0  0
 11 12  1  0  0  0  0
 11 13  1  0  0  0  0
  9 14  4  0  0  0  0
  4 14  4  0  0  0  0
  1 15  1  0  0  0  0
  1 16  1  0  0  0  0
  1 17  1  0  0  0  0
  2 18  1  0  0  0  0
  2 19  1  0  0  0  0
  3 20  1  0  0  0  0
 10 21  1  0  0  0  0
 11 22  1  0  0  0  0
 12 23  1  0  0  0  0
 12 24  1  0  0  0  0
 12 25  1  0  0  0  0
 13 26  1  0  0  0  0
 13 27  1  0  0  0  0
 13 28  1  0  0  0  0
M  END
>  <InChIKey>
InChI=1S/C8H14ClN5/c1-4-10-7-12-6(9)13-8(14-7)11-5(2)3/h5H,4H2,1-3H3,(H2,10,11,12,13,14)

>  <CASRN>
1912-24-9

> <Outcome>
1

>  <Index>
2238

>  <StandardizerResult>
Dearomatize (ID: Dearomatize)
Clear Stereo (ID: ClearStereo)
Wedge Clean (ID: WedgeClean)
Mesomerize (ID: Mesomerize)
Tautomerize (ID: Tautomerize)
Aromatize (ID: Aromatize)
Add Explicit Hydrogens (ID: AddExplicitH)
Neutralize (ID: Neutralize)
Clean 2D (ID: Clean2D)

> <knn Distance>


> <CpId>
2238

$$$$
2247
  Mrv1532301301811342D          

 34 36  0  0  0  0            999 V2000
   -0.0179    0.7982    0.0000 O   0  0  0  0  0  0  0  0  0  0  0  0
   -0.0179   -0.0268    0.0000 C   0  0  0  0  0  0  0  0  0  0  0  0
   -0.7324   -0.4393    0.0000 O   0  0  0  0  0  0  0  0  0  0  0  0
    0.6966   -0.4393    0.0000 C   0  0  0  0  0  0  0  0  0  0  0  0
    1.4110   -0.0268    0.0000 C   0  0  0  0  0  0  0  0  0  0  0  0
    2.1255   -0.4393    0.0000 C   0  0  0  0  0  0  0  0  0  0  0  0
    2.8400   -0.0268    0.0000 C   0  0  0  0  0  0  0  0  0  0  0  0
    3.5545   -0.4393    0.0000 C   0  0  0  0  0  0  0  0  0  0  0  0
    3.5545   -1.2643    0.0000 C   0  0  0  0  0  0  0  0  0  0  0  0
    2.8400   -1.6768    0.0000 C   0  0  0  0  0  0  0  0  0  0  0  0
    2.1255   -1.2643    0.0000 C   0  0  0  0  0  0  0  0  0  0  0  0
    1.4110   -1.6768    0.0000 C   0  0  0  0  0  0  0  0  0  0  0  0
    1.4110   -2.5018    0.0000 N   0  0  0  0  0  0  0  0  0  0  0  0
    2.1255   -2.9143    0.0000 N   0  0  0  0  0  0  0  0  0  0  0  0
    2.1255   -3.7393    0.0000 C   0  0  0  0  0  0  0  0  0  0  0  0
    2.8400   -4.1518    0.0000 C   0  0  0  0  0  0  0  0  0  0  0  0
    2.8400   -4.9768    0.0000 C   0  0  0  0  0  0  0  0  0  0  0  0
    2.1255   -5.3893    0.0000 C   0  0  0  0  0  0  0  0  0  0  0  0
    1.4110   -4.9768    0.0000 C   0  0  0  0  0  0  0  0  0  0  0  0
    1.4110   -4.1518    0.0000 C   0  0  0  0  0  0  0  0  0  0  0  0
    0.6966   -1.2643    0.0000 C   0  0  0  0  0  0  0  0  0  0  0  0
   -0.0179   -1.6768    0.0000 O   0  0  0  0  0  0  0  0  0  0  0  0
    0.6966    1.2107    0.0000 H   0  0  0  0  0  0  0  0  0  0  0  0
    1.4110    0.7982    0.0000 H   0  0  0  0  0  0  0  0  0  0  0  0
    2.8400    0.7982    0.0000 H   0  0  0  0  0  0  0  0  0  0  0  0
    4.2689   -0.0268    0.0000 H   0  0  0  0  0  0  0  0  0  0  0  0
    4.2689   -1.6768    0.0000 H   0  0  0  0  0  0  0  0  0  0  0  0
    2.8400   -2.5018    0.0000 H   0  0  0  0  0  0  0  0  0  0  0  0
    2.1255   -2.0893    0.0000 H   0  0  0  0  0  0  0  0  0  0  0  0
    3.5545   -3.7393    0.0000 H   0  0  0  0  0  0  0  0  0  0  0  0
    3.5545   -5.3893    0.0000 H   0  0  0  0  0  0  0  0  0  0  0  0
    2.1255   -6.2143    0.0000 H   0  0  0  0  0  0  0  0  0  0  0  0
    0.6966   -5.3893    0.0000 H   0  0  0  0  0  0  0  0  0  0  0  0
    0.6966   -3.7393    0.0000 H   0  0  0  0  0  0  0  0  0  0  0  0
  1  2  1  0  0  0  0
  2  3  2  0  0  0  0
  2  4  1  0  0  0  0
  4  5  2  0  0  0  0
  5  6  1  0  0  0  0
  6  7  4  0  0  0  0
  7  8  4  0  0  0  0
  8  9  4  0  0  0  0
  9 10  4  0  0  0  0
 10 11  4  0  0  0  0
  6 11  4  0  0  0  0
 11 12  1  0  0  0  0
 12 13  2  0  0  0  0
 13 14  1  4  0  0  0
 14 15  1  0  0  0  0
 15 16  4  0  0  0  0
 16 17  4  0  0  0  0
 17 18  4  0  0  0  0
 18 19  4  0  0  0  0
 19 20  4  0  0  0  0
 15 20  4  0  0  0  0
 12 21  1  0  0  0  0
  4 21  1  0  0  0  0
 21 22  2  0  0  0  0
  1 23  1  0  0  0  0
  5 24  1  0  0  0  0
  7 25  1  0  0  0  0
  8 26  1  0  0  0  0
  9 27  1  0  0  0  0
 10 28  1  0  0  0  0
 14 29  1  0  0  0  0
 16 30  1  0  0  0  0
 17 31  1  0  0  0  0
 18 32  1  0  0  0  0
 19 33  1  0  0  0  0
 20 34  1  0  0  0  0
M  END
>  <InChIKey>
InChI=1S/C17H12N2O3/c20-16-14(17(21)22)10-11-6-4-5-9-13(11)15(16)19-18-12-7-2-1-3-8-12/h1-10,18H,(H,21,22)

>  <CASRN>
6371-76-2

> <Outcome>
1

>  <Index>
2247

>  <StandardizerResult>
Dearomatize (ID: Dearomatize)
Clear Stereo (ID: ClearStereo)
Wedge Clean (ID: WedgeClean)
Mesomerize (ID: Mesomerize)
Tautomerize (ID: Tautomerize)
Aromatize (ID: Aromatize)
Add Explicit Hydrogens (ID: AddExplicitH)
Neutralize (ID: Neutralize)
Clean 2D (ID: Clean2D)

> <knn Distance>


> <CpId>
2247

$$$$
2249
  Mrv1532301301811342D          

 11 10  0  0  0  0            999 V2000
    1.2750    0.7633    0.0000 C   0  0  0  0  0  0  0  0  0  0  0  0
    0.8625    0.0489    0.0000 C   0  0  0  0  0  0  0  0  0  0  0  0
    1.2750   -0.6656    0.0000 C   0  0  0  0  0  0  0  0  0  0  0  0
    0.0375    0.0489    0.0000 Br  0  0  0  0  0  0  0  0  0  0  0  0
    1.9895    0.3508    0.0000 H   0  0  0  0  0  0  0  0  0  0  0  0
    1.6875    1.4778    0.0000 H   0  0  0  0  0  0  0  0  0  0  0  0
    0.5605    1.1758    0.0000 H   0  0  0  0  0  0  0  0  0  0  0  0
    1.6875    0.0489    0.0000 H   0  0  0  0  0  0  0  0  0  0  0  0
    0.4781   -0.8791    0.0000 H   0  0  0  0  0  0  0  0  0  0  0  0
    1.2750   -1.4906    0.0000 H   0  0  0  0  0  0  0  0  0  0  0  0
    2.0719   -0.8791    0.0000 H   0  0  0  0  0  0  0  0  0  0  0  0
  1  2  1  0  0  0  0
  2  3  1  0  0  0  0
  2  4  1  0  0  0  0
  1  5  1  0  0  0  0
  1  6  1  0  0  0  0
  1  7  1  0  0  0  0
  2  8  1  0  0  0  0
  3  9  1  0  0  0  0
  3 10  1  0  0  0  0
  3 11  1  0  0  0  0
M  END
>  <InChIKey>
InChI=1S/C3H7Br/c1-3(2)4/h3H,1-2H3

>  <CASRN>
75-26-3

> <Outcome>
1

>  <Index>
2249

>  <StandardizerResult>
Clear Stereo (ID: ClearStereo)
Wedge Clean (ID: WedgeClean)
Mesomerize (ID: Mesomerize)
Tautomerize (ID: Tautomerize)
Add Explicit Hydrogens (ID: AddExplicitH)
Neutralize (ID: Neutralize)
Clean 2D (ID: Clean2D)

> <knn Distance>


> <CpId>
2249

$$$$
2250
  Mrv1532301301811342D          

 24 23  0  0  0  0            999 V2000
    1.0461    1.4289    0.0000 N   0  0  0  0  0  0  0  0  0  0  0  0
    1.7605    1.8414    0.0000 C   0  0  0  0  0  0  0  0  0  0  0  0
    2.4750    1.4289    0.0000 C   0  0  0  0  0  0  0  0  0  0  0  0
    3.1895    1.8414    0.0000 C   0  0  0  0  0  0  0  0  0  0  0  0
    3.9039    1.4289    0.0000 C   0  0  0  0  0  0  0  0  0  0  0  0
    4.6184    1.8414    0.0000 C   0  0  0  0  0  0  0  0  0  0  0  0
    5.3329    1.4289    0.0000 C   0  0  0  0  0  0  0  0  0  0  0  0
    6.0474    1.8414    0.0000 N   0  0  0  0  0  0  0  0  0  0  0  0
    0.3316    1.8414    0.0000 H   0  0  0  0  0  0  0  0  0  0  0  0
    1.0461    0.6039    0.0000 H   0  0  0  0  0  0  0  0  0  0  0  0
    2.1308    2.5786    0.0000 H   0  0  0  0  0  0  0  0  0  0  0  0
    1.3903    2.5786    0.0000 H   0  0  0  0  0  0  0  0  0  0  0  0
    2.1047    0.6917    0.0000 H   0  0  0  0  0  0  0  0  0  0  0  0
    2.8453    0.6917    0.0000 H   0  0  0  0  0  0  0  0  0  0  0  0
    3.5597    2.5786    0.0000 H   0  0  0  0  0  0  0  0  0  0  0  0
    2.8192    2.5786    0.0000 H   0  0  0  0  0  0  0  0  0  0  0  0
    3.5337    0.6917    0.0000 H   0  0  0  0  0  0  0  0  0  0  0  0
    4.2742    0.6917    0.0000 H   0  0  0  0  0  0  0  0  0  0  0  0
    4.9887    2.5786    0.0000 H   0  0  0  0  0  0  0  0  0  0  0  0
    4.2482    2.5786    0.0000 H   0  0  0  0  0  0  0  0  0  0  0  0
    4.9626    0.6917    0.0000 H   0  0  0  0  0  0  0  0  0  0  0  0
    5.7031    0.6917    0.0000 H   0  0  0  0  0  0  0  0  0  0  0  0
    6.7618    1.4289    0.0000 H   0  0  0  0  0  0  0  0  0  0  0  0
    6.0474    2.6664    0.0000 H   0  0  0  0  0  0  0  0  0  0  0  0
  1  2  1  0  0  0  0
  2  3  1  0  0  0  0
  3  4  1  0  0  0  0
  4  5  1  0  0  0  0
  5  6  1  0  0  0  0
  6  7  1  0  0  0  0
  7  8  1  0  0  0  0
  1  9  1  0  0  0  0
  1 10  1  0  0  0  0
  2 11  1  0  0  0  0
  2 12  1  0  0  0  0
  3 13  1  0  0  0  0
  3 14  1  0  0  0  0
  4 15  1  0  0  0  0
  4 16  1  0  0  0  0
  5 17  1  0  0  0  0
  5 18  1  0  0  0  0
  6 19  1  0  0  0  0
  6 20  1  0  0  0  0
  7 21  1  0  0  0  0
  7 22  1  0  0  0  0
  8 23  1  0  0  0  0
  8 24  1  0  0  0  0
M  END
>  <InChIKey>
InChI=1S/C6H16N2/c7-5-3-1-2-4-6-8/h1-8H2

>  <CASRN>
124-09-4

> <Outcome>
1

>  <Index>
2250

>  <StandardizerResult>
Clear Stereo (ID: ClearStereo)
Wedge Clean (ID: WedgeClean)
Mesomerize (ID: Mesomerize)
Tautomerize (ID: Tautomerize)
Add Explicit Hydrogens (ID: AddExplicitH)
Neutralize (ID: Neutralize)
Clean 2D (ID: Clean2D)

> <knn Distance>


> <CpId>
2250

$$$$
2253
  Mrv1532301301811342D          

 16 16  0  0  0  0            999 V2000
   -0.0000    2.4750    0.0000 O   0  0  0  0  0  0  0  0  0  0  0  0
    0.7145    2.0625    0.0000 C   0  0  0  0  0  0  0  0  0  0  0  0
    1.4289    2.4750    0.0000 O   0  0  0  0  0  0  0  0  0  0  0  0
    0.7145    1.2375    0.0000 C   0  0  0  0  0  0  0  0  0  0  0  0
    1.4289    0.8250    0.0000 C   0  0  0  0  0  0  0  0  0  0  0  0
    1.4289   -0.0000    0.0000 C   0  0  0  0  0  0  0  0  0  0  0  0
    0.7145   -0.4125    0.0000 C   0  0  0  0  0  0  0  0  0  0  0  0
   -0.0000   -0.0000    0.0000 C   0  0  0  0  0  0  0  0  0  0  0  0
   -0.0000    0.8250    0.0000 C   0  0  0  0  0  0  0  0  0  0  0  0
   -0.7145    1.2375    0.0000 S   0  0  0  0  0  0  0  0  0  0  0  0
   -0.0000    3.3000    0.0000 H   0  0  0  0  0  0  0  0  0  0  0  0
    2.1434    1.2375    0.0000 H   0  0  0  0  0  0  0  0  0  0  0  0
    2.1434   -0.4125    0.0000 H   0  0  0  0  0  0  0  0  0  0  0  0
    0.7145   -1.2375    0.0000 H   0  0  0  0  0  0  0  0  0  0  0  0
   -0.7145   -0.4125    0.0000 H   0  0  0  0  0  0  0  0  0  0  0  0
   -0.7145    2.0625    0.0000 H   0  0  0  0  0  0  0  0  0  0  0  0
  1  2  1  0  0  0  0
  2  3  2  0  0  0  0
  2  4  1  0  0  0  0
  4  5  4  0  0  0  0
  5  6  4  0  0  0  0
  6  7  4  0  0  0  0
  7  8  4  0  0  0  0
  8  9  4  0  0  0  0
  4  9  4  0  0  0  0
  9 10  1  0  0  0  0
  1 11  1  0  0  0  0
  5 12  1  0  0  0  0
  6 13  1  0  0  0  0
  7 14  1  0  0  0  0
  8 15  1  0  0  0  0
 10 16  1  0  0  0  0
M  END
>  <InChIKey>
InChI=1S/C7H6O2S/c8-7(9)5-3-1-2-4-6(5)10/h1-4,10H,(H,8,9)

>  <CASRN>
147-93-3

> <Outcome>
1

>  <Index>
2253

>  <StandardizerResult>
Dearomatize (ID: Dearomatize)
Clear Stereo (ID: ClearStereo)
Wedge Clean (ID: WedgeClean)
Mesomerize (ID: Mesomerize)
Tautomerize (ID: Tautomerize)
Aromatize (ID: Aromatize)
Add Explicit Hydrogens (ID: AddExplicitH)
Neutralize (ID: Neutralize)
Clean 2D (ID: Clean2D)

> <knn Distance>


> <CpId>
2253

$$$$
2256
  Mrv1532301301811342D          

 36 35  0  0  0  0            999 V2000
    1.2832   -0.8558    0.0000 C   0  0  0  0  0  0  0  0  0  0  0  0
    0.8707   -0.1413    0.0000 C   0  0  0  0  0  0  0  0  0  0  0  0
    1.2832    0.5731    0.0000 C   0  0  0  0  0  0  0  0  0  0  0  0
    2.1082    0.5731    0.0000 C   0  0  0  0  0  0  0  0  0  0  0  0
    2.9332    0.5731    0.0000 C   0  0  0  0  0  0  0  0  0  0  0  0
    2.1082    1.3981    0.0000 C   0  0  0  0  0  0  0  0  0  0  0  0
    2.1082   -0.2519    0.0000 C   0  0  0  0  0  0  0  0  0  0  0  0
    0.0457   -0.1413    0.0000 C   0  0  0  0  0  0  0  0  0  0  0  0
   -0.3668   -0.8558    0.0000 C   0  0  0  0  0  0  0  0  0  0  0  0
   -0.7793   -1.5703    0.0000 C   0  0  0  0  0  0  0  0  0  0  0  0
   -1.0812   -0.4433    0.0000 C   0  0  0  0  0  0  0  0  0  0  0  0
    0.3477   -1.2683    0.0000 C   0  0  0  0  0  0  0  0  0  0  0  0
    0.5688   -1.2683    0.0000 H   0  0  0  0  0  0  0  0  0  0  0  0
    1.6957   -1.5703    0.0000 H   0  0  0  0  0  0  0  0  0  0  0  0
    1.9977   -0.4433    0.0000 H   0  0  0  0  0  0  0  0  0  0  0  0
    1.2353    1.3967    0.0000 H   0  0  0  0  0  0  0  0  0  0  0  0
    0.5940    1.0265    0.0000 H   0  0  0  0  0  0  0  0  0  0  0  0
    2.9332   -0.2519    0.0000 H   0  0  0  0  0  0  0  0  0  0  0  0
    3.7582    0.5731    0.0000 H   0  0  0  0  0  0  0  0  0  0  0  0
    2.9332    1.3981    0.0000 H   0  0  0  0  0  0  0  0  0  0  0  0
    2.6914    1.9817    0.0000 H   0  0  0  0  0  0  0  0  0  0  0  0
    2.1076    2.2231    0.0000 H   0  0  0  0  0  0  0  0  0  0  0  0
    1.5242    1.9808    0.0000 H   0  0  0  0  0  0  0  0  0  0  0  0
    1.4762    0.2784    0.0000 H   0  0  0  0  0  0  0  0  0  0  0  0
    1.2958   -0.3951    0.0000 H   0  0  0  0  0  0  0  0  0  0  0  0
    2.5207   -0.9663    0.0000 H   0  0  0  0  0  0  0  0  0  0  0  0
   -0.3668    0.5731    0.0000 H   0  0  0  0  0  0  0  0  0  0  0  0
   -1.4937   -1.1578    0.0000 H   0  0  0  0  0  0  0  0  0  0  0  0
   -1.1918   -2.2847    0.0000 H   0  0  0  0  0  0  0  0  0  0  0  0
   -0.0648   -1.9828    0.0000 H   0  0  0  0  0  0  0  0  0  0  0  0
   -0.4267    0.0589    0.0000 H   0  0  0  0  0  0  0  0  0  0  0  0
   -1.2948    0.3536    0.0000 H   0  0  0  0  0  0  0  0  0  0  0  0
   -1.8992   -0.3356    0.0000 H   0  0  0  0  0  0  0  0  0  0  0  0
    0.8780   -0.6363    0.0000 H   0  0  0  0  0  0  0  0  0  0  0  0
    0.2044   -0.4558    0.0000 H   0  0  0  0  0  0  0  0  0  0  0  0
    0.7602   -1.9828    0.0000 H   0  0  0  0  0  0  0  0  0  0  0  0
  1  2  1  0  0  0  0
  2  3  1  0  0  0  0
  3  4  1  0  0  0  0
  4  5  1  0  0  0  0
  4  6  1  0  0  0  0
  4  7  1  0  0  0  0
  2  8  2  0  0  0  0
  8  9  1  4  0  0  0
  9 10  1  0  0  0  0
  9 11  1  0  0  0  0
  9 12  1  0  0  0  0
  1 13  1  0  0  0  0
  1 14  1  0  0  0  0
  1 15  1  0  0  0  0
  3 16  1  0  0  0  0
  3 17  1  0  0  0  0
  5 18  1  0  0  0  0
  5 19  1  0  0  0  0
  5 20  1  0  0  0  0
  6 21  1  0  0  0  0
  6 22  1  0  0  0  0
  6 23  1  0  0  0  0
  7 24  1  0  0  0  0
  7 25  1  0  0  0  0
  7 26  1  0  0  0  0
  8 27  1  0  0  0  0
 10 28  1  0  0  0  0
 10 29  1  0  0  0  0
 10 30  1  0  0  0  0
 11 31  1  0  0  0  0
 11 32  1  0  0  0  0
 11 33  1  0  0  0  0
 12 34  1  0  0  0  0
 12 35  1  0  0  0  0
 12 36  1  0  0  0  0
M  END
>  <InChIKey>
InChI=1S/C12H24/c1-10(8-11(2,3)4)9-12(5,6)7/h8H,9H2,1-7H3

>  <CASRN>
123-48-8

> <Outcome>
1

>  <Index>
2256

>  <StandardizerResult>
Clear Stereo (ID: ClearStereo)
Wedge Clean (ID: WedgeClean)
Mesomerize (ID: Mesomerize)
Tautomerize (ID: Tautomerize)
Add Explicit Hydrogens (ID: AddExplicitH)
Neutralize (ID: Neutralize)
Clean 2D (ID: Clean2D)

> <knn Distance>


> <CpId>
2256

$$$$
2258
  Mrv1532301301811342D          

 26 27  0  0  0  0            999 V2000
    2.1756   -0.3771    0.0000 O   0  0  0  0  0  0  0  0  0  0  0  0
    2.1756   -1.2021    0.0000 C   0  0  0  0  0  0  0  0  0  0  0  0
    2.8900   -1.6146    0.0000 C   0  0  0  0  0  0  0  0  0  0  0  0
    2.8900   -2.4396    0.0000 C   0  0  0  0  0  0  0  0  0  0  0  0
    2.1756   -2.8521    0.0000 C   0  0  0  0  0  0  0  0  0  0  0  0
    2.1756   -3.6771    0.0000 Cl  0  0  0  0  0  0  0  0  0  0  0  0
    1.4611   -2.4396    0.0000 C   0  0  0  0  0  0  0  0  0  0  0  0
    1.4611   -1.6146    0.0000 C   0  0  0  0  0  0  0  0  0  0  0  0
    0.7466   -1.2021    0.0000 C   0  0  0  0  0  0  0  0  0  0  0  0
    0.7466   -0.3771    0.0000 C   0  0  0  0  0  0  0  0  0  0  0  0
    0.0321    0.0354    0.0000 C   0  0  0  0  0  0  0  0  0  0  0  0
    0.0321    0.8604    0.0000 C   0  0  0  0  0  0  0  0  0  0  0  0
    0.7466    1.2729    0.0000 C   0  0  0  0  0  0  0  0  0  0  0  0
    1.4611    0.8604    0.0000 C   0  0  0  0  0  0  0  0  0  0  0  0
    1.4611    0.0354    0.0000 C   0  0  0  0  0  0  0  0  0  0  0  0
    2.8900    0.0354    0.0000 H   0  0  0  0  0  0  0  0  0  0  0  0
    3.6045   -1.2021    0.0000 H   0  0  0  0  0  0  0  0  0  0  0  0
    3.6045   -2.8521    0.0000 H   0  0  0  0  0  0  0  0  0  0  0  0
    0.7466   -2.8521    0.0000 H   0  0  0  0  0  0  0  0  0  0  0  0
   -0.0770   -1.2501    0.0000 H   0  0  0  0  0  0  0  0  0  0  0  0
    0.2933   -1.8914    0.0000 H   0  0  0  0  0  0  0  0  0  0  0  0
   -0.6823   -0.3771    0.0000 H   0  0  0  0  0  0  0  0  0  0  0  0
   -0.6823    1.2729    0.0000 H   0  0  0  0  0  0  0  0  0  0  0  0
    0.7466    2.0979    0.0000 H   0  0  0  0  0  0  0  0  0  0  0  0
    2.1756    1.2729    0.0000 H   0  0  0  0  0  0  0  0  0  0  0  0
    1.4611   -0.7896    0.0000 H   0  0  0  0  0  0  0  0  0  0  0  0
  1  2  1  0  0  0  0
  2  3  4  0  0  0  0
  3  4  4  0  0  0  0
  4  5  4  0  0  0  0
  5  6  1  0  0  0  0
  5  7  4  0  0  0  0
  7  8  4  0  0  0  0
  2  8  4  0  0  0  0
  8  9  1  0  0  0  0
  9 10  1  0  0  0  0
 10 11  4  0  0  0  0
 11 12  4  0  0  0  0
 12 13  4  0  0  0  0
 13 14  4  0  0  0  0
 14 15  4  0  0  0  0
 10 15  4  0  0  0  0
  1 16  1  0  0  0  0
  3 17  1  0  0  0  0
  4 18  1  0  0  0  0
  7 19  1  0  0  0  0
  9 20  1  0  0  0  0
  9 21  1  0  0  0  0
 11 22  1  0  0  0  0
 12 23  1  0  0  0  0
 13 24  1  0  0  0  0
 14 25  1  0  0  0  0
 15 26  1  0  0  0  0
M  END
>  <InChIKey>
InChI=1S/C13H11ClO/c14-12-6-7-13(15)11(9-12)8-10-4-2-1-3-5-10/h1-7,9,15H,8H2

>  <UN GHS>
1

>  <CASRN>
120-32-1

> <Outcome>
1

>  <Index>
2258

>  <StandardizerResult>
Dearomatize (ID: Dearomatize)
Clear Stereo (ID: ClearStereo)
Wedge Clean (ID: WedgeClean)
Mesomerize (ID: Mesomerize)
Tautomerize (ID: Tautomerize)
Aromatize (ID: Aromatize)
Add Explicit Hydrogens (ID: AddExplicitH)
Neutralize (ID: Neutralize)
Clean 2D (ID: Clean2D)

> <knn Distance>


> <CpId>
2258

$$$$
2262
  Mrv1532301301811342D          

 34 37  0  0  0  0            999 V2000
   -2.1552   -2.3479    0.0000 C   0  0  0  0  0  0  0  0  0  0  0  0
   -2.1552   -1.5229    0.0000 C   0  0  0  0  0  0  0  0  0  0  0  0
   -2.8697   -1.1104    0.0000 C   0  0  0  0  0  0  0  0  0  0  0  0
   -2.8697   -0.2854    0.0000 C   0  0  0  0  0  0  0  0  0  0  0  0
   -3.5842    0.1271    0.0000 Cl  0  0  0  0  0  0  0  0  0  0  0  0
   -2.1552    0.1271    0.0000 C   0  0  0  0  0  0  0  0  0  0  0  0
   -1.4407   -0.2854    0.0000 C   0  0  0  0  0  0  0  0  0  0  0  0
   -0.6561   -0.0305    0.0000 S   0  0  0  0  0  0  0  0  0  0  0  0
   -0.1712   -0.6979    0.0000 C   0  0  0  0  0  0  0  0  0  0  0  0
   -0.6561   -1.3653    0.0000 C   0  0  0  0  0  0  0  0  0  0  0  0
   -0.4012   -2.1500    0.0000 O   0  0  0  0  0  0  0  0  0  0  0  0
   -1.4407   -1.1104    0.0000 C   0  0  0  0  0  0  0  0  0  0  0  0
    0.6538   -0.6979    0.0000 C   0  0  0  0  0  0  0  0  0  0  0  0
    1.1387   -0.0305    0.0000 S   0  0  0  0  0  0  0  0  0  0  0  0
    1.9233   -0.2854    0.0000 C   0  0  0  0  0  0  0  0  0  0  0  0
    2.6378    0.1271    0.0000 C   0  0  0  0  0  0  0  0  0  0  0  0
    3.3523   -0.2854    0.0000 C   0  0  0  0  0  0  0  0  0  0  0  0
    4.0668    0.1271    0.0000 Cl  0  0  0  0  0  0  0  0  0  0  0  0
    3.3523   -1.1104    0.0000 C   0  0  0  0  0  0  0  0  0  0  0  0
    2.6378   -1.5229    0.0000 C   0  0  0  0  0  0  0  0  0  0  0  0
    2.6378   -2.3479    0.0000 C   0  0  0  0  0  0  0  0  0  0  0  0
    1.9233   -1.1104    0.0000 C   0  0  0  0  0  0  0  0  0  0  0  0
    1.1387   -1.3653    0.0000 C   0  0  0  0  0  0  0  0  0  0  0  0
    0.8838   -2.1500    0.0000 O   0  0  0  0  0  0  0  0  0  0  0  0
   -2.9802   -2.3479    0.0000 H   0  0  0  0  0  0  0  0  0  0  0  0
   -2.1552   -3.1729    0.0000 H   0  0  0  0  0  0  0  0  0  0  0  0
   -1.3302   -2.3479    0.0000 H   0  0  0  0  0  0  0  0  0  0  0  0
   -3.5842   -1.5229    0.0000 H   0  0  0  0  0  0  0  0  0  0  0  0
   -2.1552    0.9521    0.0000 H   0  0  0  0  0  0  0  0  0  0  0  0
    2.6378    0.9521    0.0000 H   0  0  0  0  0  0  0  0  0  0  0  0
    4.0668   -1.5229    0.0000 H   0  0  0  0  0  0  0  0  0  0  0  0
    1.8128   -2.3479    0.0000 H   0  0  0  0  0  0  0  0  0  0  0  0
    2.6378   -3.1729    0.0000 H   0  0  0  0  0  0  0  0  0  0  0  0
    3.4628   -2.3479    0.0000 H   0  0  0  0  0  0  0  0  0  0  0  0
  1  2  1  0  0  0  0
  2  3  4  0  0  0  0
  3  4  4  0  0  0  0
  4  5  1  0  0  0  0
  4  6  4  0  0  0  0
  6  7  4  0  0  0  0
  7  8  1  0  0  0  0
  9  8  1  4  0  0  0
  9 10  1  0  0  0  0
 10 11  2  0  0  0  0
 10 12  1  0  0  0  0
  2 12  4  0  0  0  0
  7 12  4  0  0  0  0
  9 13  2  0  0  0  0
 13 14  1  0  0  0  0
 14 15  1  0  0  0  0
 15 16  4  0  0  0  0
 16 17  4  0  0  0  0
 17 18  1  0  0  0  0
 17 19  4  0  0  0  0
 19 20  4  0  0  0  0
 20 21  1  0  0  0  0
 20 22  4  0  0  0  0
 15 22  4  0  0  0  0
 22 23  1  0  0  0  0
 13 23  1  0  0  0  0
 23 24  2  0  0  0  0
  1 25  1  0  0  0  0
  1 26  1  0  0  0  0
  1 27  1  0  0  0  0
  3 28  1  0  0  0  0
  6 29  1  0  0  0  0
 16 30  1  0  0  0  0
 19 31  1  0  0  0  0
 21 32  1  0  0  0  0
 21 33  1  0  0  0  0
 21 34  1  0  0  0  0
M  END
>  <InChIKey>
InChI=1S/C18H10Cl2O2S2/c1-7-3-9(19)5-11-13(7)15(21)17(23-11)18-16(22)14-8(2)4-10(20)6-12(14)24-18/h3-6H,1-2H3

>  <CASRN>
2379-74-0

> <Outcome>
1

>  <Index>
2262

>  <StandardizerResult>
Dearomatize (ID: Dearomatize)
Clear Stereo (ID: ClearStereo)
Wedge Clean (ID: WedgeClean)
Mesomerize (ID: Mesomerize)
Tautomerize (ID: Tautomerize)
Aromatize (ID: Aromatize)
Add Explicit Hydrogens (ID: AddExplicitH)
Neutralize (ID: Neutralize)
Clean 2D (ID: Clean2D)

> <knn Distance>


> <CpId>
2262

$$$$
2263
  Mrv1532301301811342D          

 22 23  0  0  0  0            999 V2000
    0.7145   -0.4125    0.0000 Br  0  0  0  0  0  0  0  0  0  0  0  0
    0.7145   -1.2375    0.0000 C   0  0  0  0  0  0  0  0  0  0  0  0
    1.4289   -1.6500    0.0000 C   0  0  0  0  0  0  0  0  0  0  0  0
    1.4289   -2.4750    0.0000 C   0  0  0  0  0  0  0  0  0  0  0  0
    0.7145   -2.8875    0.0000 C   0  0  0  0  0  0  0  0  0  0  0  0
   -0.0000   -2.4750    0.0000 C   0  0  0  0  0  0  0  0  0  0  0  0
   -0.7145   -2.8875    0.0000 Br  0  0  0  0  0  0  0  0  0  0  0  0
   -0.0000   -1.6500    0.0000 C   0  0  0  0  0  0  0  0  0  0  0  0
   -0.7145   -1.2375    0.0000 Br  0  0  0  0  0  0  0  0  0  0  0  0
    0.7145   -3.7125    0.0000 C   0  0  0  0  0  0  0  0  0  0  0  0
    1.4289   -4.1250    0.0000 C   0  0  0  0  0  0  0  0  0  0  0  0
    2.1434   -3.7125    0.0000 Br  0  0  0  0  0  0  0  0  0  0  0  0
    1.4289   -4.9500    0.0000 C   0  0  0  0  0  0  0  0  0  0  0  0
    2.1434   -5.3625    0.0000 Br  0  0  0  0  0  0  0  0  0  0  0  0
    0.7145   -5.3625    0.0000 C   0  0  0  0  0  0  0  0  0  0  0  0
    0.7145   -6.1875    0.0000 Br  0  0  0  0  0  0  0  0  0  0  0  0
   -0.0000   -4.9500    0.0000 C   0  0  0  0  0  0  0  0  0  0  0  0
   -0.7145   -5.3625    0.0000 Br  0  0  0  0  0  0  0  0  0  0  0  0
   -0.0000   -4.1250    0.0000 C   0  0  0  0  0  0  0  0  0  0  0  0
   -0.7145   -3.7125    0.0000 Br  0  0  0  0  0  0  0  0  0  0  0  0
    2.1434   -1.2375    0.0000 H   0  0  0  0  0  0  0  0  0  0  0  0
    2.1434   -2.8875    0.0000 H   0  0  0  0  0  0  0  0  0  0  0  0
  1  2  1  0  0  0  0
  2  3  4  0  0  0  0
  3  4  4  0  0  0  0
  4  5  4  0  0  0  0
  5  6  4  0  0  0  0
  6  7  1  0  0  0  0
  6  8  4  0  0  0  0
  2  8  4  0  0  0  0
  8  9  1  0  0  0  0
  5 10  1  0  0  0  0
 10 11  4  0  0  0  0
 11 12  1  0  0  0  0
 11 13  4  0  0  0  0
 13 14  1  0  0  0  0
 13 15  4  0  0  0  0
 15 16  1  0  0  0  0
 15 17  4  0  0  0  0
 17 18  1  0  0  0  0
 17 19  4  0  0  0  0
 10 19  4  0  0  0  0
 19 20  1  0  0  0  0
  3 21  1  0  0  0  0
  4 22  1  0  0  0  0
M  END
>  <InChIKey>
InChI=1S/C12H2Br8/c13-4-2-1-3(6(14)7(4)15)5-8(16)10(18)12(20)11(19)9(5)17/h1-2H

>  <CASRN>
27858-07-7

> <Outcome>
1

>  <Index>
2263

>  <StandardizerResult>
Dearomatize (ID: Dearomatize)
Clear Stereo (ID: ClearStereo)
Wedge Clean (ID: WedgeClean)
Mesomerize (ID: Mesomerize)
Tautomerize (ID: Tautomerize)
Aromatize (ID: Aromatize)
Add Explicit Hydrogens (ID: AddExplicitH)
Neutralize (ID: Neutralize)
Clean 2D (ID: Clean2D)

> <knn Distance>


> <CpId>
2263

$$$$
2266
  Mrv1532301301811342D          

 68 67  0  0  0  0            999 V2000
   10.9461    7.1447    0.0000 C   0  0  0  0  0  0  0  0  0  0  0  0
   11.6605    7.5572    0.0000 C   0  0  0  0  0  0  0  0  0  0  0  0
   12.3750    7.1447    0.0000 C   0  0  0  0  0  0  0  0  0  0  0  0
   13.0895    7.5572    0.0000 C   0  0  0  0  0  0  0  0  0  0  0  0
   13.8039    7.1447    0.0000 C   0  0  0  0  0  0  0  0  0  0  0  0
   14.5184    7.5572    0.0000 C   0  0  0  0  0  0  0  0  0  0  0  0
   15.2329    7.1447    0.0000 C   0  0  0  0  0  0  0  0  0  0  0  0
   15.9474    7.5572    0.0000 C   0  0  0  0  0  0  0  0  0  0  0  0
   16.6618    7.1447    0.0000 O   0  0  0  0  0  0  0  0  0  0  0  0
   17.3763    7.5572    0.0000 C   0  0  0  0  0  0  0  0  0  0  0  0
   17.3763    8.3822    0.0000 O   0  0  0  0  0  0  0  0  0  0  0  0
   18.0908    7.1447    0.0000 C   0  0  0  0  0  0  0  0  0  0  0  0
   18.8052    7.5572    0.0000 C   0  0  0  0  0  0  0  0  0  0  0  0
   19.5197    7.1447    0.0000 C   0  0  0  0  0  0  0  0  0  0  0  0
   20.2342    7.5572    0.0000 C   0  0  0  0  0  0  0  0  0  0  0  0
   20.9487    7.1447    0.0000 C   0  0  0  0  0  0  0  0  0  0  0  0
   20.9487    6.3197    0.0000 O   0  0  0  0  0  0  0  0  0  0  0  0
   21.6631    7.5572    0.0000 O   0  0  0  0  0  0  0  0  0  0  0  0
   22.3776    7.1447    0.0000 C   0  0  0  0  0  0  0  0  0  0  0  0
   23.0921    7.5572    0.0000 C   0  0  0  0  0  0  0  0  0  0  0  0
   23.8065    7.1447    0.0000 C   0  0  0  0  0  0  0  0  0  0  0  0
   24.5210    7.5572    0.0000 C   0  0  0  0  0  0  0  0  0  0  0  0
   25.2355    7.1447    0.0000 C   0  0  0  0  0  0  0  0  0  0  0  0
   25.9500    7.5572    0.0000 C   0  0  0  0  0  0  0  0  0  0  0  0
   26.6644    7.1447    0.0000 C   0  0  0  0  0  0  0  0  0  0  0  0
   27.3789    7.5572    0.0000 C   0  0  0  0  0  0  0  0  0  0  0  0
   10.5336    7.8592    0.0000 H   0  0  0  0  0  0  0  0  0  0  0  0
   10.2316    6.7322    0.0000 H   0  0  0  0  0  0  0  0  0  0  0  0
   11.3586    6.4302    0.0000 H   0  0  0  0  0  0  0  0  0  0  0  0
   12.0308    8.2944    0.0000 H   0  0  0  0  0  0  0  0  0  0  0  0
   11.2903    8.2944    0.0000 H   0  0  0  0  0  0  0  0  0  0  0  0
   12.0047    6.4075    0.0000 H   0  0  0  0  0  0  0  0  0  0  0  0
   12.7453    6.4075    0.0000 H   0  0  0  0  0  0  0  0  0  0  0  0
   13.4597    8.2944    0.0000 H   0  0  0  0  0  0  0  0  0  0  0  0
   12.7192    8.2944    0.0000 H   0  0  0  0  0  0  0  0  0  0  0  0
   13.4337    6.4075    0.0000 H   0  0  0  0  0  0  0  0  0  0  0  0
   14.1742    6.4075    0.0000 H   0  0  0  0  0  0  0  0  0  0  0  0
   14.8887    8.2944    0.0000 H   0  0  0  0  0  0  0  0  0  0  0  0
   14.1482    8.2944    0.0000 H   0  0  0  0  0  0  0  0  0  0  0  0
   14.8626    6.4075    0.0000 H   0  0  0  0  0  0  0  0  0  0  0  0
   15.6031    6.4075    0.0000 H   0  0  0  0  0  0  0  0  0  0  0  0
   16.3176    8.2944    0.0000 H   0  0  0  0  0  0  0  0  0  0  0  0
   15.5771    8.2944    0.0000 H   0  0  0  0  0  0  0  0  0  0  0  0
   17.7205    6.4075    0.0000 H   0  0  0  0  0  0  0  0  0  0  0  0
   18.4610    6.4075    0.0000 H   0  0  0  0  0  0  0  0  0  0  0  0
   19.1755    8.2944    0.0000 H   0  0  0  0  0  0  0  0  0  0  0  0
   18.4350    8.2944    0.0000 H   0  0  0  0  0  0  0  0  0  0  0  0
   19.1495    6.4075    0.0000 H   0  0  0  0  0  0  0  0  0  0  0  0
   19.8900    6.4075    0.0000 H   0  0  0  0  0  0  0  0  0  0  0  0
   20.6044    8.2944    0.0000 H   0  0  0  0  0  0  0  0  0  0  0  0
   19.8639    8.2944    0.0000 H   0  0  0  0  0  0  0  0  0  0  0  0
   22.0073    6.4075    0.0000 H   0  0  0  0  0  0  0  0  0  0  0  0
   22.7479    6.4075    0.0000 H   0  0  0  0  0  0  0  0  0  0  0  0
   23.4623    8.2944    0.0000 H   0  0  0  0  0  0  0  0  0  0  0  0
   22.7218    8.2944    0.0000 H   0  0  0  0  0  0  0  0  0  0  0  0
   23.4363    6.4075    0.0000 H   0  0  0  0  0  0  0  0  0  0  0  0
   24.1768    6.4075    0.0000 H   0  0  0  0  0  0  0  0  0  0  0  0
   24.8913    8.2944    0.0000 H   0  0  0  0  0  0  0  0  0  0  0  0
   24.1507    8.2944    0.0000 H   0  0  0  0  0  0  0  0  0  0  0  0
   24.8652    6.4075    0.0000 H   0  0  0  0  0  0  0  0  0  0  0  0
   25.6057    6.4075    0.0000 H   0  0  0  0  0  0  0  0  0  0  0  0
   26.3202    8.2944    0.0000 H   0  0  0  0  0  0  0  0  0  0  0  0
   25.5797    8.2944    0.0000 H   0  0  0  0  0  0  0  0  0  0  0  0
   26.2942    6.4075    0.0000 H   0  0  0  0  0  0  0  0  0  0  0  0
   27.0347    6.4075    0.0000 H   0  0  0  0  0  0  0  0  0  0  0  0
   27.7914    6.8427    0.0000 H   0  0  0  0  0  0  0  0  0  0  0  0
   28.0934    7.9697    0.0000 H   0  0  0  0  0  0  0  0  0  0  0  0
   26.9664    8.2717    0.0000 H   0  0  0  0  0  0  0  0  0  0  0  0
  1  2  1  0  0  0  0
  2  3  1  0  0  0  0
  3  4  1  0  0  0  0
  4  5  1  0  0  0  0
  5  6  1  0  0  0  0
  6  7  1  0  0  0  0
  7  8  1  0  0  0  0
  8  9  1  0  0  0  0
  9 10  1  0  0  0  0
 10 11  2  0  0  0  0
 10 12  1  0  0  0  0
 12 13  1  0  0  0  0
 13 14  1  0  0  0  0
 14 15  1  0  0  0  0
 15 16  1  0  0  0  0
 16 17  2  0  0  0  0
 16 18  1  0  0  0  0
 18 19  1  0  0  0  0
 19 20  1  0  0  0  0
 20 21  1  0  0  0  0
 21 22  1  0  0  0  0
 22 23  1  0  0  0  0
 23 24  1  0  0  0  0
 24 25  1  0  0  0  0
 25 26  1  0  0  0  0
  1 27  1  0  0  0  0
  1 28  1  0  0  0  0
  1 29  1  0  0  0  0
  2 30  1  0  0  0  0
  2 31  1  0  0  0  0
  3 32  1  0  0  0  0
  3 33  1  0  0  0  0
  4 34  1  0  0  0  0
  4 35  1  0  0  0  0
  5 36  1  0  0  0  0
  5 37  1  0  0  0  0
  6 38  1  0  0  0  0
  6 39  1  0  0  0  0
  7 40  1  0  0  0  0
  7 41  1  0  0  0  0
  8 42  1  0  0  0  0
  8 43  1  0  0  0  0
 12 44  1  0  0  0  0
 12 45  1  0  0  0  0
 13 46  1  0  0  0  0
 13 47  1  0  0  0  0
 14 48  1  0  0  0  0
 14 49  1  0  0  0  0
 15 50  1  0  0  0  0
 15 51  1  0  0  0  0
 19 52  1  0  0  0  0
 19 53  1  0  0  0  0
 20 54  1  0  0  0  0
 20 55  1  0  0  0  0
 21 56  1  0  0  0  0
 21 57  1  0  0  0  0
 22 58  1  0  0  0  0
 22 59  1  0  0  0  0
 23 60  1  0  0  0  0
 23 61  1  0  0  0  0
 24 62  1  0  0  0  0
 24 63  1  0  0  0  0
 25 64  1  0  0  0  0
 25 65  1  0  0  0  0
 26 66  1  0  0  0  0
 26 67  1  0  0  0  0
 26 68  1  0  0  0  0
M  END
>  <InChIKey>
InChI=1S/C22H42O4/c1-3-5-7-9-11-15-19-25-21(23)17-13-14-18-22(24)26-20-16-12-10-8-6-4-2/h3-20H2,1-2H3

>  <CASRN>
123-79-5

> <Outcome>
1

>  <Index>
2266

>  <StandardizerResult>
Clear Stereo (ID: ClearStereo)
Wedge Clean (ID: WedgeClean)
Mesomerize (ID: Mesomerize)
Tautomerize (ID: Tautomerize)
Add Explicit Hydrogens (ID: AddExplicitH)
Neutralize (ID: Neutralize)
Clean 2D (ID: Clean2D)

> <knn Distance>


> <CpId>
2266

$$$$
2270
  Mrv1532301301811342D          

 60 60  0  0  0  0            999 V2000
    5.0013  -10.3128    0.0000 C   0  0  0  0  0  0  0  0  0  0  0  0
    5.7158   -9.9003    0.0000 C   0  0  0  0  0  0  0  0  0  0  0  0
    6.4302  -10.3128    0.0000 C   0  0  0  0  0  0  0  0  0  0  0  0
    7.1447   -9.9003    0.0000 C   0  0  0  0  0  0  0  0  0  0  0  0
    7.8592  -10.3128    0.0000 C   0  0  0  0  0  0  0  0  0  0  0  0
    8.5737   -9.9003    0.0000 C   0  0  0  0  0  0  0  0  0  0  0  0
    9.2881  -10.3128    0.0000 C   0  0  0  0  0  0  0  0  0  0  0  0
   10.0026   -9.9003    0.0000 C   0  0  0  0  0  0  0  0  0  0  0  0
   10.7171  -10.3128    0.0000 C   0  0  0  0  0  0  0  0  0  0  0  0
   11.4315   -9.9003    0.0000 C   0  0  0  0  0  0  0  0  0  0  0  0
   12.1460  -10.3128    0.0000 C   0  0  0  0  0  0  0  0  0  0  0  0
   12.8605   -9.9003    0.0000 C   0  0  0  0  0  0  0  0  0  0  0  0
   13.5750  -10.3128    0.0000 C   0  0  0  0  0  0  0  0  0  0  0  0
   14.2894   -9.9003    0.0000 C   0  0  0  0  0  0  0  0  0  0  0  0
   15.0039  -10.3128    0.0000 C   0  0  0  0  0  0  0  0  0  0  0  0
   15.7184   -9.9003    0.0000 C   0  0  0  0  0  0  0  0  0  0  0  0
   16.4328  -10.3128    0.0000 N   0  3  0  0  0  0  0  0  0  0  0  0
   17.1473   -9.9003    0.0000 C   0  0  0  0  0  0  0  0  0  0  0  0
   17.8618  -10.3128    0.0000 C   0  0  0  0  0  0  0  0  0  0  0  0
   17.8618  -11.1378    0.0000 C   0  0  0  0  0  0  0  0  0  0  0  0
   17.1473  -11.5503    0.0000 C   0  0  0  0  0  0  0  0  0  0  0  0
   16.4328  -11.1378    0.0000 C   0  0  0  0  0  0  0  0  0  0  0  0
    4.5888   -9.5983    0.0000 H   0  0  0  0  0  0  0  0  0  0  0  0
    4.2868  -10.7253    0.0000 H   0  0  0  0  0  0  0  0  0  0  0  0
    5.4138  -11.0273    0.0000 H   0  0  0  0  0  0  0  0  0  0  0  0
    6.0860   -9.1630    0.0000 H   0  0  0  0  0  0  0  0  0  0  0  0
    5.3455   -9.1630    0.0000 H   0  0  0  0  0  0  0  0  0  0  0  0
    6.0600  -11.0500    0.0000 H   0  0  0  0  0  0  0  0  0  0  0  0
    6.8005  -11.0500    0.0000 H   0  0  0  0  0  0  0  0  0  0  0  0
    7.5150   -9.1630    0.0000 H   0  0  0  0  0  0  0  0  0  0  0  0
    6.7745   -9.1630    0.0000 H   0  0  0  0  0  0  0  0  0  0  0  0
    7.4889  -11.0500    0.0000 H   0  0  0  0  0  0  0  0  0  0  0  0
    8.2294  -11.0500    0.0000 H   0  0  0  0  0  0  0  0  0  0  0  0
    8.9439   -9.1630    0.0000 H   0  0  0  0  0  0  0  0  0  0  0  0
    8.2034   -9.1630    0.0000 H   0  0  0  0  0  0  0  0  0  0  0  0
    8.9179  -11.0500    0.0000 H   0  0  0  0  0  0  0  0  0  0  0  0
    9.6584  -11.0500    0.0000 H   0  0  0  0  0  0  0  0  0  0  0  0
   10.3729   -9.1630    0.0000 H   0  0  0  0  0  0  0  0  0  0  0  0
    9.6323   -9.1630    0.0000 H   0  0  0  0  0  0  0  0  0  0  0  0
   10.3468  -11.0500    0.0000 H   0  0  0  0  0  0  0  0  0  0  0  0
   11.0873  -11.0500    0.0000 H   0  0  0  0  0  0  0  0  0  0  0  0
   11.8018   -9.1630    0.0000 H   0  0  0  0  0  0  0  0  0  0  0  0
   11.0613   -9.1630    0.0000 H   0  0  0  0  0  0  0  0  0  0  0  0
   11.7757  -11.0500    0.0000 H   0  0  0  0  0  0  0  0  0  0  0  0
   12.5163  -11.0500    0.0000 H   0  0  0  0  0  0  0  0  0  0  0  0
   13.2307   -9.1630    0.0000 H   0  0  0  0  0  0  0  0  0  0  0  0
   12.4902   -9.1630    0.0000 H   0  0  0  0  0  0  0  0  0  0  0  0
   13.2047  -11.0500    0.0000 H   0  0  0  0  0  0  0  0  0  0  0  0
   13.9452  -11.0500    0.0000 H   0  0  0  0  0  0  0  0  0  0  0  0
   14.6597   -9.1630    0.0000 H   0  0  0  0  0  0  0  0  0  0  0  0
   13.9192   -9.1630    0.0000 H   0  0  0  0  0  0  0  0  0  0  0  0
   14.6336  -11.0500    0.0000 H   0  0  0  0  0  0  0  0  0  0  0  0
   15.3742  -11.0500    0.0000 H   0  0  0  0  0  0  0  0  0  0  0  0
   16.0886   -9.1630    0.0000 H   0  0  0  0  0  0  0  0  0  0  0  0
   15.3481   -9.1630    0.0000 H   0  0  0  0  0  0  0  0  0  0  0  0
   17.1473   -9.0753    0.0000 H   0  0  0  0  0  0  0  0  0  0  0  0
   18.5762   -9.9003    0.0000 H   0  0  0  0  0  0  0  0  0  0  0  0
   18.5762  -11.5503    0.0000 H   0  0  0  0  0  0  0  0  0  0  0  0
   17.1473  -12.3753    0.0000 H   0  0  0  0  0  0  0  0  0  0  0  0
   15.7184  -11.5503    0.0000 H   0  0  0  0  0  0  0  0  0  0  0  0
  1  2  1  0  0  0  0
  2  3  1  0  0  0  0
  3  4  1  0  0  0  0
  4  5  1  0  0  0  0
  5  6  1  0  0  0  0
  6  7  1  0  0  0  0
  7  8  1  0  0  0  0
  8  9  1  0  0  0  0
  9 10  1  0  0  0  0
 10 11  1  0  0  0  0
 11 12  1  0  0  0  0
 12 13  1  0  0  0  0
 13 14  1  0  0  0  0
 14 15  1  0  0  0  0
 15 16  1  0  0  0  0
 16 17  1  0  0  0  0
 17 18  4  0  0  0  0
 18 19  4  0  0  0  0
 19 20  4  0  0  0  0
 20 21  4  0  0  0  0
 21 22  4  0  0  0  0
 17 22  4  0  0  0  0
  1 23  1  0  0  0  0
  1 24  1  0  0  0  0
  1 25  1  0  0  0  0
  2 26  1  0  0  0  0
  2 27  1  0  0  0  0
  3 28  1  0  0  0  0
  3 29  1  0  0  0  0
  4 30  1  0  0  0  0
  4 31  1  0  0  0  0
  5 32  1  0  0  0  0
  5 33  1  0  0  0  0
  6 34  1  0  0  0  0
  6 35  1  0  0  0  0
  7 36  1  0  0  0  0
  7 37  1  0  0  0  0
  8 38  1  0  0  0  0
  8 39  1  0  0  0  0
  9 40  1  0  0  0  0
  9 41  1  0  0  0  0
 10 42  1  0  0  0  0
 10 43  1  0  0  0  0
 11 44  1  0  0  0  0
 11 45  1  0  0  0  0
 12 46  1  0  0  0  0
 12 47  1  0  0  0  0
 13 48  1  0  0  0  0
 13 49  1  0  0  0  0
 14 50  1  0  0  0  0
 14 51  1  0  0  0  0
 15 52  1  0  0  0  0
 15 53  1  0  0  0  0
 16 54  1  0  0  0  0
 16 55  1  0  0  0  0
 18 56  1  0  0  0  0
 19 57  1  0  0  0  0
 20 58  1  0  0  0  0
 21 59  1  0  0  0  0
 22 60  1  0  0  0  0
M  CHG  1  17   1
M  END
>  <InChIKey>
InChI=1S/C21H38N/c1-2-3-4-5-6-7-8-9-10-11-12-13-14-16-19-22-20-17-15-18-21-22/h15,17-18,20-21H,2-14,16,19H2,1H3/q+1

> <Outcome>
1

>  <Index>
2270

>  <StandardizerResult>
Dearomatize (ID: Dearomatize)
Clear Stereo (ID: ClearStereo)
Wedge Clean (ID: WedgeClean)
Mesomerize (ID: Mesomerize)
Tautomerize (ID: Tautomerize)
Aromatize (ID: Aromatize)
Add Explicit Hydrogens (ID: AddExplicitH)
Clean 2D (ID: Clean2D)

> <knn Distance>


> <CpId>
2270

$$$$
2271
  Mrv1532301301811342D          

 29 29  0  0  0  0            999 V2000
   -0.7145   -3.7119    0.0000 Cl  0  0  0  0  0  0  0  0  0  0  0  0
   -0.0000   -4.1244    0.0000 C   0  0  0  0  0  0  0  0  0  0  0  0
    0.7145   -3.7119    0.0000 C   0  0  0  0  0  0  0  0  0  0  0  0
    1.4289   -4.1244    0.0000 C   0  0  0  0  0  0  0  0  0  0  0  0
    2.1434   -3.7119    0.0000 C   0  0  0  0  0  0  0  0  0  0  0  0
    2.8579   -4.1244    0.0000 O   0  0  0  0  0  0  0  0  0  0  0  0
    3.5723   -3.7119    0.0000 C   0  0  0  0  0  0  0  0  0  0  0  0
    3.5723   -2.8869    0.0000 O   0  0  0  0  0  0  0  0  0  0  0  0
    4.2868   -4.1244    0.0000 C   0  0  0  0  0  0  0  0  0  0  0  0
    5.0013   -3.7119    0.0000 O   0  0  0  0  0  0  0  0  0  0  0  0
    5.7158   -4.1244    0.0000 C   0  0  0  0  0  0  0  0  0  0  0  0
    6.4302   -3.7119    0.0000 C   0  0  0  0  0  0  0  0  0  0  0  0
    7.1447   -4.1244    0.0000 C   0  0  0  0  0  0  0  0  0  0  0  0
    7.1447   -4.9494    0.0000 C   0  0  0  0  0  0  0  0  0  0  0  0
    7.8592   -5.3619    0.0000 Cl  0  0  0  0  0  0  0  0  0  0  0  0
    6.4302   -5.3619    0.0000 C   0  0  0  0  0  0  0  0  0  0  0  0
    5.7158   -4.9494    0.0000 C   0  0  0  0  0  0  0  0  0  0  0  0
    5.0013   -5.3619    0.0000 Cl  0  0  0  0  0  0  0  0  0  0  0  0
   -0.3703   -4.8616    0.0000 H   0  0  0  0  0  0  0  0  0  0  0  0
    0.3703   -4.8616    0.0000 H   0  0  0  0  0  0  0  0  0  0  0  0
    0.7145   -2.8869    0.0000 H   0  0  0  0  0  0  0  0  0  0  0  0
    1.4289   -4.9494    0.0000 H   0  0  0  0  0  0  0  0  0  0  0  0
    2.5137   -2.9746    0.0000 H   0  0  0  0  0  0  0  0  0  0  0  0
    1.7731   -2.9746    0.0000 H   0  0  0  0  0  0  0  0  0  0  0  0
    3.9166   -4.8616    0.0000 H   0  0  0  0  0  0  0  0  0  0  0  0
    4.6571   -4.8616    0.0000 H   0  0  0  0  0  0  0  0  0  0  0  0
    6.4302   -2.8869    0.0000 H   0  0  0  0  0  0  0  0  0  0  0  0
    7.8592   -3.7119    0.0000 H   0  0  0  0  0  0  0  0  0  0  0  0
    6.4302   -6.1869    0.0000 H   0  0  0  0  0  0  0  0  0  0  0  0
  1  2  1  0  0  0  0
  3  2  1  4  0  0  0
  3  4  2  0  0  0  0
  4  5  1  0  0  0  0
  5  6  1  0  0  0  0
  6  7  1  0  0  0  0
  7  8  2  0  0  0  0
  7  9  1  0  0  0  0
  9 10  1  0  0  0  0
 10 11  1  0  0  0  0
 11 12  4  0  0  0  0
 12 13  4  0  0  0  0
 13 14  4  0  0  0  0
 14 15  1  0  0  0  0
 14 16  4  0  0  0  0
 16 17  4  0  0  0  0
 11 17  4  0  0  0  0
 17 18  1  0  0  0  0
  2 19  1  0  0  0  0
  2 20  1  0  0  0  0
  3 21  1  0  0  0  0
  4 22  1  0  0  0  0
  5 23  1  0  0  0  0
  5 24  1  0  0  0  0
  9 25  1  0  0  0  0
  9 26  1  0  0  0  0
 12 27  1  0  0  0  0
 13 28  1  0  0  0  0
 16 29  1  0  0  0  0
M  END
>  <InChIKey>
InChI=1S/C12H11Cl3O3/c13-5-1-2-6-17-12(16)8-18-11-4-3-9(14)7-10(11)15/h1-4,7H,5-6,8H2

>  <CASRN>
2971-38-2

> <Outcome>
1

>  <Index>
2271

>  <StandardizerResult>
Dearomatize (ID: Dearomatize)
Clear Stereo (ID: ClearStereo)
Wedge Clean (ID: WedgeClean)
Mesomerize (ID: Mesomerize)
Tautomerize (ID: Tautomerize)
Aromatize (ID: Aromatize)
Add Explicit Hydrogens (ID: AddExplicitH)
Neutralize (ID: Neutralize)
Clean 2D (ID: Clean2D)

> <knn Distance>


> <CpId>
2271

$$$$
2277
  Mrv1532301301811342D          

 21 20  0  0  0  0            999 V2000
    1.7605    1.8414    0.0000 C   0  0  0  0  0  0  0  0  0  0  0  0
    2.4750    1.4289    0.0000 C   0  0  0  0  0  0  0  0  0  0  0  0
    3.1895    1.8414    0.0000 C   0  0  0  0  0  0  0  0  0  0  0  0
    3.9040    1.4289    0.0000 O   0  0  0  0  0  0  0  0  0  0  0  0
    4.6184    1.8414    0.0000 C   0  0  0  0  0  0  0  0  0  0  0  0
    4.6184    2.6664    0.0000 O   0  0  0  0  0  0  0  0  0  0  0  0
    5.3329    1.4289    0.0000 C   0  0  0  0  0  0  0  0  0  0  0  0
    6.0474    1.8414    0.0000 C   0  0  0  0  0  0  0  0  0  0  0  0
    5.3329    0.6039    0.0000 C   0  0  0  0  0  0  0  0  0  0  0  0
    2.1730    2.5559    0.0000 H   0  0  0  0  0  0  0  0  0  0  0  0
    1.0461    2.2539    0.0000 H   0  0  0  0  0  0  0  0  0  0  0  0
    1.3480    1.1269    0.0000 H   0  0  0  0  0  0  0  0  0  0  0  0
    2.1047    0.6917    0.0000 H   0  0  0  0  0  0  0  0  0  0  0  0
    2.8453    0.6917    0.0000 H   0  0  0  0  0  0  0  0  0  0  0  0
    3.5597    2.5786    0.0000 H   0  0  0  0  0  0  0  0  0  0  0  0
    2.8192    2.5786    0.0000 H   0  0  0  0  0  0  0  0  0  0  0  0
    6.4599    1.1269    0.0000 H   0  0  0  0  0  0  0  0  0  0  0  0
    6.7618    2.2539    0.0000 H   0  0  0  0  0  0  0  0  0  0  0  0
    5.6349    2.5559    0.0000 H   0  0  0  0  0  0  0  0  0  0  0  0
    4.6184    0.1914    0.0000 H   0  0  0  0  0  0  0  0  0  0  0  0
    6.0474    0.1914    0.0000 H   0  0  0  0  0  0  0  0  0  0  0  0
  1  2  1  0  0  0  0
  2  3  1  0  0  0  0
  3  4  1  0  0  0  0
  4  5  1  0  0  0  0
  5  6  2  0  0  0  0
  5  7  1  0  0  0  0
  7  8  1  0  0  0  0
  7  9  2  0  0  0  0
  1 10  1  0  0  0  0
  1 11  1  0  0  0  0
  1 12  1  0  0  0  0
  2 13  1  0  0  0  0
  2 14  1  0  0  0  0
  3 15  1  0  0  0  0
  3 16  1  0  0  0  0
  8 17  1  0  0  0  0
  8 18  1  0  0  0  0
  8 19  1  0  0  0  0
  9 20  1  0  0  0  0
  9 21  1  0  0  0  0
M  END
>  <InChIKey>
InChI=1S/C7H12O2/c1-4-5-9-7(8)6(2)3/h2,4-5H2,1,3H3

>  <CASRN>
2210-28-8

> <Outcome>
1

>  <Index>
2277

>  <StandardizerResult>
Clear Stereo (ID: ClearStereo)
Wedge Clean (ID: WedgeClean)
Mesomerize (ID: Mesomerize)
Tautomerize (ID: Tautomerize)
Add Explicit Hydrogens (ID: AddExplicitH)
Neutralize (ID: Neutralize)
Clean 2D (ID: Clean2D)

> <knn Distance>


> <CpId>
2277

$$$$
2286
  Mrv1532301301811342D          

 16 16  0  0  0  0            999 V2000
    0.7145    2.0625    0.0000 N   0  0  0  0  0  0  0  0  0  0  0  0
    0.7145    1.2375    0.0000 C   0  0  0  0  0  0  0  0  0  0  0  0
    1.4289    0.8250    0.0000 C   0  0  0  0  0  0  0  0  0  0  0  0
    1.4289   -0.0000    0.0000 C   0  0  0  0  0  0  0  0  0  0  0  0
    2.1434   -0.4125    0.0000 Cl  0  0  0  0  0  0  0  0  0  0  0  0
    0.7145   -0.4125    0.0000 N   0  0  0  0  0  0  0  0  0  0  0  0
   -0.0000   -0.0000    0.0000 C   0  0  0  0  0  0  0  0  0  0  0  0
   -0.7145   -0.4125    0.0000 C   0  0  0  0  0  0  0  0  0  0  0  0
   -0.7145   -1.2375    0.0000 O   0  0  0  0  0  0  0  0  0  0  0  0
   -1.4289   -0.0000    0.0000 O   0  0  0  0  0  0  0  0  0  0  0  0
   -0.0000    0.8250    0.0000 C   0  0  0  0  0  0  0  0  0  0  0  0
   -0.7145    1.2375    0.0000 Cl  0  0  0  0  0  0  0  0  0  0  0  0
    1.4289    2.4750    0.0000 H   0  0  0  0  0  0  0  0  0  0  0  0
   -0.0000    2.4750    0.0000 H   0  0  0  0  0  0  0  0  0  0  0  0
    2.1434    1.2375    0.0000 H   0  0  0  0  0  0  0  0  0  0  0  0
   -1.4289   -1.6500    0.0000 H   0  0  0  0  0  0  0  0  0  0  0  0
  1  2  1  0  0  0  0
  2  3  4  0  0  0  0
  3  4  4  0  0  0  0
  4  5  1  0  0  0  0
  4  6  4  0  0  0  0
  6  7  4  0  0  0  0
  7  8  1  0  0  0  0
  8  9  1  0  0  0  0
  8 10  2  0  0  0  0
  7 11  4  0  0  0  0
  2 11  4  0  0  0  0
 11 12  1  0  0  0  0
  1 13  1  0  0  0  0
  1 14  1  0  0  0  0
  3 15  1  0  0  0  0
  9 16  1  0  0  0  0
M  END
>  <InChIKey>
InChI=1S/C6H4Cl2N2O2/c7-3-1-2(9)4(8)5(10-3)6(11)12/h1H,(H2,9,10)(H,11,12)

>  <UN GHS>
1

>  <CASRN>
150114-71-9

> <Outcome>
1

>  <Index>
2286

>  <StandardizerResult>
Dearomatize (ID: Dearomatize)
Clear Stereo (ID: ClearStereo)
Wedge Clean (ID: WedgeClean)
Mesomerize (ID: Mesomerize)
Tautomerize (ID: Tautomerize)
Aromatize (ID: Aromatize)
Add Explicit Hydrogens (ID: AddExplicitH)
Neutralize (ID: Neutralize)
Clean 2D (ID: Clean2D)

> <knn Distance>


> <CpId>
2286

$$$$
2288
  Mrv1532301301811342D          

 19 19  0  0  0  0            999 V2000
    0.7145    2.0625    0.0000 C   0  0  0  0  0  0  0  0  0  0  0  0
    0.7145    1.2375    0.0000 C   0  0  0  0  0  0  0  0  0  0  0  0
    1.4289    0.8250    0.0000 C   0  0  0  0  0  0  0  0  0  0  0  0
    1.4289    0.0000    0.0000 C   0  0  0  0  0  0  0  0  0  0  0  0
    0.7145   -0.4125    0.0000 C   0  0  0  0  0  0  0  0  0  0  0  0
    0.7145   -1.2375    0.0000 C   0  0  0  0  0  0  0  0  0  0  0  0
    1.4289   -1.6500    0.0000 O   0  0  0  0  0  0  0  0  0  0  0  0
   -0.0000   -1.6500    0.0000 O   0  0  0  0  0  0  0  0  0  0  0  0
   -0.0000    0.0000    0.0000 C   0  0  0  0  0  0  0  0  0  0  0  0
   -0.7145   -0.4125    0.0000 O   0  0  0  0  0  0  0  0  0  0  0  0
   -0.0000    0.8250    0.0000 C   0  0  0  0  0  0  0  0  0  0  0  0
    1.5395    2.0625    0.0000 H   0  0  0  0  0  0  0  0  0  0  0  0
    0.7145    2.8875    0.0000 H   0  0  0  0  0  0  0  0  0  0  0  0
   -0.1105    2.0625    0.0000 H   0  0  0  0  0  0  0  0  0  0  0  0
    2.1434    1.2375    0.0000 H   0  0  0  0  0  0  0  0  0  0  0  0
    2.1434   -0.4125    0.0000 H   0  0  0  0  0  0  0  0  0  0  0  0
    1.4289   -2.4750    0.0000 H   0  0  0  0  0  0  0  0  0  0  0  0
   -1.4289    0.0000    0.0000 H   0  0  0  0  0  0  0  0  0  0  0  0
   -0.7145    1.2375    0.0000 H   0  0  0  0  0  0  0  0  0  0  0  0
  1  2  1  0  0  0  0
  2  3  4  0  0  0  0
  3  4  4  0  0  0  0
  4  5  4  0  0  0  0
  5  6  1  0  0  0  0
  6  7  1  0  0  0  0
  6  8  2  0  0  0  0
  5  9  4  0  0  0  0
  9 10  1  0  0  0  0
  9 11  4  0  0  0  0
  2 11  4  0  0  0  0
  1 12  1  0  0  0  0
  1 13  1  0  0  0  0
  1 14  1  0  0  0  0
  3 15  1  0  0  0  0
  4 16  1  0  0  0  0
  7 17  1  0  0  0  0
 10 18  1  0  0  0  0
 11 19  1  0  0  0  0
M  END
>  <InChIKey>
InChI=1S/C8H8O3/c1-5-2-3-6(8(10)11)7(9)4-5/h2-4,9H,1H3,(H,10,11)

>  <CASRN>
50-85-1

> <Outcome>
1

>  <Index>
2288

>  <StandardizerResult>
Dearomatize (ID: Dearomatize)
Clear Stereo (ID: ClearStereo)
Wedge Clean (ID: WedgeClean)
Mesomerize (ID: Mesomerize)
Tautomerize (ID: Tautomerize)
Aromatize (ID: Aromatize)
Add Explicit Hydrogens (ID: AddExplicitH)
Neutralize (ID: Neutralize)
Clean 2D (ID: Clean2D)

> <knn Distance>


> <CpId>
2288

$$$$
2291
  Mrv1532301301811342D          

 16 16  0  0  0  0            999 V2000
   -0.0000    2.4750    0.0000 O   0  0  0  0  0  0  0  0  0  0  0  0
    0.7145    2.0625    0.0000 C   0  0  0  0  0  0  0  0  0  0  0  0
    1.4289    2.4750    0.0000 O   0  0  0  0  0  0  0  0  0  0  0  0
    0.7145    1.2375    0.0000 C   0  0  0  0  0  0  0  0  0  0  0  0
    1.4289    0.8250    0.0000 C   0  0  0  0  0  0  0  0  0  0  0  0
    1.4289   -0.0000    0.0000 C   0  0  0  0  0  0  0  0  0  0  0  0
    2.1434   -0.4125    0.0000 Cl  0  0  0  0  0  0  0  0  0  0  0  0
    0.7145   -0.4125    0.0000 C   0  0  0  0  0  0  0  0  0  0  0  0
   -0.0000   -0.0000    0.0000 C   0  0  0  0  0  0  0  0  0  0  0  0
   -0.0000    0.8250    0.0000 C   0  0  0  0  0  0  0  0  0  0  0  0
   -0.7145    1.2375    0.0000 O   0  0  0  0  0  0  0  0  0  0  0  0
   -0.0000    3.3000    0.0000 H   0  0  0  0  0  0  0  0  0  0  0  0
    2.1434    1.2375    0.0000 H   0  0  0  0  0  0  0  0  0  0  0  0
    0.7145   -1.2375    0.0000 H   0  0  0  0  0  0  0  0  0  0  0  0
   -0.7145   -0.4125    0.0000 H   0  0  0  0  0  0  0  0  0  0  0  0
   -0.7145    2.0625    0.0000 H   0  0  0  0  0  0  0  0  0  0  0  0
  1  2  1  0  0  0  0
  2  3  2  0  0  0  0
  2  4  1  0  0  0  0
  4  5  4  0  0  0  0
  5  6  4  0  0  0  0
  6  7  1  0  0  0  0
  6  8  4  0  0  0  0
  8  9  4  0  0  0  0
  9 10  4  0  0  0  0
  4 10  4  0  0  0  0
 10 11  1  0  0  0  0
  1 12  1  0  0  0  0
  5 13  1  0  0  0  0
  8 14  1  0  0  0  0
  9 15  1  0  0  0  0
 11 16  1  0  0  0  0
M  END
>  <InChIKey>
InChI=1S/C7H5ClO3/c8-4-1-2-6(9)5(3-4)7(10)11/h1-3,9H,(H,10,11)

>  <CASRN>
321-14-2

> <Outcome>
1

>  <Index>
2291

>  <StandardizerResult>
Dearomatize (ID: Dearomatize)
Clear Stereo (ID: ClearStereo)
Wedge Clean (ID: WedgeClean)
Mesomerize (ID: Mesomerize)
Tautomerize (ID: Tautomerize)
Aromatize (ID: Aromatize)
Add Explicit Hydrogens (ID: AddExplicitH)
Neutralize (ID: Neutralize)
Clean 2D (ID: Clean2D)

> <knn Distance>


> <CpId>
2291

$$$$
2294
  Mrv1532301301811342D          

  7  6  0  0  0  0            999 V2000
    2.0625   -0.7145    0.0000 C   0  0  0  0  0  0  0  0  0  0  0  0
    1.6500   -0.0000    0.0000 C   0  0  0  0  0  0  0  0  0  0  0  0
    0.8250   -0.0000    0.0000 C   0  0  0  0  0  0  0  0  0  0  0  0
   -0.0000   -0.0000    0.0000 N   0  0  0  0  0  0  0  0  0  0  0  0
    1.6500   -1.4290    0.0000 H   0  0  0  0  0  0  0  0  0  0  0  0
    2.8875   -0.7145    0.0000 H   0  0  0  0  0  0  0  0  0  0  0  0
    2.0625    0.7145    0.0000 H   0  0  0  0  0  0  0  0  0  0  0  0
  1  2  2  0  0  0  0
  2  3  1  0  0  0  0
  3  4  3  0  0  0  0
  1  5  1  0  0  0  0
  1  6  1  0  0  0  0
  2  7  1  0  0  0  0
M  END
>  <InChIKey>
InChI=1S/C3H3N/c1-2-3-4/h2H,1H2

>  <CASRN>
107-13-1

> <Outcome>
1

>  <Index>
2294

>  <StandardizerResult>
Clear Stereo (ID: ClearStereo)
Wedge Clean (ID: WedgeClean)
Mesomerize (ID: Mesomerize)
Tautomerize (ID: Tautomerize)
Add Explicit Hydrogens (ID: AddExplicitH)
Neutralize (ID: Neutralize)
Clean 2D (ID: Clean2D)

> <knn Distance>


> <CpId>
2294

$$$$
2295
  Mrv1532301301811342D          

 69 71  0  0  0  0            999 V2000
   -2.8446    0.0023    0.0000 N   0  0  0  0  0  0  0  0  0  0  0  0
   -3.5591   -0.4102    0.0000 C   0  0  0  0  0  0  0  0  0  0  0  0
   -3.5591   -1.2352    0.0000 C   0  0  0  0  0  0  0  0  0  0  0  0
   -4.2736   -1.6477    0.0000 O   0  0  0  0  0  0  0  0  0  0  0  0
   -4.2736   -2.4727    0.0000 C   0  0  0  0  0  0  0  0  0  0  0  0
   -4.9881   -2.8852    0.0000 O   0  0  0  0  0  0  0  0  0  0  0  0
   -5.7025   -2.4727    0.0000 C   0  0  0  0  0  0  0  0  0  0  0  0
   -5.7025   -1.6477    0.0000 C   0  0  0  0  0  0  0  0  0  0  0  0
   -4.9881   -1.2352    0.0000 N   0  0  0  0  0  0  0  0  0  0  0  0
   -6.4170   -1.2352    0.0000 C   0  0  0  0  0  0  0  0  0  0  0  0
   -7.1315   -1.6477    0.0000 C   0  0  0  0  0  0  0  0  0  0  0  0
   -7.8459   -1.2352    0.0000 N   0  0  0  0  0  0  0  0  0  0  0  0
   -7.1315   -2.4727    0.0000 C   0  0  0  0  0  0  0  0  0  0  0  0
   -7.8459   -2.8852    0.0000 O   0  0  0  0  0  0  0  0  0  0  0  0
   -7.8459   -3.7102    0.0000 C   0  0  0  0  0  0  0  0  0  0  0  0
   -7.1315   -4.1227    0.0000 O   0  0  0  0  0  0  0  0  0  0  0  0
   -7.1315   -4.9477    0.0000 C   0  0  0  0  0  0  0  0  0  0  0  0
   -6.4170   -5.3602    0.0000 C   0  0  0  0  0  0  0  0  0  0  0  0
   -5.7025   -4.9477    0.0000 O   0  0  0  0  0  0  0  0  0  0  0  0
   -7.8459   -5.3602    0.0000 C   0  0  0  0  0  0  0  0  0  0  0  0
   -7.8459   -6.1852    0.0000 O   0  0  0  0  0  0  0  0  0  0  0  0
   -8.5604   -4.9477    0.0000 C   0  0  0  0  0  0  0  0  0  0  0  0
   -9.2749   -5.3602    0.0000 N   0  0  0  0  0  0  0  0  0  0  0  0
   -8.5604   -4.1227    0.0000 C   0  0  0  0  0  0  0  0  0  0  0  0
   -9.2749   -3.7102    0.0000 O   0  0  0  0  0  0  0  0  0  0  0  0
   -6.4170   -2.8852    0.0000 C   0  0  0  0  0  0  0  0  0  0  0  0
   -6.4170   -3.7102    0.0000 O   0  0  0  0  0  0  0  0  0  0  0  0
   -3.5591   -2.8852    0.0000 C   0  0  0  0  0  0  0  0  0  0  0  0
   -3.5591   -3.7102    0.0000 N   0  0  0  0  0  0  0  0  0  0  0  0
   -2.8446   -2.4727    0.0000 C   0  0  0  0  0  0  0  0  0  0  0  0
   -2.8446   -1.6477    0.0000 C   0  0  0  0  0  0  0  0  0  0  0  0
   -2.1302   -1.2352    0.0000 O   0  0  0  0  0  0  0  0  0  0  0  0
   -2.1302   -0.4102    0.0000 H   0  0  0  0  0  0  0  0  0  0  0  0
   -2.8446    0.8273    0.0000 H   0  0  0  0  0  0  0  0  0  0  0  0
   -4.0125    0.2791    0.0000 H   0  0  0  0  0  0  0  0  0  0  0  0
   -4.3827   -0.3622    0.0000 H   0  0  0  0  0  0  0  0  0  0  0  0
   -2.8446   -0.8227    0.0000 H   0  0  0  0  0  0  0  0  0  0  0  0
   -4.2736   -3.2977    0.0000 H   0  0  0  0  0  0  0  0  0  0  0  0
   -5.7025   -3.2977    0.0000 H   0  0  0  0  0  0  0  0  0  0  0  0
   -4.9881   -2.0602    0.0000 H   0  0  0  0  0  0  0  0  0  0  0  0
   -4.6178   -0.4979    0.0000 H   0  0  0  0  0  0  0  0  0  0  0  0
   -5.3583   -0.4979    0.0000 H   0  0  0  0  0  0  0  0  0  0  0  0
   -6.0467   -0.4979    0.0000 H   0  0  0  0  0  0  0  0  0  0  0  0
   -6.7873   -0.4979    0.0000 H   0  0  0  0  0  0  0  0  0  0  0  0
   -7.8459   -2.0602    0.0000 H   0  0  0  0  0  0  0  0  0  0  0  0
   -7.7980   -0.4116    0.0000 H   0  0  0  0  0  0  0  0  0  0  0  0
   -8.5832   -0.8649    0.0000 H   0  0  0  0  0  0  0  0  0  0  0  0
   -7.1315   -3.2977    0.0000 H   0  0  0  0  0  0  0  0  0  0  0  0
   -8.5604   -3.2977    0.0000 H   0  0  0  0  0  0  0  0  0  0  0  0
   -7.1315   -5.7727    0.0000 H   0  0  0  0  0  0  0  0  0  0  0  0
   -6.2737   -6.1726    0.0000 H   0  0  0  0  0  0  0  0  0  0  0  0
   -5.7850   -5.8905    0.0000 H   0  0  0  0  0  0  0  0  0  0  0  0
   -5.2593   -4.2519    0.0000 H   0  0  0  0  0  0  0  0  0  0  0  0
   -8.5604   -5.7727    0.0000 H   0  0  0  0  0  0  0  0  0  0  0  0
   -7.8459   -7.0102    0.0000 H   0  0  0  0  0  0  0  0  0  0  0  0
   -9.2749   -4.5352    0.0000 H   0  0  0  0  0  0  0  0  0  0  0  0
  -10.0985   -5.4081    0.0000 H   0  0  0  0  0  0  0  0  0  0  0  0
   -9.7282   -6.0495    0.0000 H   0  0  0  0  0  0  0  0  0  0  0  0
   -7.8459   -4.5352    0.0000 H   0  0  0  0  0  0  0  0  0  0  0  0
   -9.9894   -3.2977    0.0000 H   0  0  0  0  0  0  0  0  0  0  0  0
   -6.4170   -2.0602    0.0000 H   0  0  0  0  0  0  0  0  0  0  0  0
   -6.0045   -4.4246    0.0000 H   0  0  0  0  0  0  0  0  0  0  0  0
   -2.8446   -3.2977    0.0000 H   0  0  0  0  0  0  0  0  0  0  0  0
   -3.9294   -4.4474    0.0000 H   0  0  0  0  0  0  0  0  0  0  0  0
   -3.1889   -4.4474    0.0000 H   0  0  0  0  0  0  0  0  0  0  0  0
   -2.0694   -2.7548    0.0000 H   0  0  0  0  0  0  0  0  0  0  0  0
   -2.0694   -2.1905    0.0000 H   0  0  0  0  0  0  0  0  0  0  0  0
   -3.5591   -2.0602    0.0000 H   0  0  0  0  0  0  0  0  0  0  0  0
   -1.3056   -1.2090    0.0000 H   0  0  0  0  0  0  0  0  0  0  0  0
  1  2  1  0  0  0  0
  2  3  1  0  0  0  0
  3  4  1  0  0  0  0
  4  5  1  0  0  0  0
  5  6  1  0  0  0  0
  6  7  1  0  0  0  0
  7  8  1  0  0  0  0
  8  9  1  0  0  0  0
  8 10  1  0  0  0  0
 10 11  1  0  0  0  0
 11 12  1  0  0  0  0
 11 13  1  0  0  0  0
 13 14  1  0  0  0  0
 14 15  1  0  0  0  0
 15 16  1  0  0  0  0
 16 17  1  0  0  0  0
 17 18  1  0  0  0  0
 18 19  1  0  0  0  0
 17 20  1  0  0  0  0
 20 21  1  0  0  0  0
 20 22  1  0  0  0  0
 22 23  1  0  0  0  0
 22 24  1  0  0  0  0
 15 24  1  0  0  0  0
 24 25  1  0  0  0  0
 13 26  1  0  0  0  0
  7 26  1  0  0  0  0
 26 27  1  0  0  0  0
  5 28  1  0  0  0  0
 28 29  1  0  0  0  0
 28 30  1  0  0  0  0
 30 31  1  0  0  0  0
  3 31  1  0  0  0  0
 31 32  1  0  0  0  0
  1 33  1  0  0  0  0
  1 34  1  0  0  0  0
  2 35  1  0  0  0  0
  2 36  1  0  0  0  0
  3 37  1  0  0  0  0
  5 38  1  0  0  0  0
  7 39  1  0  0  0  0
  8 40  1  0  0  0  0
  9 41  1  0  0  0  0
  9 42  1  0  0  0  0
 10 43  1  0  0  0  0
 10 44  1  0  0  0  0
 11 45  1  0  0  0  0
 12 46  1  0  0  0  0
 12 47  1  0  0  0  0
 13 48  1  0  0  0  0
 15 49  1  0  0  0  0
 17 50  1  0  0  0  0
 18 51  1  0  0  0  0
 18 52  1  0  0  0  0
 19 53  1  0  0  0  0
 20 54  1  0  0  0  0
 21 55  1  0  0  0  0
 22 56  1  0  0  0  0
 23 57  1  0  0  0  0
 23 58  1  0  0  0  0
 24 59  1  0  0  0  0
 25 60  1  0  0  0  0
 26 61  1  0  0  0  0
 27 62  1  0  0  0  0
 28 63  1  0  0  0  0
 29 64  1  0  0  0  0
 29 65  1  0  0  0  0
 30 66  1  0  0  0  0
 30 67  1  0  0  0  0
 31 68  1  0  0  0  0
 32 69  1  0  0  0  0
M  END
>  <InChIKey>
InChI=1S/C18H37N5O9/c19-3-9-8(25)2-7(22)17(29-9)31-15-5(20)1-6(21)16(14(15)28)32-18-13(27)11(23)12(26)10(4-24)30-18/h5-18,24-28H,1-4,19-23H2

>  <CASRN>
32986-56-4

> <Outcome>
1

>  <Index>
2295

>  <StandardizerResult>
Clear Stereo (ID: ClearStereo)
Wedge Clean (ID: WedgeClean)
Mesomerize (ID: Mesomerize)
Tautomerize (ID: Tautomerize)
Add Explicit Hydrogens (ID: AddExplicitH)
Neutralize (ID: Neutralize)
Clean 2D (ID: Clean2D)

> <knn Distance>


> <CpId>
2295

$$$$
2297
  Mrv1532301301811342D          

 25 25  0  0  0  0            999 V2000
    0.0016   -2.4648    0.0000 C   0  0  0  0  0  0  0  0  0  0  0  0
    0.7161   -2.8773    0.0000 O   0  0  0  0  0  0  0  0  0  0  0  0
    1.4306   -2.4648    0.0000 N   0  0  0  0  0  0  0  0  0  0  0  0
    1.4306   -1.6398    0.0000 C   0  0  0  0  0  0  0  0  0  0  0  0
    2.1450   -2.8773    0.0000 C   0  0  0  0  0  0  0  0  0  0  0  0
    2.1450   -3.7023    0.0000 O   0  0  0  0  0  0  0  0  0  0  0  0
    2.8595   -2.4648    0.0000 N   0  0  0  0  0  0  0  0  0  0  0  0
    3.5740   -2.8773    0.0000 C   0  0  0  0  0  0  0  0  0  0  0  0
    4.2884   -2.4648    0.0000 C   0  0  0  0  0  0  0  0  0  0  0  0
    5.0029   -2.8773    0.0000 C   0  0  0  0  0  0  0  0  0  0  0  0
    5.0029   -3.7023    0.0000 C   0  0  0  0  0  0  0  0  0  0  0  0
    5.7174   -4.1148    0.0000 Br  0  0  0  0  0  0  0  0  0  0  0  0
    4.2884   -4.1148    0.0000 C   0  0  0  0  0  0  0  0  0  0  0  0
    4.2884   -4.9398    0.0000 Cl  0  0  0  0  0  0  0  0  0  0  0  0
    3.5740   -3.7023    0.0000 C   0  0  0  0  0  0  0  0  0  0  0  0
    0.4141   -1.7503    0.0000 H   0  0  0  0  0  0  0  0  0  0  0  0
   -0.7129   -2.0523    0.0000 H   0  0  0  0  0  0  0  0  0  0  0  0
   -0.4109   -3.1793    0.0000 H   0  0  0  0  0  0  0  0  0  0  0  0
    2.2556   -1.6398    0.0000 H   0  0  0  0  0  0  0  0  0  0  0  0
    1.4306   -0.8148    0.0000 H   0  0  0  0  0  0  0  0  0  0  0  0
    0.6056   -1.6398    0.0000 H   0  0  0  0  0  0  0  0  0  0  0  0
    2.8595   -1.6398    0.0000 H   0  0  0  0  0  0  0  0  0  0  0  0
    4.2884   -1.6398    0.0000 H   0  0  0  0  0  0  0  0  0  0  0  0
    5.7174   -2.4648    0.0000 H   0  0  0  0  0  0  0  0  0  0  0  0
    2.8595   -4.1148    0.0000 H   0  0  0  0  0  0  0  0  0  0  0  0
  1  2  1  0  0  0  0
  2  3  1  0  0  0  0
  3  4  1  0  0  0  0
  3  5  1  0  0  0  0
  5  6  2  0  0  0  0
  5  7  1  0  0  0  0
  7  8  1  0  0  0  0
  8  9  4  0  0  0  0
  9 10  4  0  0  0  0
 10 11  4  0  0  0  0
 11 12  1  0  0  0  0
 11 13  4  0  0  0  0
 13 14  1  0  0  0  0
 13 15  4  0  0  0  0
  8 15  4  0  0  0  0
  1 16  1  0  0  0  0
  1 17  1  0  0  0  0
  1 18  1  0  0  0  0
  4 19  1  0  0  0  0
  4 20  1  0  0  0  0
  4 21  1  0  0  0  0
  7 22  1  0  0  0  0
  9 23  1  0  0  0  0
 10 24  1  0  0  0  0
 15 25  1  0  0  0  0
M  END
>  <InChIKey>
InChI=1S/C9H10BrClN2O2/c1-13(15-2)9(14)12-6-3-4-7(10)8(11)5-6/h3-5H,1-2H3,(H,12,14)

>  <CASRN>
13360-45-7

> <Outcome>
1

>  <Index>
2297

>  <StandardizerResult>
Dearomatize (ID: Dearomatize)
Clear Stereo (ID: ClearStereo)
Wedge Clean (ID: WedgeClean)
Mesomerize (ID: Mesomerize)
Tautomerize (ID: Tautomerize)
Aromatize (ID: Aromatize)
Add Explicit Hydrogens (ID: AddExplicitH)
Neutralize (ID: Neutralize)
Clean 2D (ID: Clean2D)

> <knn Distance>


> <CpId>
2297

$$$$
2298
  Mrv1532301301811342D          

 40 40  0  0  0  0            999 V2000
    0.7741    2.0300    0.0000 C   0  0  0  0  0  0  0  0  0  0  0  0
    0.7741    1.2050    0.0000 C   0  0  0  0  0  0  0  0  0  0  0  0
    1.4886    0.7925    0.0000 C   0  0  0  0  0  0  0  0  0  0  0  0
    1.4886   -0.0325    0.0000 C   0  0  0  0  0  0  0  0  0  0  0  0
    0.7741   -0.4450    0.0000 C   0  0  0  0  0  0  0  0  0  0  0  0
    0.7741   -1.2700    0.0000 O   0  0  0  0  0  0  0  0  0  0  0  0
    0.0596   -0.0325    0.0000 C   0  0  0  0  0  0  0  0  0  0  0  0
    0.0596    0.7925    0.0000 C   0  0  0  0  0  0  0  0  0  0  0  0
   -0.6548   -0.4450    0.0000 C   0  0  0  0  0  0  0  0  0  0  0  0
   -1.3693   -0.8575    0.0000 C   0  0  0  0  0  0  0  0  0  0  0  0
   -0.2423   -1.1594    0.0000 C   0  0  0  0  0  0  0  0  0  0  0  0
   -1.0673    0.2695    0.0000 C   0  0  0  0  0  0  0  0  0  0  0  0
    2.2031   -0.4450    0.0000 C   0  0  0  0  0  0  0  0  0  0  0  0
    2.9175   -0.8575    0.0000 C   0  0  0  0  0  0  0  0  0  0  0  0
    1.7906   -1.1594    0.0000 C   0  0  0  0  0  0  0  0  0  0  0  0
    2.6156    0.2695    0.0000 C   0  0  0  0  0  0  0  0  0  0  0  0
    1.5991    2.0300    0.0000 H   0  0  0  0  0  0  0  0  0  0  0  0
    0.7741    2.8550    0.0000 H   0  0  0  0  0  0  0  0  0  0  0  0
   -0.0509    2.0300    0.0000 H   0  0  0  0  0  0  0  0  0  0  0  0
    2.2031    1.2050    0.0000 H   0  0  0  0  0  0  0  0  0  0  0  0
    0.0596   -1.6825    0.0000 H   0  0  0  0  0  0  0  0  0  0  0  0
   -0.6548    1.2050    0.0000 H   0  0  0  0  0  0  0  0  0  0  0  0
   -1.7818   -0.1430    0.0000 H   0  0  0  0  0  0  0  0  0  0  0  0
   -2.0838   -1.2700    0.0000 H   0  0  0  0  0  0  0  0  0  0  0  0
   -0.9568   -1.5719    0.0000 H   0  0  0  0  0  0  0  0  0  0  0  0
    0.5701   -1.0162    0.0000 H   0  0  0  0  0  0  0  0  0  0  0  0
    0.2880   -0.5275    0.0000 H   0  0  0  0  0  0  0  0  0  0  0  0
   -0.4559   -1.9563    0.0000 H   0  0  0  0  0  0  0  0  0  0  0  0
   -0.2494    0.3772    0.0000 H   0  0  0  0  0  0  0  0  0  0  0  0
   -0.8538    1.0664    0.0000 H   0  0  0  0  0  0  0  0  0  0  0  0
   -1.7218    0.7717    0.0000 H   0  0  0  0  0  0  0  0  0  0  0  0
    2.5050   -1.5719    0.0000 H   0  0  0  0  0  0  0  0  0  0  0  0
    3.6320   -1.2700    0.0000 H   0  0  0  0  0  0  0  0  0  0  0  0
    3.3300   -0.1430    0.0000 H   0  0  0  0  0  0  0  0  0  0  0  0
    1.2883   -0.5049    0.0000 H   0  0  0  0  0  0  0  0  0  0  0  0
    0.9937   -1.3730    0.0000 H   0  0  0  0  0  0  0  0  0  0  0  0
    1.6829   -1.9774    0.0000 H   0  0  0  0  0  0  0  0  0  0  0  0
    3.2701    0.7717    0.0000 H   0  0  0  0  0  0  0  0  0  0  0  0
    2.4020    1.0664    0.0000 H   0  0  0  0  0  0  0  0  0  0  0  0
    1.7976    0.3772    0.0000 H   0  0  0  0  0  0  0  0  0  0  0  0
  1  2  1  0  0  0  0
  2  3  4  0  0  0  0
  3  4  4  0  0  0  0
  4  5  4  0  0  0  0
  5  6  1  0  0  0  0
  5  7  4  0  0  0  0
  7  8  4  0  0  0  0
  2  8  4  0  0  0  0
  7  9  1  0  0  0  0
  9 10  1  0  0  0  0
  9 11  1  0  0  0  0
  9 12  1  0  0  0  0
  4 13  1  0  0  0  0
 13 14  1  0  0  0  0
 13 15  1  0  0  0  0
 13 16  1  0  0  0  0
  1 17  1  0  0  0  0
  1 18  1  0  0  0  0
  1 19  1  0  0  0  0
  3 20  1  0  0  0  0
  6 21  1  0  0  0  0
  8 22  1  0  0  0  0
 10 23  1  0  0  0  0
 10 24  1  0  0  0  0
 10 25  1  0  0  0  0
 11 26  1  0  0  0  0
 11 27  1  0  0  0  0
 11 28  1  0  0  0  0
 12 29  1  0  0  0  0
 12 30  1  0  0  0  0
 12 31  1  0  0  0  0
 14 32  1  0  0  0  0
 14 33  1  0  0  0  0
 14 34  1  0  0  0  0
 15 35  1  0  0  0  0
 15 36  1  0  0  0  0
 15 37  1  0  0  0  0
 16 38  1  0  0  0  0
 16 39  1  0  0  0  0
 16 40  1  0  0  0  0
M  END
>  <InChIKey>
InChI=1S/C15H24O/c1-10-8-11(14(2,3)4)13(16)12(9-10)15(5,6)7/h8-9,16H,1-7H3

>  <CASRN>
128-37-0

> <Outcome>
1

>  <Index>
2298

>  <StandardizerResult>
Dearomatize (ID: Dearomatize)
Clear Stereo (ID: ClearStereo)
Wedge Clean (ID: WedgeClean)
Mesomerize (ID: Mesomerize)
Tautomerize (ID: Tautomerize)
Aromatize (ID: Aromatize)
Add Explicit Hydrogens (ID: AddExplicitH)
Neutralize (ID: Neutralize)
Clean 2D (ID: Clean2D)

> <knn Distance>


> <CpId>
2298

$$$$
2301
  Mrv1532301301811342D          

 28 29  0  0  0  0            999 V2000
    0.7166   -1.1980    0.0000 C   0  0  0  0  0  0  0  0  0  0  0  0
    0.7166   -0.3730    0.0000 C   0  0  0  0  0  0  0  0  0  0  0  0
    1.4311    0.0395    0.0000 C   0  0  0  0  0  0  0  0  0  0  0  0
    2.1456   -0.3730    0.0000 C   0  0  0  0  0  0  0  0  0  0  0  0
    2.8601    0.0395    0.0000 C   0  0  0  0  0  0  0  0  0  0  0  0
    3.5745   -0.3730    0.0000 C   0  0  0  0  0  0  0  0  0  0  0  0
    3.5745   -1.1980    0.0000 C   0  0  0  0  0  0  0  0  0  0  0  0
    2.8601   -1.6105    0.0000 C   0  0  0  0  0  0  0  0  0  0  0  0
    2.1456   -1.1980    0.0000 C   0  0  0  0  0  0  0  0  0  0  0  0
    1.4311   -1.6105    0.0000 C   0  0  0  0  0  0  0  0  0  0  0  0
   -0.1070   -1.2460    0.0000 H   0  0  0  0  0  0  0  0  0  0  0  0
    0.2633   -1.8873    0.0000 H   0  0  0  0  0  0  0  0  0  0  0  0
    0.2633    0.3163    0.0000 H   0  0  0  0  0  0  0  0  0  0  0  0
   -0.1070   -0.3250    0.0000 H   0  0  0  0  0  0  0  0  0  0  0  0
    1.8014    0.7767    0.0000 H   0  0  0  0  0  0  0  0  0  0  0  0
    1.0609    0.7767    0.0000 H   0  0  0  0  0  0  0  0  0  0  0  0
    2.8601   -0.7855    0.0000 H   0  0  0  0  0  0  0  0  0  0  0  0
    3.2303    0.7767    0.0000 H   0  0  0  0  0  0  0  0  0  0  0  0
    2.4898    0.7767    0.0000 H   0  0  0  0  0  0  0  0  0  0  0  0
    4.3981   -0.3250    0.0000 H   0  0  0  0  0  0  0  0  0  0  0  0
    4.0279    0.3163    0.0000 H   0  0  0  0  0  0  0  0  0  0  0  0
    4.0279   -1.8873    0.0000 H   0  0  0  0  0  0  0  0  0  0  0  0
    4.3981   -1.2460    0.0000 H   0  0  0  0  0  0  0  0  0  0  0  0
    2.4898   -2.3478    0.0000 H   0  0  0  0  0  0  0  0  0  0  0  0
    3.2303   -2.3478    0.0000 H   0  0  0  0  0  0  0  0  0  0  0  0
    2.1456   -2.0230    0.0000 H   0  0  0  0  0  0  0  0  0  0  0  0
    0.7991   -2.1408    0.0000 H   0  0  0  0  0  0  0  0  0  0  0  0
    1.2879   -2.4230    0.0000 H   0  0  0  0  0  0  0  0  0  0  0  0
  1  2  1  0  0  0  0
  2  3  1  0  0  0  0
  3  4  1  0  0  0  0
  4  5  1  0  0  0  0
  5  6  1  0  0  0  0
  6  7  1  0  0  0  0
  7  8  1  0  0  0  0
  8  9  1  0  0  0  0
  4  9  1  0  0  0  0
  9 10  1  0  0  0  0
  1 10  1  0  0  0  0
  1 11  1  0  0  0  0
  1 12  1  0  0  0  0
  2 13  1  0  0  0  0
  2 14  1  0  0  0  0
  3 15  1  0  0  0  0
  3 16  1  0  0  0  0
  4 17  1  0  0  0  0
  5 18  1  0  0  0  0
  5 19  1  0  0  0  0
  6 20  1  0  0  0  0
  6 21  1  0  0  0  0
  7 22  1  0  0  0  0
  7 23  1  0  0  0  0
  8 24  1  0  0  0  0
  8 25  1  0  0  0  0
  9 26  1  0  0  0  0
 10 27  1  0  0  0  0
 10 28  1  0  0  0  0
M  END
>  <InChIKey>
InChI=1S/C10H18/c1-2-6-10-8-4-3-7-9(10)5-1/h9-10H,1-8H2

>  <CASRN>
91-17-8

> <Outcome>
1

>  <Index>
2301

>  <StandardizerResult>
Clear Stereo (ID: ClearStereo)
Wedge Clean (ID: WedgeClean)
Mesomerize (ID: Mesomerize)
Tautomerize (ID: Tautomerize)
Add Explicit Hydrogens (ID: AddExplicitH)
Neutralize (ID: Neutralize)
Clean 2D (ID: Clean2D)

> <knn Distance>


> <CpId>
2301

$$$$
2302
  Mrv1532301301811342D          

 39 39  0  0  0  0            999 V2000
    2.0032   -1.0008    0.0000 C   0  0  0  0  0  0  0  0  0  0  0  0
    2.8282   -1.0008    0.0000 C   0  0  0  0  0  0  0  0  0  0  0  0
    3.2407   -1.7153    0.0000 N   0  0  0  0  0  0  0  0  0  0  0  0
    2.8282   -2.4298    0.0000 C   0  0  0  0  0  0  0  0  0  0  0  0
    2.0032   -2.4298    0.0000 C   0  0  0  0  0  0  0  0  0  0  0  0
    4.0657   -1.7153    0.0000 C   0  0  0  0  0  0  0  0  0  0  0  0
    4.4782   -2.4298    0.0000 C   0  0  0  0  0  0  0  0  0  0  0  0
    4.0657   -3.1443    0.0000 O   0  0  0  0  0  0  0  0  0  0  0  0
    5.3032   -2.4298    0.0000 N   0  0  0  0  0  0  0  0  0  0  0  0
    5.7157   -3.1443    0.0000 C   0  0  0  0  0  0  0  0  0  0  0  0
    6.5407   -3.1443    0.0000 C   0  0  0  0  0  0  0  0  0  0  0  0
    6.9532   -2.4298    0.0000 C   0  0  0  0  0  0  0  0  0  0  0  0
    6.9532   -3.8587    0.0000 C   0  0  0  0  0  0  0  0  0  0  0  0
    6.5407   -4.5732    0.0000 C   0  0  0  0  0  0  0  0  0  0  0  0
    5.7157   -4.5732    0.0000 C   0  0  0  0  0  0  0  0  0  0  0  0
    5.3032   -3.8587    0.0000 C   0  0  0  0  0  0  0  0  0  0  0  0
    4.4782   -3.8587    0.0000 C   0  0  0  0  0  0  0  0  0  0  0  0
    2.0032   -0.1758    0.0000 H   0  0  0  0  0  0  0  0  0  0  0  0
    1.1782   -1.0008    0.0000 H   0  0  0  0  0  0  0  0  0  0  0  0
    2.0032   -1.8258    0.0000 H   0  0  0  0  0  0  0  0  0  0  0  0
    3.5175   -0.5475    0.0000 H   0  0  0  0  0  0  0  0  0  0  0  0
    2.8762   -0.1772    0.0000 H   0  0  0  0  0  0  0  0  0  0  0  0
    2.8762   -3.2534    0.0000 H   0  0  0  0  0  0  0  0  0  0  0  0
    3.5175   -2.8831    0.0000 H   0  0  0  0  0  0  0  0  0  0  0  0
    1.2410   -2.1141    0.0000 H   0  0  0  0  0  0  0  0  0  0  0  0
    1.4199   -3.0131    0.0000 H   0  0  0  0  0  0  0  0  0  0  0  0
    2.3190   -3.1920    0.0000 H   0  0  0  0  0  0  0  0  0  0  0  0
    4.7550   -1.2620    0.0000 H   0  0  0  0  0  0  0  0  0  0  0  0
    4.1137   -0.8917    0.0000 H   0  0  0  0  0  0  0  0  0  0  0  0
    5.7157   -1.7153    0.0000 H   0  0  0  0  0  0  0  0  0  0  0  0
    7.6677   -2.8423    0.0000 H   0  0  0  0  0  0  0  0  0  0  0  0
    7.3657   -1.7153    0.0000 H   0  0  0  0  0  0  0  0  0  0  0  0
    6.2388   -2.0173    0.0000 H   0  0  0  0  0  0  0  0  0  0  0  0
    7.7782   -3.8587    0.0000 H   0  0  0  0  0  0  0  0  0  0  0  0
    6.9532   -5.2877    0.0000 H   0  0  0  0  0  0  0  0  0  0  0  0
    5.3032   -5.2877    0.0000 H   0  0  0  0  0  0  0  0  0  0  0  0
    3.6532   -3.8587    0.0000 H   0  0  0  0  0  0  0  0  0  0  0  0
    4.0657   -4.5732    0.0000 H   0  0  0  0  0  0  0  0  0  0  0  0
    4.8907   -4.5732    0.0000 H   0  0  0  0  0  0  0  0  0  0  0  0
  1  2  1  0  0  0  0
  2  3  1  0  0  0  0
  3  4  1  0  0  0  0
  4  5  1  0  0  0  0
  3  6  1  0  0  0  0
  6  7  1  0  0  0  0
  7  8  2  0  0  0  0
  7  9  1  0  0  0  0
  9 10  1  0  0  0  0
 10 11  4  0  0  0  0
 11 12  1  0  0  0  0
 11 13  4  0  0  0  0
 13 14  4  0  0  0  0
 14 15  4  0  0  0  0
 15 16  4  0  0  0  0
 10 16  4  0  0  0  0
 16 17  1  0  0  0  0
  1 18  1  0  0  0  0
  1 19  1  0  0  0  0
  1 20  1  0  0  0  0
  2 21  1  0  0  0  0
  2 22  1  0  0  0  0
  4 23  1  0  0  0  0
  4 24  1  0  0  0  0
  5 25  1  0  0  0  0
  5 26  1  0  0  0  0
  5 27  1  0  0  0  0
  6 28  1  0  0  0  0
  6 29  1  0  0  0  0
  9 30  1  0  0  0  0
 12 31  1  0  0  0  0
 12 32  1  0  0  0  0
 12 33  1  0  0  0  0
 13 34  1  0  0  0  0
 14 35  1  0  0  0  0
 15 36  1  0  0  0  0
 17 37  1  0  0  0  0
 17 38  1  0  0  0  0
 17 39  1  0  0  0  0
M  END
>  <InChIKey>
InChI=1S/C14H22N2O/c1-5-16(6-2)10-13(17)15-14-11(3)8-7-9-12(14)4/h7-9H,5-6,10H2,1-4H3,(H,15,17)

>  <CASRN>
137-58-6

> <Outcome>
1

>  <Index>
2302

>  <StandardizerResult>
Dearomatize (ID: Dearomatize)
Clear Stereo (ID: ClearStereo)
Wedge Clean (ID: WedgeClean)
Mesomerize (ID: Mesomerize)
Tautomerize (ID: Tautomerize)
Aromatize (ID: Aromatize)
Add Explicit Hydrogens (ID: AddExplicitH)
Neutralize (ID: Neutralize)
Clean 2D (ID: Clean2D)

> <knn Distance>


> <CpId>
2302

$$$$
2303
  Mrv1532301301811342D          

 15 14  0  0  0  0            999 V2000
    2.5288   -1.4837    0.0000 C   0  0  0  0  0  0  0  0  0  0  0  0
    1.7038   -1.4837    0.0000 O   0  0  0  0  0  0  0  0  0  0  0  0
    1.2913   -0.7692    0.0000 P   0  0  0  0  0  0  0  0  0  0  0  0
    2.0058   -0.3567    0.0000 N   0  0  0  0  0  0  0  0  0  0  0  0
    0.5768   -1.1817    0.0000 O   0  0  0  0  0  0  0  0  0  0  0  0
    0.8788   -0.0547    0.0000 S   0  0  0  0  0  0  0  0  0  0  0  0
    0.0538   -0.0547    0.0000 C   0  0  0  0  0  0  0  0  0  0  0  0
    2.5288   -2.3087    0.0000 H   0  0  0  0  0  0  0  0  0  0  0  0
    3.3538   -1.4837    0.0000 H   0  0  0  0  0  0  0  0  0  0  0  0
    2.5288   -0.6587    0.0000 H   0  0  0  0  0  0  0  0  0  0  0  0
    2.3760    0.3805    0.0000 H   0  0  0  0  0  0  0  0  0  0  0  0
    1.6355    0.3805    0.0000 H   0  0  0  0  0  0  0  0  0  0  0  0
    0.0538    0.7703    0.0000 H   0  0  0  0  0  0  0  0  0  0  0  0
   -0.7712   -0.0547    0.0000 H   0  0  0  0  0  0  0  0  0  0  0  0
    0.0538   -0.8797    0.0000 H   0  0  0  0  0  0  0  0  0  0  0  0
  1  2  1  0  0  0  0
  2  3  1  0  0  0  0
  3  4  1  0  0  0  0
  3  5  2  0  0  0  0
  3  6  1  0  0  0  0
  6  7  1  0  0  0  0
  1  8  1  0  0  0  0
  1  9  1  0  0  0  0
  1 10  1  0  0  0  0
  4 11  1  0  0  0  0
  4 12  1  0  0  0  0
  7 13  1  0  0  0  0
  7 14  1  0  0  0  0
  7 15  1  0  0  0  0
M  END
>  <InChIKey>
InChI=1S/C2H8NO2PS/c1-5-6(3,4)7-2/h1-2H3,(H2,3,4)

>  <CASRN>
10265-92-6

> <Outcome>
1

>  <Index>
2303

>  <StandardizerResult>
Clear Stereo (ID: ClearStereo)
Wedge Clean (ID: WedgeClean)
Mesomerize (ID: Mesomerize)
Tautomerize (ID: Tautomerize)
Add Explicit Hydrogens (ID: AddExplicitH)
Neutralize (ID: Neutralize)
Clean 2D (ID: Clean2D)

> <knn Distance>


> <CpId>
2303

$$$$
2308
  Mrv1532301301811342D          

 15 15  0  0  0  0            999 V2000
    0.7145    2.0625    0.0000 C   0  0  0  0  0  0  0  0  0  0  0  0
    0.7145    1.2375    0.0000 C   0  0  0  0  0  0  0  0  0  0  0  0
    1.4289    0.8250    0.0000 C   0  0  0  0  0  0  0  0  0  0  0  0
    1.4289   -0.0000    0.0000 C   0  0  0  0  0  0  0  0  0  0  0  0
    0.7145   -0.4125    0.0000 C   0  0  0  0  0  0  0  0  0  0  0  0
    0.7145   -1.2375    0.0000 Cl  0  0  0  0  0  0  0  0  0  0  0  0
    0.0000    0.0000    0.0000 C   0  0  0  0  0  0  0  0  0  0  0  0
    0.0000    0.8250    0.0000 C   0  0  0  0  0  0  0  0  0  0  0  0
    1.5395    2.0625    0.0000 H   0  0  0  0  0  0  0  0  0  0  0  0
    0.7145    2.8875    0.0000 H   0  0  0  0  0  0  0  0  0  0  0  0
   -0.1105    2.0625    0.0000 H   0  0  0  0  0  0  0  0  0  0  0  0
    2.1434    1.2375    0.0000 H   0  0  0  0  0  0  0  0  0  0  0  0
    2.1434   -0.4125    0.0000 H   0  0  0  0  0  0  0  0  0  0  0  0
   -0.7145   -0.4125    0.0000 H   0  0  0  0  0  0  0  0  0  0  0  0
   -0.7145    1.2375    0.0000 H   0  0  0  0  0  0  0  0  0  0  0  0
  1  2  1  0  0  0  0
  2  3  4  0  0  0  0
  3  4  4  0  0  0  0
  4  5  4  0  0  0  0
  5  6  1  0  0  0  0
  5  7  4  0  0  0  0
  7  8  4  0  0  0  0
  2  8  4  0  0  0  0
  1  9  1  0  0  0  0
  1 10  1  0  0  0  0
  1 11  1  0  0  0  0
  3 12  1  0  0  0  0
  4 13  1  0  0  0  0
  7 14  1  0  0  0  0
  8 15  1  0  0  0  0
M  END
>  <InChIKey>
InChI=1S/C7H7Cl/c1-6-2-4-7(8)5-3-6/h2-5H,1H3

>  <CASRN>
106-43-4

> <Outcome>
1

>  <Index>
2308

>  <StandardizerResult>
Dearomatize (ID: Dearomatize)
Clear Stereo (ID: ClearStereo)
Wedge Clean (ID: WedgeClean)
Mesomerize (ID: Mesomerize)
Tautomerize (ID: Tautomerize)
Aromatize (ID: Aromatize)
Add Explicit Hydrogens (ID: AddExplicitH)
Neutralize (ID: Neutralize)
Clean 2D (ID: Clean2D)

> <knn Distance>


> <CpId>
2308

$$$$
2309
  Mrv1532301301811342D          

 33 32  0  0  0  0            999 V2000
    4.2156   -2.9635    0.0000 C   0  0  0  0  0  0  0  0  0  0  0  0
    3.8031   -2.2490    0.0000 C   0  0  0  0  0  0  0  0  0  0  0  0
    2.9781   -2.2490    0.0000 C   0  0  0  0  0  0  0  0  0  0  0  0
    2.5656   -2.9635    0.0000 C   0  0  0  0  0  0  0  0  0  0  0  0
    2.5656   -1.5345    0.0000 C   0  0  0  0  0  0  0  0  0  0  0  0
    1.7406   -1.5345    0.0000 C   0  0  0  0  0  0  0  0  0  0  0  0
    1.3281   -0.8201    0.0000 C   0  0  0  0  0  0  0  0  0  0  0  0
    2.0426   -0.4076    0.0000 C   0  0  0  0  0  0  0  0  0  0  0  0
    0.6137   -1.2326    0.0000 O   0  0  0  0  0  0  0  0  0  0  0  0
    0.9156   -0.1056    0.0000 C   0  0  0  0  0  0  0  0  0  0  0  0
    0.0906   -0.1056    0.0000 C   0  0  0  0  0  0  0  0  0  0  0  0
    3.5012   -3.3760    0.0000 H   0  0  0  0  0  0  0  0  0  0  0  0
    4.6281   -3.6780    0.0000 H   0  0  0  0  0  0  0  0  0  0  0  0
    4.9301   -2.5510    0.0000 H   0  0  0  0  0  0  0  0  0  0  0  0
    4.4924   -1.7957    0.0000 H   0  0  0  0  0  0  0  0  0  0  0  0
    3.8511   -1.4254    0.0000 H   0  0  0  0  0  0  0  0  0  0  0  0
    3.3906   -2.9635    0.0000 H   0  0  0  0  0  0  0  0  0  0  0  0
    1.9823   -2.3801    0.0000 H   0  0  0  0  0  0  0  0  0  0  0  0
    1.8512   -3.3760    0.0000 H   0  0  0  0  0  0  0  0  0  0  0  0
    2.7792   -3.7604    0.0000 H   0  0  0  0  0  0  0  0  0  0  0  0
    3.2549   -1.0812    0.0000 H   0  0  0  0  0  0  0  0  0  0  0  0
    2.6136   -0.7109    0.0000 H   0  0  0  0  0  0  0  0  0  0  0  0
    0.9811   -1.8566    0.0000 H   0  0  0  0  0  0  0  0  0  0  0  0
    2.1531   -0.8201    0.0000 H   0  0  0  0  0  0  0  0  0  0  0  0
    2.7459    0.0237    0.0000 H   0  0  0  0  0  0  0  0  0  0  0  0
    2.0281    0.4173    0.0000 H   0  0  0  0  0  0  0  0  0  0  0  0
    1.3245   -0.0014    0.0000 H   0  0  0  0  0  0  0  0  0  0  0  0
   -0.1841   -1.0225    0.0000 H   0  0  0  0  0  0  0  0  0  0  0  0
    0.8129    0.7130    0.0000 H   0  0  0  0  0  0  0  0  0  0  0  0
    0.5031   -0.8201    0.0000 H   0  0  0  0  0  0  0  0  0  0  0  0
    0.4609    0.6316    0.0000 H   0  0  0  0  0  0  0  0  0  0  0  0
   -0.4019    0.5562    0.0000 H   0  0  0  0  0  0  0  0  0  0  0  0
   -0.7219   -0.2487    0.0000 H   0  0  0  0  0  0  0  0  0  0  0  0
  1  2  1  0  0  0  0
  2  3  1  0  0  0  0
  3  4  1  0  0  0  0
  3  5  1  0  0  0  0
  5  6  1  0  0  0  0
  6  7  1  0  0  0  0
  7  8  1  0  0  0  0
  7  9  1  0  0  0  0
  7 10  1  0  0  0  0
 10 11  1  0  0  0  0
  1 12  1  0  0  0  0
  1 13  1  0  0  0  0
  1 14  1  0  0  0  0
  2 15  1  0  0  0  0
  2 16  1  0  0  0  0
  3 17  1  0  0  0  0
  4 18  1  0  0  0  0
  4 19  1  0  0  0  0
  4 20  1  0  0  0  0
  5 21  1  0  0  0  0
  5 22  1  0  0  0  0
  6 23  1  0  0  0  0
  6 24  1  0  0  0  0
  8 25  1  0  0  0  0
  8 26  1  0  0  0  0
  8 27  1  0  0  0  0
  9 28  1  0  0  0  0
 10 29  1  0  0  0  0
 10 30  1  0  0  0  0
 11 31  1  0  0  0  0
 11 32  1  0  0  0  0
 11 33  1  0  0  0  0
M  END
>  <InChIKey>
InChI=1S/C10H22O/c1-5-9(3)7-8-10(4,11)6-2/h9,11H,5-8H2,1-4H3

>  <UN GHS>
1

>  <CASRN>
151-19-9

> <Outcome>
1

>  <Index>
2309

>  <StandardizerResult>
Clear Stereo (ID: ClearStereo)
Wedge Clean (ID: WedgeClean)
Mesomerize (ID: Mesomerize)
Tautomerize (ID: Tautomerize)
Add Explicit Hydrogens (ID: AddExplicitH)
Neutralize (ID: Neutralize)
Clean 2D (ID: Clean2D)

> <knn Distance>


> <CpId>
2309

$$$$
2312
  Mrv1532301301811342D          

 24 26  0  0  0  0            999 V2000
    3.8037    0.3320    0.0000 O   0  0  0  0  0  0  0  0  0  0  0  0
    4.5470   -0.0260    0.0000 C   0  0  0  0  0  0  0  0  0  0  0  0
    5.1517    0.5352    0.0000 C   0  0  0  0  0  0  0  0  0  0  0  0
    5.9401    0.2920    0.0000 C   0  0  0  0  0  0  0  0  0  0  0  0
    6.1237   -0.5123    0.0000 C   0  0  0  0  0  0  0  0  0  0  0  0
    5.5189   -1.0735    0.0000 C   0  0  0  0  0  0  0  0  0  0  0  0
    4.7306   -0.8303    0.0000 C   0  0  0  0  0  0  0  0  0  0  0  0
    4.2162   -1.4753    0.0000 C   0  0  0  0  0  0  0  0  0  0  0  0
    3.3912   -1.4753    0.0000 N   0  0  0  0  0  0  0  0  0  0  0  0
    2.8768   -0.8303    0.0000 C   0  0  0  0  0  0  0  0  0  0  0  0
    2.0884   -1.0735    0.0000 C   0  0  0  0  0  0  0  0  0  0  0  0
    1.4837   -0.5123    0.0000 C   0  0  0  0  0  0  0  0  0  0  0  0
    1.6673    0.2920    0.0000 C   0  0  0  0  0  0  0  0  0  0  0  0
    2.4556    0.5352    0.0000 C   0  0  0  0  0  0  0  0  0  0  0  0
    3.0604   -0.0260    0.0000 C   0  0  0  0  0  0  0  0  0  0  0  0
    4.9682    1.3395    0.0000 H   0  0  0  0  0  0  0  0  0  0  0  0
    6.5449    0.8531    0.0000 H   0  0  0  0  0  0  0  0  0  0  0  0
    6.9120   -0.7555    0.0000 H   0  0  0  0  0  0  0  0  0  0  0  0
    5.7025   -1.8778    0.0000 H   0  0  0  0  0  0  0  0  0  0  0  0
    4.5741   -2.2186    0.0000 H   0  0  0  0  0  0  0  0  0  0  0  0
    1.9049   -1.8778    0.0000 H   0  0  0  0  0  0  0  0  0  0  0  0
    0.6953   -0.7555    0.0000 H   0  0  0  0  0  0  0  0  0  0  0  0
    1.0625    0.8531    0.0000 H   0  0  0  0  0  0  0  0  0  0  0  0
    2.6392    1.3395    0.0000 H   0  0  0  0  0  0  0  0  0  0  0  0
  1  2  1  0  0  0  0
  2  3  4  0  0  0  0
  3  4  4  0  0  0  0
  4  5  4  0  0  0  0
  5  6  4  0  0  0  0
  6  7  4  0  0  0  0
  2  7  4  0  0  0  0
  7  8  1  0  0  0  0
  8  9  2  0  0  0  0
  9 10  1  0  0  0  0
 10 11  4  0  0  0  0
 11 12  4  0  0  0  0
 12 13  4  0  0  0  0
 13 14  4  0  0  0  0
 14 15  4  0  0  0  0
  1 15  1  0  0  0  0
 10 15  4  0  0  0  0
  3 16  1  0  0  0  0
  4 17  1  0  0  0  0
  5 18  1  0  0  0  0
  6 19  1  0  0  0  0
  8 20  1  0  0  0  0
 11 21  1  0  0  0  0
 12 22  1  0  0  0  0
 13 23  1  0  0  0  0
 14 24  1  0  0  0  0
M  END
>  <InChIKey>
InChI=1S/C13H9NO/c1-3-7-12-10(5-1)9-14-11-6-2-4-8-13(11)15-12/h1-9H

>  <CASRN>
257-07-8

> <Outcome>
1

>  <Index>
2312

>  <StandardizerResult>
Dearomatize (ID: Dearomatize)
Clear Stereo (ID: ClearStereo)
Wedge Clean (ID: WedgeClean)
Mesomerize (ID: Mesomerize)
Tautomerize (ID: Tautomerize)
Aromatize (ID: Aromatize)
Add Explicit Hydrogens (ID: AddExplicitH)
Neutralize (ID: Neutralize)
Clean 2D (ID: Clean2D)

> <knn Distance>


> <CpId>
2312

$$$$
2314
  Mrv1532301301811342D          

 27 26  0  0  0  0            999 V2000
    2.2836    2.1427    0.0000 C   0  0  0  0  0  0  0  0  0  0  0  0
    2.9980    2.5552    0.0000 C   0  0  0  0  0  0  0  0  0  0  0  0
    3.7125    2.1427    0.0000 C   0  0  0  0  0  0  0  0  0  0  0  0
    4.4270    2.5552    0.0000 C   0  0  0  0  0  0  0  0  0  0  0  0
    5.1414    2.1427    0.0000 O   0  0  0  0  0  0  0  0  0  0  0  0
    5.8559    2.5552    0.0000 C   0  0  0  0  0  0  0  0  0  0  0  0
    6.5704    2.1427    0.0000 C   0  0  0  0  0  0  0  0  0  0  0  0
    7.2849    2.5552    0.0000 O   0  0  0  0  0  0  0  0  0  0  0  0
    7.9993    2.1427    0.0000 C   0  0  0  0  0  0  0  0  0  0  0  0
    8.7138    2.5552    0.0000 C   0  0  0  0  0  0  0  0  0  0  0  0
    7.9993    1.3177    0.0000 O   0  0  0  0  0  0  0  0  0  0  0  0
    1.8711    2.8572    0.0000 H   0  0  0  0  0  0  0  0  0  0  0  0
    1.5691    1.7302    0.0000 H   0  0  0  0  0  0  0  0  0  0  0  0
    2.6961    1.4283    0.0000 H   0  0  0  0  0  0  0  0  0  0  0  0
    3.3683    3.2925    0.0000 H   0  0  0  0  0  0  0  0  0  0  0  0
    2.6278    3.2925    0.0000 H   0  0  0  0  0  0  0  0  0  0  0  0
    3.3422    1.4055    0.0000 H   0  0  0  0  0  0  0  0  0  0  0  0
    4.0828    1.4055    0.0000 H   0  0  0  0  0  0  0  0  0  0  0  0
    4.7972    3.2925    0.0000 H   0  0  0  0  0  0  0  0  0  0  0  0
    4.0567    3.2925    0.0000 H   0  0  0  0  0  0  0  0  0  0  0  0
    6.2262    3.2925    0.0000 H   0  0  0  0  0  0  0  0  0  0  0  0
    5.4857    3.2925    0.0000 H   0  0  0  0  0  0  0  0  0  0  0  0
    6.2001    1.4055    0.0000 H   0  0  0  0  0  0  0  0  0  0  0  0
    6.9406    1.4055    0.0000 H   0  0  0  0  0  0  0  0  0  0  0  0
    9.1263    1.8408    0.0000 H   0  0  0  0  0  0  0  0  0  0  0  0
    9.4283    2.9677    0.0000 H   0  0  0  0  0  0  0  0  0  0  0  0
    8.3013    3.2697    0.0000 H   0  0  0  0  0  0  0  0  0  0  0  0
  1  2  1  0  0  0  0
  2  3  1  0  0  0  0
  3  4  1  0  0  0  0
  4  5  1  0  0  0  0
  5  6  1  0  0  0  0
  6  7  1  0  0  0  0
  7  8  1  0  0  0  0
  8  9  1  0  0  0  0
  9 10  1  0  0  0  0
  9 11  2  0  0  0  0
  1 12  1  0  0  0  0
  1 13  1  0  0  0  0
  1 14  1  0  0  0  0
  2 15  1  0  0  0  0
  2 16  1  0  0  0  0
  3 17  1  0  0  0  0
  3 18  1  0  0  0  0
  4 19  1  0  0  0  0
  4 20  1  0  0  0  0
  6 21  1  0  0  0  0
  6 22  1  0  0  0  0
  7 23  1  0  0  0  0
  7 24  1  0  0  0  0
 10 25  1  0  0  0  0
 10 26  1  0  0  0  0
 10 27  1  0  0  0  0
M  END
>  <InChIKey>
InChI=1S/C8H16O3/c1-3-4-5-10-6-7-11-8(2)9/h3-7H2,1-2H3

>  <CASRN>
112-07-2

> <Outcome>
1

>  <Index>
2314

>  <StandardizerResult>
Clear Stereo (ID: ClearStereo)
Wedge Clean (ID: WedgeClean)
Mesomerize (ID: Mesomerize)
Tautomerize (ID: Tautomerize)
Add Explicit Hydrogens (ID: AddExplicitH)
Neutralize (ID: Neutralize)
Clean 2D (ID: Clean2D)

> <knn Distance>


> <CpId>
2314

$$$$
2316
  Mrv1532301301811342D          

 37 36  0  0  0  0            999 V2000
    5.4730    3.9849    0.0000 C   0  0  0  0  0  0  0  0  0  0  0  0
    6.1875    3.5724    0.0000 C   0  0  0  0  0  0  0  0  0  0  0  0
    6.9020    3.9849    0.0000 C   0  0  0  0  0  0  0  0  0  0  0  0
    7.6164    3.5724    0.0000 C   0  0  0  0  0  0  0  0  0  0  0  0
    8.3309    3.9849    0.0000 C   0  0  0  0  0  0  0  0  0  0  0  0
    9.0454    3.5724    0.0000 C   0  0  0  0  0  0  0  0  0  0  0  0
    9.7599    3.9849    0.0000 C   0  0  0  0  0  0  0  0  0  0  0  0
   10.4743    3.5724    0.0000 C   0  0  0  0  0  0  0  0  0  0  0  0
   11.1888    3.9849    0.0000 C   0  0  0  0  0  0  0  0  0  0  0  0
   11.9033    3.5724    0.0000 C   0  0  0  0  0  0  0  0  0  0  0  0
   12.6177    3.9849    0.0000 C   0  0  0  0  0  0  0  0  0  0  0  0
   13.3322    3.5724    0.0000 C   0  0  0  0  0  0  0  0  0  0  0  0
   14.0467    3.9849    0.0000 Cl  0  0  0  0  0  0  0  0  0  0  0  0
   13.3322    2.7474    0.0000 O   0  0  0  0  0  0  0  0  0  0  0  0
    5.8855    4.6994    0.0000 H   0  0  0  0  0  0  0  0  0  0  0  0
    4.7586    4.3974    0.0000 H   0  0  0  0  0  0  0  0  0  0  0  0
    5.0605    3.2704    0.0000 H   0  0  0  0  0  0  0  0  0  0  0  0
    5.8172    2.8352    0.0000 H   0  0  0  0  0  0  0  0  0  0  0  0
    6.5578    2.8352    0.0000 H   0  0  0  0  0  0  0  0  0  0  0  0
    7.2722    4.7221    0.0000 H   0  0  0  0  0  0  0  0  0  0  0  0
    6.5317    4.7221    0.0000 H   0  0  0  0  0  0  0  0  0  0  0  0
    7.2462    2.8352    0.0000 H   0  0  0  0  0  0  0  0  0  0  0  0
    7.9867    2.8352    0.0000 H   0  0  0  0  0  0  0  0  0  0  0  0
    8.7012    4.7221    0.0000 H   0  0  0  0  0  0  0  0  0  0  0  0
    7.9607    4.7221    0.0000 H   0  0  0  0  0  0  0  0  0  0  0  0
    8.6751    2.8352    0.0000 H   0  0  0  0  0  0  0  0  0  0  0  0
    9.4156    2.8352    0.0000 H   0  0  0  0  0  0  0  0  0  0  0  0
   10.1301    4.7221    0.0000 H   0  0  0  0  0  0  0  0  0  0  0  0
    9.3896    4.7221    0.0000 H   0  0  0  0  0  0  0  0  0  0  0  0
   10.1041    2.8352    0.0000 H   0  0  0  0  0  0  0  0  0  0  0  0
   10.8446    2.8352    0.0000 H   0  0  0  0  0  0  0  0  0  0  0  0
   11.5591    4.7221    0.0000 H   0  0  0  0  0  0  0  0  0  0  0  0
   10.8185    4.7221    0.0000 H   0  0  0  0  0  0  0  0  0  0  0  0
   11.5330    2.8352    0.0000 H   0  0  0  0  0  0  0  0  0  0  0  0
   12.2735    2.8352    0.0000 H   0  0  0  0  0  0  0  0  0  0  0  0
   12.9880    4.7221    0.0000 H   0  0  0  0  0  0  0  0  0  0  0  0
   12.2475    4.7221    0.0000 H   0  0  0  0  0  0  0  0  0  0  0  0
  1  2  1  0  0  0  0
  2  3  1  0  0  0  0
  3  4  1  0  0  0  0
  4  5  1  0  0  0  0
  5  6  1  0  0  0  0
  6  7  1  0  0  0  0
  7  8  1  0  0  0  0
  8  9  1  0  0  0  0
  9 10  1  0  0  0  0
 10 11  1  0  0  0  0
 11 12  1  0  0  0  0
 12 13  1  0  0  0  0
 12 14  2  0  0  0  0
  1 15  1  0  0  0  0
  1 16  1  0  0  0  0
  1 17  1  0  0  0  0
  2 18  1  0  0  0  0
  2 19  1  0  0  0  0
  3 20  1  0  0  0  0
  3 21  1  0  0  0  0
  4 22  1  0  0  0  0
  4 23  1  0  0  0  0
  5 24  1  0  0  0  0
  5 25  1  0  0  0  0
  6 26  1  0  0  0  0
  6 27  1  0  0  0  0
  7 28  1  0  0  0  0
  7 29  1  0  0  0  0
  8 30  1  0  0  0  0
  8 31  1  0  0  0  0
  9 32  1  0  0  0  0
  9 33  1  0  0  0  0
 10 34  1  0  0  0  0
 10 35  1  0  0  0  0
 11 36  1  0  0  0  0
 11 37  1  0  0  0  0
M  END
>  <InChIKey>
InChI=1S/C12H23ClO/c1-2-3-4-5-6-7-8-9-10-11-12(13)14/h2-11H2,1H3

>  <CASRN>
112-16-3

> <Outcome>
1

>  <Index>
2316

>  <StandardizerResult>
Clear Stereo (ID: ClearStereo)
Wedge Clean (ID: WedgeClean)
Mesomerize (ID: Mesomerize)
Tautomerize (ID: Tautomerize)
Add Explicit Hydrogens (ID: AddExplicitH)
Neutralize (ID: Neutralize)
Clean 2D (ID: Clean2D)

> <knn Distance>


> <CpId>
2316

$$$$
2317
  Mrv1532301301811342D          

 17 16  0  0  0  0            999 V2000
   -0.1914    0.7135    0.0000 C   0  0  0  0  0  0  0  0  0  0  0  0
    0.5230    1.1260    0.0000 C   0  0  0  0  0  0  0  0  0  0  0  0
    1.2375    0.7135    0.0000 C   0  0  0  0  0  0  0  0  0  0  0  0
    1.9520    1.1260    0.0000 C   0  0  0  0  0  0  0  0  0  0  0  0
    2.6664    0.7135    0.0000 C   0  0  0  0  0  0  0  0  0  0  0  0
    3.3809    1.1260    0.0000 O   0  0  0  0  0  0  0  0  0  0  0  0
    2.6664   -0.1115    0.0000 O   0  0  0  0  0  0  0  0  0  0  0  0
   -0.6039    1.4279    0.0000 H   0  0  0  0  0  0  0  0  0  0  0  0
   -0.9059    0.3010    0.0000 H   0  0  0  0  0  0  0  0  0  0  0  0
    0.2211   -0.0010    0.0000 H   0  0  0  0  0  0  0  0  0  0  0  0
    0.8933    1.8632    0.0000 H   0  0  0  0  0  0  0  0  0  0  0  0
    0.1528    1.8632    0.0000 H   0  0  0  0  0  0  0  0  0  0  0  0
    0.8672   -0.0238    0.0000 H   0  0  0  0  0  0  0  0  0  0  0  0
    1.6078   -0.0238    0.0000 H   0  0  0  0  0  0  0  0  0  0  0  0
    2.3222    1.8632    0.0000 H   0  0  0  0  0  0  0  0  0  0  0  0
    1.5817    1.8632    0.0000 H   0  0  0  0  0  0  0  0  0  0  0  0
    4.0954    0.7135    0.0000 H   0  0  0  0  0  0  0  0  0  0  0  0
  1  2  1  0  0  0  0
  2  3  1  0  0  0  0
  3  4  1  0  0  0  0
  4  5  1  0  0  0  0
  5  6  1  0  0  0  0
  5  7  2  0  0  0  0
  1  8  1  0  0  0  0
  1  9  1  0  0  0  0
  1 10  1  0  0  0  0
  2 11  1  0  0  0  0
  2 12  1  0  0  0  0
  3 13  1  0  0  0  0
  3 14  1  0  0  0  0
  4 15  1  0  0  0  0
  4 16  1  0  0  0  0
  6 17  1  0  0  0  0
M  END
>  <InChIKey>
InChI=1S/C5H10O2/c1-2-3-4-5(6)7/h2-4H2,1H3,(H,6,7)

>  <CASRN>
109-52-4

> <Outcome>
1

>  <Index>
2317

>  <StandardizerResult>
Clear Stereo (ID: ClearStereo)
Wedge Clean (ID: WedgeClean)
Mesomerize (ID: Mesomerize)
Tautomerize (ID: Tautomerize)
Add Explicit Hydrogens (ID: AddExplicitH)
Neutralize (ID: Neutralize)
Clean 2D (ID: Clean2D)

> <knn Distance>


> <CpId>
2317

$$$$
2324
  Mrv1532301301811342D          

 32 33  0  0  0  0            999 V2000
    0.7145   -0.4125    0.0000 C   0  0  0  0  0  0  0  0  0  0  0  0
    0.7145   -1.2375    0.0000 C   0  0  0  0  0  0  0  0  0  0  0  0
    1.4289   -1.6500    0.0000 C   0  0  0  0  0  0  0  0  0  0  0  0
    1.4289   -2.4750    0.0000 C   0  0  0  0  0  0  0  0  0  0  0  0
    0.7145   -2.8875    0.0000 C   0  0  0  0  0  0  0  0  0  0  0  0
    0.0000   -2.4750    0.0000 C   0  0  0  0  0  0  0  0  0  0  0  0
    0.0000   -1.6500    0.0000 C   0  0  0  0  0  0  0  0  0  0  0  0
   -0.7145   -1.2375    0.0000 N   0  0  0  0  0  0  0  0  0  0  0  0
    2.1434   -2.8875    0.0000 C   0  0  0  0  0  0  0  0  0  0  0  0
    2.8579   -2.4750    0.0000 C   0  0  0  0  0  0  0  0  0  0  0  0
    3.5724   -2.8875    0.0000 C   0  0  0  0  0  0  0  0  0  0  0  0
    3.5724   -3.7125    0.0000 C   0  0  0  0  0  0  0  0  0  0  0  0
    4.2868   -4.1250    0.0000 N   0  0  0  0  0  0  0  0  0  0  0  0
    2.8579   -4.1250    0.0000 C   0  0  0  0  0  0  0  0  0  0  0  0
    2.8579   -4.9500    0.0000 C   0  0  0  0  0  0  0  0  0  0  0  0
    2.1434   -3.7125    0.0000 C   0  0  0  0  0  0  0  0  0  0  0  0
    1.5395   -0.4125    0.0000 H   0  0  0  0  0  0  0  0  0  0  0  0
    0.7145    0.4125    0.0000 H   0  0  0  0  0  0  0  0  0  0  0  0
   -0.1105   -0.4125    0.0000 H   0  0  0  0  0  0  0  0  0  0  0  0
    2.1434   -1.2375    0.0000 H   0  0  0  0  0  0  0  0  0  0  0  0
    0.7145   -3.7125    0.0000 H   0  0  0  0  0  0  0  0  0  0  0  0
   -0.7145   -2.8875    0.0000 H   0  0  0  0  0  0  0  0  0  0  0  0
   -0.7145   -0.4125    0.0000 H   0  0  0  0  0  0  0  0  0  0  0  0
   -1.4289   -1.6500    0.0000 H   0  0  0  0  0  0  0  0  0  0  0  0
    2.8579   -1.6500    0.0000 H   0  0  0  0  0  0  0  0  0  0  0  0
    4.2868   -2.4750    0.0000 H   0  0  0  0  0  0  0  0  0  0  0  0
    4.2868   -4.9500    0.0000 H   0  0  0  0  0  0  0  0  0  0  0  0
    5.0013   -3.7125    0.0000 H   0  0  0  0  0  0  0  0  0  0  0  0
    2.0329   -4.9500    0.0000 H   0  0  0  0  0  0  0  0  0  0  0  0
    2.8579   -5.7750    0.0000 H   0  0  0  0  0  0  0  0  0  0  0  0
    3.6829   -4.9500    0.0000 H   0  0  0  0  0  0  0  0  0  0  0  0
    1.4289   -4.1250    0.0000 H   0  0  0  0  0  0  0  0  0  0  0  0
  1  2  1  0  0  0  0
  2  3  4  0  0  0  0
  3  4  4  0  0  0  0
  4  5  4  0  0  0  0
  5  6  4  0  0  0  0
  6  7  4  0  0  0  0
  2  7  4  0  0  0  0
  7  8  1  0  0  0  0
  4  9  1  0  0  0  0
  9 10  4  0  0  0  0
 10 11  4  0  0  0  0
 11 12  4  0  0  0  0
 12 13  1  0  0  0  0
 12 14  4  0  0  0  0
 14 15  1  0  0  0  0
 14 16  4  0  0  0  0
  9 16  4  0  0  0  0
  1 17  1  0  0  0  0
  1 18  1  0  0  0  0
  1 19  1  0  0  0  0
  3 20  1  0  0  0  0
  5 21  1  0  0  0  0
  6 22  1  0  0  0  0
  8 23  1  0  0  0  0
  8 24  1  0  0  0  0
 10 25  1  0  0  0  0
 11 26  1  0  0  0  0
 13 27  1  0  0  0  0
 13 28  1  0  0  0  0
 15 29  1  0  0  0  0
 15 30  1  0  0  0  0
 15 31  1  0  0  0  0
 16 32  1  0  0  0  0
M  END
>  <InChIKey>
InChI=1S/C14H16N2/c1-9-7-11(3-5-13(9)15)12-4-6-14(16)10(2)8-12/h3-8H,15-16H2,1-2H3

>  <CASRN>
119-93-7

> <Outcome>
1

>  <Index>
2324

>  <StandardizerResult>
Dearomatize (ID: Dearomatize)
Clear Stereo (ID: ClearStereo)
Wedge Clean (ID: WedgeClean)
Mesomerize (ID: Mesomerize)
Tautomerize (ID: Tautomerize)
Aromatize (ID: Aromatize)
Add Explicit Hydrogens (ID: AddExplicitH)
Neutralize (ID: Neutralize)
Clean 2D (ID: Clean2D)

> <knn Distance>


> <CpId>
2324

$$$$
2334
  Mrv1532301301811342D          

  7  6  0  0  0  0            999 V2000
    2.0625   -0.7145    0.0000 Cl  0  0  0  0  0  0  0  0  0  0  0  0
    1.2375   -0.7145    0.0000 C   0  0  0  0  0  0  0  0  0  0  0  0
    0.8250   -1.4290    0.0000 Cl  0  0  0  0  0  0  0  0  0  0  0  0
    0.8250   -0.0000    0.0000 C   0  0  0  0  0  0  0  0  0  0  0  0
   -0.0000   -0.0000    0.0000 O   0  0  0  0  0  0  0  0  0  0  0  0
    1.6500   -1.4290    0.0000 H   0  0  0  0  0  0  0  0  0  0  0  0
    1.2375    0.7145    0.0000 H   0  0  0  0  0  0  0  0  0  0  0  0
  1  2  1  0  0  0  0
  2  3  1  0  0  0  0
  2  4  1  0  0  0  0
  4  5  2  0  0  0  0
  2  6  1  0  0  0  0
  4  7  1  0  0  0  0
M  END
>  <InChIKey>
InChI=1S/C2H2Cl2O/c3-2(4)1-5/h1-2H

>  <CASRN>
79-02-7

> <Outcome>
1

>  <Index>
2334

>  <StandardizerResult>
Clear Stereo (ID: ClearStereo)
Wedge Clean (ID: WedgeClean)
Mesomerize (ID: Mesomerize)
Tautomerize (ID: Tautomerize)
Add Explicit Hydrogens (ID: AddExplicitH)
Neutralize (ID: Neutralize)
Clean 2D (ID: Clean2D)

> <knn Distance>


> <CpId>
2334

$$$$
2339
  Mrv1532301301811342D          

 20 20  0  0  0  0            999 V2000
    0.7145    2.0625    0.0000 C   0  0  0  0  0  0  0  0  0  0  0  0
    0.7145    1.2375    0.0000 C   0  0  0  0  0  0  0  0  0  0  0  0
    1.4289    0.8250    0.0000 C   0  0  0  0  0  0  0  0  0  0  0  0
    1.4289    0.0000    0.0000 C   0  0  0  0  0  0  0  0  0  0  0  0
    0.7145   -0.4125    0.0000 C   0  0  0  0  0  0  0  0  0  0  0  0
    0.0000    0.0000    0.0000 C   0  0  0  0  0  0  0  0  0  0  0  0
    0.0000    0.8250    0.0000 C   0  0  0  0  0  0  0  0  0  0  0  0
    0.7145   -1.2375    0.0000 S   0  0  0  0  0  0  0  0  0  0  0  0
   -0.1105   -1.2375    0.0000 O   0  0  0  0  0  0  0  0  0  0  0  0
    1.5395   -1.2375    0.0000 O   0  0  0  0  0  0  0  0  0  0  0  0
    0.7145   -2.0625    0.0000 N   0  0  0  0  0  0  0  0  0  0  0  0
    1.4289   -2.4750    0.0000 Cl  0  0  0  0  0  0  0  0  0  0  0  0
    1.5395    2.0625    0.0000 H   0  0  0  0  0  0  0  0  0  0  0  0
    0.7145    2.8875    0.0000 H   0  0  0  0  0  0  0  0  0  0  0  0
   -0.1105    2.0625    0.0000 H   0  0  0  0  0  0  0  0  0  0  0  0
    2.1434    1.2375    0.0000 H   0  0  0  0  0  0  0  0  0  0  0  0
    2.1434   -0.4125    0.0000 H   0  0  0  0  0  0  0  0  0  0  0  0
   -0.7145   -0.4125    0.0000 H   0  0  0  0  0  0  0  0  0  0  0  0
   -0.7145    1.2375    0.0000 H   0  0  0  0  0  0  0  0  0  0  0  0
    0.0000   -2.4750    0.0000 H   0  0  0  0  0  0  0  0  0  0  0  0
  1  2  1  0  0  0  0
  2  3  4  0  0  0  0
  3  4  4  0  0  0  0
  4  5  4  0  0  0  0
  5  6  4  0  0  0  0
  6  7  4  0  0  0  0
  2  7  4  0  0  0  0
  5  8  1  0  0  0  0
  8  9  2  0  0  0  0
  8 10  2  0  0  0  0
  8 11  1  0  0  0  0
 11 12  1  0  0  0  0
  1 13  1  0  0  0  0
  1 14  1  0  0  0  0
  1 15  1  0  0  0  0
  3 16  1  0  0  0  0
  4 17  1  0  0  0  0
  6 18  1  0  0  0  0
  7 19  1  0  0  0  0
 11 20  1  0  0  0  0
M  END
>  <InChIKey>
InChI=1S/C7H8ClNO2S/c1-6-2-4-7(5-3-6)12(10,11)9-8/h2-5,9H,1H3

>  <CASRN>
127-65-1

> <Outcome>
1

>  <Index>
2339

>  <StandardizerResult>
Dearomatize (ID: Dearomatize)
Clear Stereo (ID: ClearStereo)
Wedge Clean (ID: WedgeClean)
Mesomerize (ID: Mesomerize)
Tautomerize (ID: Tautomerize)
Aromatize (ID: Aromatize)
Add Explicit Hydrogens (ID: AddExplicitH)
Neutralize (ID: Neutralize)
Clean 2D (ID: Clean2D)

> <knn Distance>


> <CpId>
2339

$$$$
2340
  Mrv1532301301811342D          

 19 19  0  0  0  0            999 V2000
    0.7145    2.0625    0.0000 C   0  0  0  0  0  0  0  0  0  0  0  0
    0.7145    1.2375    0.0000 C   0  0  0  0  0  0  0  0  0  0  0  0
    1.4289    0.8250    0.0000 C   0  0  0  0  0  0  0  0  0  0  0  0
    1.4289    0.0000    0.0000 C   0  0  0  0  0  0  0  0  0  0  0  0
    0.7145   -0.4125    0.0000 C   0  0  0  0  0  0  0  0  0  0  0  0
   -0.0000    0.0000    0.0000 C   0  0  0  0  0  0  0  0  0  0  0  0
   -0.7145   -0.4125    0.0000 C   0  0  0  0  0  0  0  0  0  0  0  0
   -0.0000    0.8250    0.0000 C   0  0  0  0  0  0  0  0  0  0  0  0
   -0.7145    1.2375    0.0000 O   0  0  0  0  0  0  0  0  0  0  0  0
    1.5395    2.0625    0.0000 H   0  0  0  0  0  0  0  0  0  0  0  0
    0.7145    2.8875    0.0000 H   0  0  0  0  0  0  0  0  0  0  0  0
   -0.1105    2.0625    0.0000 H   0  0  0  0  0  0  0  0  0  0  0  0
    2.1434    1.2375    0.0000 H   0  0  0  0  0  0  0  0  0  0  0  0
    2.1434   -0.4125    0.0000 H   0  0  0  0  0  0  0  0  0  0  0  0
    0.7145   -1.2375    0.0000 H   0  0  0  0  0  0  0  0  0  0  0  0
   -1.1270    0.3020    0.0000 H   0  0  0  0  0  0  0  0  0  0  0  0
   -1.4289   -0.8250    0.0000 H   0  0  0  0  0  0  0  0  0  0  0  0
   -0.3020   -1.1270    0.0000 H   0  0  0  0  0  0  0  0  0  0  0  0
   -0.7145    2.0625    0.0000 H   0  0  0  0  0  0  0  0  0  0  0  0
  1  2  1  0  0  0  0
  2  3  4  0  0  0  0
  3  4  4  0  0  0  0
  4  5  4  0  0  0  0
  5  6  4  0  0  0  0
  6  7  1  0  0  0  0
  6  8  4  0  0  0  0
  2  8  4  0  0  0  0
  8  9  1  0  0  0  0
  1 10  1  0  0  0  0
  1 11  1  0  0  0  0
  1 12  1  0  0  0  0
  3 13  1  0  0  0  0
  4 14  1  0  0  0  0
  5 15  1  0  0  0  0
  7 16  1  0  0  0  0
  7 17  1  0  0  0  0
  7 18  1  0  0  0  0
  9 19  1  0  0  0  0
M  END
>  <InChIKey>
InChI=1S/C8H10O/c1-6-4-3-5-7(2)8(6)9/h3-5,9H,1-2H3

>  <CASRN>
576-26-1

> <Outcome>
1

>  <Index>
2340

>  <StandardizerResult>
Dearomatize (ID: Dearomatize)
Clear Stereo (ID: ClearStereo)
Wedge Clean (ID: WedgeClean)
Mesomerize (ID: Mesomerize)
Tautomerize (ID: Tautomerize)
Aromatize (ID: Aromatize)
Add Explicit Hydrogens (ID: AddExplicitH)
Neutralize (ID: Neutralize)
Clean 2D (ID: Clean2D)

> <knn Distance>


> <CpId>
2340

$$$$
2341
  Mrv1532301301811342D          

 33 35  0  0  0  0            999 V2000
    2.7953    0.6661    0.0000 N   0  0  0  0  0  0  0  0  0  0  0  0
    2.0808    1.0786    0.0000 C   0  0  0  0  0  0  0  0  0  0  0  0
    1.3663    0.6661    0.0000 N   0  0  0  0  0  0  0  0  0  0  0  0
    0.6519    1.0786    0.0000 C   0  0  0  0  0  0  0  0  0  0  0  0
   -0.1328    0.8236    0.0000 N   0  0  0  0  0  0  0  0  0  0  0  0
   -0.6177    1.4911    0.0000 C   0  0  0  0  0  0  0  0  0  0  0  0
   -0.1328    2.1585    0.0000 N   0  0  0  0  0  0  0  0  0  0  0  0
    0.6519    1.9036    0.0000 C   0  0  0  0  0  0  0  0  0  0  0  0
    1.3663    2.3161    0.0000 C   0  0  0  0  0  0  0  0  0  0  0  0
    1.3663    3.1411    0.0000 O   0  0  0  0  0  0  0  0  0  0  0  0
    2.0808    1.9036    0.0000 N   0  0  0  0  0  0  0  0  0  0  0  0
   -0.3877    0.0390    0.0000 C   0  0  0  0  0  0  0  0  0  0  0  0
    0.0972   -0.6284    0.0000 O   0  0  0  0  0  0  0  0  0  0  0  0
   -0.3877   -1.2959    0.0000 C   0  0  0  0  0  0  0  0  0  0  0  0
   -0.1328   -2.0805    0.0000 C   0  0  0  0  0  0  0  0  0  0  0  0
    0.6742   -2.2520    0.0000 O   0  0  0  0  0  0  0  0  0  0  0  0
   -1.1723   -1.0409    0.0000 C   0  0  0  0  0  0  0  0  0  0  0  0
   -1.8398   -1.5259    0.0000 O   0  0  0  0  0  0  0  0  0  0  0  0
   -1.1723   -0.2159    0.0000 C   0  0  0  0  0  0  0  0  0  0  0  0
   -1.8398    0.2690    0.0000 O   0  0  0  0  0  0  0  0  0  0  0  0
    2.7953   -0.1589    0.0000 H   0  0  0  0  0  0  0  0  0  0  0  0
    3.5097    1.0786    0.0000 H   0  0  0  0  0  0  0  0  0  0  0  0
   -1.4427    1.4911    0.0000 H   0  0  0  0  0  0  0  0  0  0  0  0
    2.7953    2.3161    0.0000 H   0  0  0  0  0  0  0  0  0  0  0  0
   -0.9711    0.6224    0.0000 H   0  0  0  0  0  0  0  0  0  0  0  0
   -0.9711   -1.8792    0.0000 H   0  0  0  0  0  0  0  0  0  0  0  0
   -0.5811   -2.7731    0.0000 H   0  0  0  0  0  0  0  0  0  0  0  0
   -0.0263   -2.8986    0.0000 H   0  0  0  0  0  0  0  0  0  0  0  0
    1.4698   -2.0336    0.0000 H   0  0  0  0  0  0  0  0  0  0  0  0
   -1.9074   -0.6664    0.0000 H   0  0  0  0  0  0  0  0  0  0  0  0
   -2.5057   -2.0129    0.0000 H   0  0  0  0  0  0  0  0  0  0  0  0
   -0.5049   -0.7009    0.0000 H   0  0  0  0  0  0  0  0  0  0  0  0
   -2.5072    0.7539    0.0000 H   0  0  0  0  0  0  0  0  0  0  0  0
  1  2  1  0  0  0  0
  2  3  2  0  0  0  0
  3  4  1  0  0  0  0
  4  5  4  0  0  0  0
  5  6  4  0  0  0  0
  6  7  4  0  0  0  0
  7  8  4  0  0  0  0
  4  8  4  0  0  0  0
  8  9  1  0  0  0  0
  9 10  2  0  0  0  0
  9 11  1  0  0  0  0
  2 11  1  0  0  0  0
  5 12  1  0  0  0  0
 12 13  1  0  0  0  0
 13 14  1  0  0  0  0
 14 15  1  0  0  0  0
 15 16  1  0  0  0  0
 14 17  1  0  0  0  0
 17 18  1  0  0  0  0
 17 19  1  0  0  0  0
 12 19  1  0  0  0  0
 19 20  1  0  0  0  0
  1 21  1  0  0  0  0
  1 22  1  0  0  0  0
  6 23  1  0  0  0  0
 11 24  1  0  0  0  0
 12 25  1  0  0  0  0
 14 26  1  0  0  0  0
 15 27  1  0  0  0  0
 15 28  1  0  0  0  0
 16 29  1  0  0  0  0
 17 30  1  0  0  0  0
 18 31  1  0  0  0  0
 19 32  1  0  0  0  0
 20 33  1  0  0  0  0
M  END
>  <InChIKey>
InChI=1S/C10H13N5O5/c11-10-13-7-4(8(19)14-10)12-2-15(7)9-6(18)5(17)3(1-16)20-9/h2-3,5-6,9,16-18H,1H2,(H3,11,13,14,19)

>  <CASRN>
118-00-3

> <Outcome>
1

>  <Index>
2341

>  <StandardizerResult>
Dearomatize (ID: Dearomatize)
Clear Stereo (ID: ClearStereo)
Wedge Clean (ID: WedgeClean)
Mesomerize (ID: Mesomerize)
Tautomerize (ID: Tautomerize)
Aromatize (ID: Aromatize)
Add Explicit Hydrogens (ID: AddExplicitH)
Neutralize (ID: Neutralize)
Clean 2D (ID: Clean2D)

> <knn Distance>


> <CpId>
2341

$$$$
2342
  Mrv1532301301811342D          

 52 54  0  0  0  0            999 V2000
    0.7446   -2.6898    0.0000 C   0  0  0  0  0  0  0  0  0  0  0  0
    0.3321   -1.9754    0.0000 C   0  0  0  0  0  0  0  0  0  0  0  0
   -0.4929   -1.9754    0.0000 C   0  0  0  0  0  0  0  0  0  0  0  0
    0.7446   -1.2609    0.0000 C   0  0  0  0  0  0  0  0  0  0  0  0
    1.5696   -1.2609    0.0000 C   0  0  0  0  0  0  0  0  0  0  0  0
    1.9821   -0.5464    0.0000 O   0  0  0  0  0  0  0  0  0  0  0  0
    1.9821   -1.9754    0.0000 O   0  0  0  0  0  0  0  0  0  0  0  0
    2.8071   -1.9754    0.0000 C   0  0  0  0  0  0  0  0  0  0  0  0
    3.2196   -1.2609    0.0000 C   0  0  0  0  0  0  0  0  0  0  0  0
    3.6321   -0.5464    0.0000 N   0  0  0  0  0  0  0  0  0  0  0  0
    3.2196   -2.6898    0.0000 C   0  0  0  0  0  0  0  0  0  0  0  0
    4.0446   -2.6898    0.0000 C   0  0  0  0  0  0  0  0  0  0  0  0
    4.4571   -3.4043    0.0000 C   0  0  0  0  0  0  0  0  0  0  0  0
    4.0446   -4.1188    0.0000 C   0  0  0  0  0  0  0  0  0  0  0  0
    3.2196   -4.1188    0.0000 C   0  0  0  0  0  0  0  0  0  0  0  0
    2.8071   -4.8333    0.0000 O   0  0  0  0  0  0  0  0  0  0  0  0
    3.2196   -5.5477    0.0000 C   0  0  0  0  0  0  0  0  0  0  0  0
    4.0446   -5.5477    0.0000 C   0  0  0  0  0  0  0  0  0  0  0  0
    4.4571   -6.2622    0.0000 C   0  0  0  0  0  0  0  0  0  0  0  0
    4.0446   -6.9767    0.0000 C   0  0  0  0  0  0  0  0  0  0  0  0
    3.2196   -6.9767    0.0000 C   0  0  0  0  0  0  0  0  0  0  0  0
    2.8071   -6.2622    0.0000 C   0  0  0  0  0  0  0  0  0  0  0  0
    2.8071   -3.4043    0.0000 C   0  0  0  0  0  0  0  0  0  0  0  0
    0.3321   -0.5464    0.0000 C   0  0  0  0  0  0  0  0  0  0  0  0
   -0.4929   -0.5464    0.0000 C   0  0  0  0  0  0  0  0  0  0  0  0
   -0.9054    0.1680    0.0000 C   0  0  0  0  0  0  0  0  0  0  0  0
   -0.4929    0.8825    0.0000 C   0  0  0  0  0  0  0  0  0  0  0  0
   -0.9054    1.5970    0.0000 Cl  0  0  0  0  0  0  0  0  0  0  0  0
    0.3321    0.8825    0.0000 C   0  0  0  0  0  0  0  0  0  0  0  0
    0.7446    0.1680    0.0000 C   0  0  0  0  0  0  0  0  0  0  0  0
    0.0301   -3.1023    0.0000 H   0  0  0  0  0  0  0  0  0  0  0  0
    1.1571   -3.4043    0.0000 H   0  0  0  0  0  0  0  0  0  0  0  0
    1.4591   -2.2773    0.0000 H   0  0  0  0  0  0  0  0  0  0  0  0
   -0.0804   -2.6898    0.0000 H   0  0  0  0  0  0  0  0  0  0  0  0
   -0.2794   -1.1785    0.0000 H   0  0  0  0  0  0  0  0  0  0  0  0
   -1.2074   -1.5629    0.0000 H   0  0  0  0  0  0  0  0  0  0  0  0
   -1.0763   -2.5587    0.0000 H   0  0  0  0  0  0  0  0  0  0  0  0
    1.1571   -1.9754    0.0000 H   0  0  0  0  0  0  0  0  0  0  0  0
    2.3946   -1.2609    0.0000 H   0  0  0  0  0  0  0  0  0  0  0  0
    4.4571   -1.9754    0.0000 H   0  0  0  0  0  0  0  0  0  0  0  0
    5.2821   -3.4043    0.0000 H   0  0  0  0  0  0  0  0  0  0  0  0
    4.4571   -4.8333    0.0000 H   0  0  0  0  0  0  0  0  0  0  0  0
    3.6321   -4.8333    0.0000 H   0  0  0  0  0  0  0  0  0  0  0  0
    5.2821   -6.2622    0.0000 H   0  0  0  0  0  0  0  0  0  0  0  0
    4.4571   -7.6911    0.0000 H   0  0  0  0  0  0  0  0  0  0  0  0
    2.8071   -7.6911    0.0000 H   0  0  0  0  0  0  0  0  0  0  0  0
    1.9821   -6.2622    0.0000 H   0  0  0  0  0  0  0  0  0  0  0  0
    1.9821   -3.4043    0.0000 H   0  0  0  0  0  0  0  0  0  0  0  0
   -1.2446   -0.8864    0.0000 H   0  0  0  0  0  0  0  0  0  0  0  0
   -1.7304    0.1680    0.0000 H   0  0  0  0  0  0  0  0  0  0  0  0
    0.7446    1.5970    0.0000 H   0  0  0  0  0  0  0  0  0  0  0  0
    1.5696    0.1680    0.0000 H   0  0  0  0  0  0  0  0  0  0  0  0
  1  2  1  0  0  0  0
  2  3  1  0  0  0  0
  2  4  1  0  0  0  0
  4  5  1  0  0  0  0
  5  6  2  0  0  0  0
  5  7  1  0  0  0  0
  7  8  1  0  0  0  0
  8  9  1  0  0  0  0
  9 10  3  0  0  0  0
  8 11  1  0  0  0  0
 11 12  4  0  0  0  0
 12 13  4  0  0  0  0
 13 14  4  0  0  0  0
 14 15  4  0  0  0  0
 15 16  1  0  0  0  0
 16 17  1  0  0  0  0
 17 18  4  0  0  0  0
 18 19  4  0  0  0  0
 19 20  4  0  0  0  0
 20 21  4  0  0  0  0
 21 22  4  0  0  0  0
 17 22  4  0  0  0  0
 15 23  4  0  0  0  0
 11 23  4  0  0  0  0
  4 24  1  0  0  0  0
 24 25  4  0  0  0  0
 25 26  4  0  0  0  0
 26 27  4  0  0  0  0
 27 28  1  0  0  0  0
 27 29  4  0  0  0  0
 29 30  4  0  0  0  0
 24 30  4  0  0  0  0
  1 31  1  0  0  0  0
  1 32  1  0  0  0  0
  1 33  1  0  0  0  0
  2 34  1  0  0  0  0
  3 35  1  0  0  0  0
  3 36  1  0  0  0  0
  3 37  1  0  0  0  0
  4 38  1  0  0  0  0
  8 39  1  0  0  0  0
 12 40  1  0  0  0  0
 13 41  1  0  0  0  0
 14 42  1  0  0  0  0
 18 43  1  0  0  0  0
 19 44  1  0  0  0  0
 20 45  1  0  0  0  0
 21 46  1  0  0  0  0
 22 47  1  0  0  0  0
 23 48  1  0  0  0  0
 25 49  1  0  0  0  0
 26 50  1  0  0  0  0
 29 51  1  0  0  0  0
 30 52  1  0  0  0  0
M  END
>  <InChIKey>
InChI=1S/C25H22ClNO3/c1-17(2)24(18-11-13-20(26)14-12-18)25(28)30-23(16-27)19-7-6-10-22(15-19)29-21-8-4-3-5-9-21/h3-15,17,23-24H,1-2H3

>  <CASRN>
66230-04-4 51630-58-1

> <Outcome>
1

>  <Index>
2342

>  <StandardizerResult>
Dearomatize (ID: Dearomatize)
Clear Stereo (ID: ClearStereo)
Wedge Clean (ID: WedgeClean)
Mesomerize (ID: Mesomerize)
Tautomerize (ID: Tautomerize)
Aromatize (ID: Aromatize)
Add Explicit Hydrogens (ID: AddExplicitH)
Neutralize (ID: Neutralize)
Clean 2D (ID: Clean2D)

> <knn Distance>


> <CpId>
2342

$$$$
2347
  Mrv1532301301811342D          

 10  9  0  0  0  0            999 V2000
    0.8250    1.4289    0.0000 N   0  0  0  0  0  0  0  0  0  0  0  0
    1.2375    0.7145    0.0000 C   0  0  0  0  0  0  0  0  0  0  0  0
    2.0625    0.7145    0.0000 S   0  0  0  0  0  0  0  0  0  0  0  0
    0.8250   -0.0000    0.0000 C   0  0  0  0  0  0  0  0  0  0  0  0
    1.2375   -0.7145    0.0000 N   0  0  0  0  0  0  0  0  0  0  0  0
   -0.0000   -0.0000    0.0000 S   0  0  0  0  0  0  0  0  0  0  0  0
    1.2375    2.1434    0.0000 H   0  0  0  0  0  0  0  0  0  0  0  0
   -0.0000    1.4289    0.0000 H   0  0  0  0  0  0  0  0  0  0  0  0
    0.8250   -1.4290    0.0000 H   0  0  0  0  0  0  0  0  0  0  0  0
    2.0625   -0.7145    0.0000 H   0  0  0  0  0  0  0  0  0  0  0  0
  1  2  1  0  0  0  0
  2  3  2  0  0  0  0
  2  4  1  0  0  0  0
  4  5  1  0  0  0  0
  4  6  2  0  0  0  0
  1  7  1  0  0  0  0
  1  8  1  0  0  0  0
  5  9  1  0  0  0  0
  5 10  1  0  0  0  0
M  END
>  <InChIKey>
InChI=1S/C2H4N2S2/c3-1(5)2(4)6/h(H2,3,5)(H2,4,6)

>  <CASRN>
79-40-3

> <Outcome>
1

>  <Index>
2347

>  <StandardizerResult>
Clear Stereo (ID: ClearStereo)
Wedge Clean (ID: WedgeClean)
Mesomerize (ID: Mesomerize)
Tautomerize (ID: Tautomerize)
Add Explicit Hydrogens (ID: AddExplicitH)
Neutralize (ID: Neutralize)
Clean 2D (ID: Clean2D)

> <knn Distance>


> <CpId>
2347

$$$$
2349
  Mrv1532301301811342D          

 39 42  0  0  0  0            999 V2000
    4.7289    0.6039    0.0000 O   0  0  0  0  0  0  0  0  0  0  0  0
    4.3164   -0.1105    0.0000 C   0  0  0  0  0  0  0  0  0  0  0  0
    4.7289   -0.8250    0.0000 C   0  0  0  0  0  0  0  0  0  0  0  0
    4.3164   -1.5395    0.0000 C   0  0  0  0  0  0  0  0  0  0  0  0
    3.4914   -1.5395    0.0000 C   0  0  0  0  0  0  0  0  0  0  0  0
    3.0789   -2.2539    0.0000 C   0  0  0  0  0  0  0  0  0  0  0  0
    2.2539   -2.2539    0.0000 C   0  0  0  0  0  0  0  0  0  0  0  0
    1.8414   -1.5395    0.0000 C   0  0  0  0  0  0  0  0  0  0  0  0
    1.0164   -1.5395    0.0000 C   0  0  0  0  0  0  0  0  0  0  0  0
    0.6039   -0.8250    0.0000 C   0  0  0  0  0  0  0  0  0  0  0  0
    1.0164   -0.1105    0.0000 C   0  0  0  0  0  0  0  0  0  0  0  0
    1.8414   -0.1105    0.0000 C   0  0  0  0  0  0  0  0  0  0  0  0
    2.2539    0.6039    0.0000 C   0  0  0  0  0  0  0  0  0  0  0  0
    3.0789    0.6039    0.0000 C   0  0  0  0  0  0  0  0  0  0  0  0
    3.4914   -0.1105    0.0000 C   0  0  0  0  0  0  0  0  0  0  0  0
    3.0789   -0.8250    0.0000 C   0  0  0  0  0  0  0  0  0  0  0  0
    2.2539   -0.8250    0.0000 C   0  0  0  0  0  0  0  0  0  0  0  0
    0.6039    0.6039    0.0000 S   0  0  0  0  0  0  0  0  0  0  0  0
    0.1914    1.3184    0.0000 O   0  0  0  0  0  0  0  0  0  0  0  0
   -0.1106    0.1914    0.0000 O   0  0  0  0  0  0  0  0  0  0  0  0
    1.3184    1.0164    0.0000 O   0  0  0  0  0  0  0  0  0  0  0  0
    0.6039   -2.2539    0.0000 S   0  0  0  0  0  0  0  0  0  0  0  0
    0.1914   -2.9684    0.0000 O   0  0  0  0  0  0  0  0  0  0  0  0
   -0.1106   -1.8414    0.0000 O   0  0  0  0  0  0  0  0  0  0  0  0
    1.3184   -2.6664    0.0000 O   0  0  0  0  0  0  0  0  0  0  0  0
    4.7289   -2.2539    0.0000 S   0  0  0  0  0  0  0  0  0  0  0  0
    5.1414   -2.9684    0.0000 O   0  0  0  0  0  0  0  0  0  0  0  0
    4.0144   -2.6664    0.0000 O   0  0  0  0  0  0  0  0  0  0  0  0
    5.4434   -1.8414    0.0000 O   0  0  0  0  0  0  0  0  0  0  0  0
    5.5539    0.6039    0.0000 H   0  0  0  0  0  0  0  0  0  0  0  0
    5.5539   -0.8250    0.0000 H   0  0  0  0  0  0  0  0  0  0  0  0
    3.4914   -2.9684    0.0000 H   0  0  0  0  0  0  0  0  0  0  0  0
    1.8414   -2.9684    0.0000 H   0  0  0  0  0  0  0  0  0  0  0  0
   -0.2211   -0.8250    0.0000 H   0  0  0  0  0  0  0  0  0  0  0  0
    1.8414    1.3184    0.0000 H   0  0  0  0  0  0  0  0  0  0  0  0
    3.4914    1.3184    0.0000 H   0  0  0  0  0  0  0  0  0  0  0  0
    0.6039    2.0329    0.0000 H   0  0  0  0  0  0  0  0  0  0  0  0
   -0.6336   -2.9684    0.0000 H   0  0  0  0  0  0  0  0  0  0  0  0
    4.7289   -3.6829    0.0000 H   0  0  0  0  0  0  0  0  0  0  0  0
  1  2  1  0  0  0  0
  2  3  4  0  0  0  0
  3  4  4  0  0  0  0
  4  5  4  0  0  0  0
  5  6  4  0  0  0  0
  6  7  4  0  0  0  0
  7  8  4  0  0  0  0
  8  9  4  0  0  0  0
  9 10  4  0  0  0  0
 10 11  4  0  0  0  0
 11 12  4  0  0  0  0
 12 13  4  0  0  0  0
 13 14  4  0  0  0  0
 14 15  4  0  0  0  0
  2 15  4  0  0  0  0
 15 16  4  0  0  0  0
  5 16  4  0  0  0  0
 16 17  4  0  0  0  0
  8 17  4  0  0  0  0
 12 17  4  0  0  0  0
 11 18  1  0  0  0  0
 18 19  1  0  0  0  0
 18 20  2  0  0  0  0
 18 21  2  0  0  0  0
  9 22  1  0  0  0  0
 22 23  1  0  0  0  0
 22 24  2  0  0  0  0
 22 25  2  0  0  0  0
  4 26  1  0  0  0  0
 26 27  1  0  0  0  0
 26 28  2  0  0  0  0
 26 29  2  0  0  0  0
  1 30  1  0  0  0  0
  3 31  1  0  0  0  0
  6 32  1  0  0  0  0
  7 33  1  0  0  0  0
 10 34  1  0  0  0  0
 13 35  1  0  0  0  0
 14 36  1  0  0  0  0
 19 37  1  0  0  0  0
 23 38  1  0  0  0  0
 27 39  1  0  0  0  0
M  END
>  <InChIKey>
InChI=1S/C16H10O10S3/c17-11-5-12(27(18,19)20)8-3-4-10-14(29(24,25)26)6-13(28(21,22)23)9-2-1-7(11)15(8)16(9)10/h1-6,17H,(H,18,19,20)(H,21,22,23)(H,24,25,26)

>  <CASRN>
6358-69-6

> <Outcome>
1

>  <Index>
2349

>  <StandardizerResult>
Dearomatize (ID: Dearomatize)
Clear Stereo (ID: ClearStereo)
Wedge Clean (ID: WedgeClean)
Mesomerize (ID: Mesomerize)
Tautomerize (ID: Tautomerize)
Aromatize (ID: Aromatize)
Add Explicit Hydrogens (ID: AddExplicitH)
Neutralize (ID: Neutralize)
Clean 2D (ID: Clean2D)

> <knn Distance>


> <CpId>
2349

$$$$
2351
  Mrv1532301301811342D          

 20 19  0  0  0  0            999 V2000
    1.7605    1.8423    0.0000 C   0  0  0  0  0  0  0  0  0  0  0  0
    2.4750    1.4298    0.0000 C   0  0  0  0  0  0  0  0  0  0  0  0
    3.1895    1.8423    0.0000 C   0  0  0  0  0  0  0  0  0  0  0  0
    3.9039    1.4298    0.0000 C   0  0  0  0  0  0  0  0  0  0  0  0
    3.9039    0.6048    0.0000 O   0  0  0  0  0  0  0  0  0  0  0  0
    4.6184    1.8423    0.0000 O   0  0  0  0  0  0  0  0  0  0  0  0
    5.3329    1.4298    0.0000 C   0  0  0  0  0  0  0  0  0  0  0  0
    6.0474    1.8423    0.0000 C   0  0  0  0  0  0  0  0  0  0  0  0
    2.1730    2.5568    0.0000 H   0  0  0  0  0  0  0  0  0  0  0  0
    1.0461    2.2548    0.0000 H   0  0  0  0  0  0  0  0  0  0  0  0
    1.3480    1.1278    0.0000 H   0  0  0  0  0  0  0  0  0  0  0  0
    2.1047    0.6925    0.0000 H   0  0  0  0  0  0  0  0  0  0  0  0
    2.8453    0.6925    0.0000 H   0  0  0  0  0  0  0  0  0  0  0  0
    3.5597    2.5795    0.0000 H   0  0  0  0  0  0  0  0  0  0  0  0
    2.8192    2.5795    0.0000 H   0  0  0  0  0  0  0  0  0  0  0  0
    4.9626    0.6925    0.0000 H   0  0  0  0  0  0  0  0  0  0  0  0
    5.7032    0.6925    0.0000 H   0  0  0  0  0  0  0  0  0  0  0  0
    6.4599    1.1278    0.0000 H   0  0  0  0  0  0  0  0  0  0  0  0
    6.7618    2.2548    0.0000 H   0  0  0  0  0  0  0  0  0  0  0  0
    5.6349    2.5568    0.0000 H   0  0  0  0  0  0  0  0  0  0  0  0
  1  2  1  0  0  0  0
  2  3  1  0  0  0  0
  3  4  1  0  0  0  0
  4  5  2  0  0  0  0
  4  6  1  0  0  0  0
  6  7  1  0  0  0  0
  7  8  1  0  0  0  0
  1  9  1  0  0  0  0
  1 10  1  0  0  0  0
  1 11  1  0  0  0  0
  2 12  1  0  0  0  0
  2 13  1  0  0  0  0
  3 14  1  0  0  0  0
  3 15  1  0  0  0  0
  7 16  1  0  0  0  0
  7 17  1  0  0  0  0
  8 18  1  0  0  0  0
  8 19  1  0  0  0  0
  8 20  1  0  0  0  0
M  END
>  <InChIKey>
InChI=1S/C6H12O2/c1-3-5-6(7)8-4-2/h3-5H2,1-2H3

>  <CASRN>
105-54-4

> <Outcome>
1

>  <Index>
2351

>  <StandardizerResult>
Clear Stereo (ID: ClearStereo)
Wedge Clean (ID: WedgeClean)
Mesomerize (ID: Mesomerize)
Tautomerize (ID: Tautomerize)
Add Explicit Hydrogens (ID: AddExplicitH)
Neutralize (ID: Neutralize)
Clean 2D (ID: Clean2D)

> <knn Distance>


> <CpId>
2351

$$$$
2352
  Mrv1532301301811342D          

 28 27  0  0  0  0            999 V2000
    1.6734    1.8380    0.0000 C   0  0  0  0  0  0  0  0  0  0  0  0
    2.3878    1.4255    0.0000 C   0  0  0  0  0  0  0  0  0  0  0  0
    3.1023    1.8380    0.0000 C   0  0  0  0  0  0  0  0  0  0  0  0
    3.1023    2.6630    0.0000 C   0  0  0  0  0  0  0  0  0  0  0  0
    3.8168    1.4255    0.0000 N   0  0  0  0  0  0  0  0  0  0  0  0
    4.5313    1.8380    0.0000 C   0  0  0  0  0  0  0  0  0  0  0  0
    4.5313    2.6630    0.0000 C   0  0  0  0  0  0  0  0  0  0  0  0
    5.2457    1.4255    0.0000 C   0  0  0  0  0  0  0  0  0  0  0  0
    5.9602    1.8380    0.0000 C   0  0  0  0  0  0  0  0  0  0  0  0
    2.0859    2.5525    0.0000 H   0  0  0  0  0  0  0  0  0  0  0  0
    0.9589    2.2505    0.0000 H   0  0  0  0  0  0  0  0  0  0  0  0
    1.2609    1.1235    0.0000 H   0  0  0  0  0  0  0  0  0  0  0  0
    2.0176    0.6882    0.0000 H   0  0  0  0  0  0  0  0  0  0  0  0
    2.7581    0.6882    0.0000 H   0  0  0  0  0  0  0  0  0  0  0  0
    2.3878    2.2505    0.0000 H   0  0  0  0  0  0  0  0  0  0  0  0
    3.8992    2.4495    0.0000 H   0  0  0  0  0  0  0  0  0  0  0  0
    3.5148    3.3775    0.0000 H   0  0  0  0  0  0  0  0  0  0  0  0
    2.5189    3.2464    0.0000 H   0  0  0  0  0  0  0  0  0  0  0  0
    3.8168    0.6005    0.0000 H   0  0  0  0  0  0  0  0  0  0  0  0
    5.2457    2.2505    0.0000 H   0  0  0  0  0  0  0  0  0  0  0  0
    5.2652    3.0397    0.0000 H   0  0  0  0  0  0  0  0  0  0  0  0
    4.6127    3.4840    0.0000 H   0  0  0  0  0  0  0  0  0  0  0  0
    3.8856    3.1766    0.0000 H   0  0  0  0  0  0  0  0  0  0  0  0
    4.8755    0.6882    0.0000 H   0  0  0  0  0  0  0  0  0  0  0  0
    5.6160    0.6882    0.0000 H   0  0  0  0  0  0  0  0  0  0  0  0
    6.1737    1.0411    0.0000 H   0  0  0  0  0  0  0  0  0  0  0  0
    6.7852    1.8380    0.0000 H   0  0  0  0  0  0  0  0  0  0  0  0
    6.1737    2.6349    0.0000 H   0  0  0  0  0  0  0  0  0  0  0  0
  1  2  1  0  0  0  0
  2  3  1  0  0  0  0
  3  4  1  0  0  0  0
  3  5  1  0  0  0  0
  5  6  1  0  0  0  0
  6  7  1  0  0  0  0
  6  8  1  0  0  0  0
  8  9  1  0  0  0  0
  1 10  1  0  0  0  0
  1 11  1  0  0  0  0
  1 12  1  0  0  0  0
  2 13  1  0  0  0  0
  2 14  1  0  0  0  0
  3 15  1  0  0  0  0
  4 16  1  0  0  0  0
  4 17  1  0  0  0  0
  4 18  1  0  0  0  0
  5 19  1  0  0  0  0
  6 20  1  0  0  0  0
  7 21  1  0  0  0  0
  7 22  1  0  0  0  0
  7 23  1  0  0  0  0
  8 24  1  0  0  0  0
  8 25  1  0  0  0  0
  9 26  1  0  0  0  0
  9 27  1  0  0  0  0
  9 28  1  0  0  0  0
M  END
>  <InChIKey>
InChI=1S/C8H19N/c1-5-7(3)9-8(4)6-2/h7-9H,5-6H2,1-4H3

>  <CASRN>
110-96-3

> <Outcome>
1

>  <Index>
2352

>  <StandardizerResult>
Clear Stereo (ID: ClearStereo)
Wedge Clean (ID: WedgeClean)
Mesomerize (ID: Mesomerize)
Tautomerize (ID: Tautomerize)
Add Explicit Hydrogens (ID: AddExplicitH)
Neutralize (ID: Neutralize)
Clean 2D (ID: Clean2D)

> <knn Distance>


> <CpId>
2352

$$$$
2356
  Mrv1532301301811342D          

 24 24  0  0  0  0            999 V2000
   -0.7151    3.7121    0.0000 C   0  0  0  0  0  0  0  0  0  0  0  0
   -0.0006    3.2996    0.0000 C   0  0  0  0  0  0  0  0  0  0  0  0
   -0.0006    2.4746    0.0000 C   0  0  0  0  0  0  0  0  0  0  0  0
    0.7138    2.0621    0.0000 C   0  0  0  0  0  0  0  0  0  0  0  0
    0.7138    1.2371    0.0000 C   0  0  0  0  0  0  0  0  0  0  0  0
    1.4283    0.8246    0.0000 C   0  0  0  0  0  0  0  0  0  0  0  0
    1.4283   -0.0004    0.0000 C   0  0  0  0  0  0  0  0  0  0  0  0
    0.7138   -0.4129    0.0000 C   0  0  0  0  0  0  0  0  0  0  0  0
   -0.0006   -0.0004    0.0000 C   0  0  0  0  0  0  0  0  0  0  0  0
   -0.0006    0.8246    0.0000 C   0  0  0  0  0  0  0  0  0  0  0  0
   -0.3026    4.4266    0.0000 H   0  0  0  0  0  0  0  0  0  0  0  0
   -1.4296    4.1246    0.0000 H   0  0  0  0  0  0  0  0  0  0  0  0
   -1.1276    2.9977    0.0000 H   0  0  0  0  0  0  0  0  0  0  0  0
    0.8230    3.3476    0.0000 H   0  0  0  0  0  0  0  0  0  0  0  0
    0.4527    3.9889    0.0000 H   0  0  0  0  0  0  0  0  0  0  0  0
   -0.8242    2.4267    0.0000 H   0  0  0  0  0  0  0  0  0  0  0  0
   -0.4540    1.7854    0.0000 H   0  0  0  0  0  0  0  0  0  0  0  0
    1.5374    2.1101    0.0000 H   0  0  0  0  0  0  0  0  0  0  0  0
    1.1672    2.7514    0.0000 H   0  0  0  0  0  0  0  0  0  0  0  0
    2.1428    1.2371    0.0000 H   0  0  0  0  0  0  0  0  0  0  0  0
    2.1428   -0.4129    0.0000 H   0  0  0  0  0  0  0  0  0  0  0  0
    0.7138   -1.2379    0.0000 H   0  0  0  0  0  0  0  0  0  0  0  0
   -0.7151   -0.4129    0.0000 H   0  0  0  0  0  0  0  0  0  0  0  0
   -0.7151    1.2371    0.0000 H   0  0  0  0  0  0  0  0  0  0  0  0
  1  2  1  0  0  0  0
  2  3  1  0  0  0  0
  3  4  1  0  0  0  0
  4  5  1  0  0  0  0
  5  6  4  0  0  0  0
  6  7  4  0  0  0  0
  7  8  4  0  0  0  0
  8  9  4  0  0  0  0
  9 10  4  0  0  0  0
  5 10  4  0  0  0  0
  1 11  1  0  0  0  0
  1 12  1  0  0  0  0
  1 13  1  0  0  0  0
  2 14  1  0  0  0  0
  2 15  1  0  0  0  0
  3 16  1  0  0  0  0
  3 17  1  0  0  0  0
  4 18  1  0  0  0  0
  4 19  1  0  0  0  0
  6 20  1  0  0  0  0
  7 21  1  0  0  0  0
  8 22  1  0  0  0  0
  9 23  1  0  0  0  0
 10 24  1  0  0  0  0
M  END
>  <InChIKey>
InChI=1S/C10H14/c1-2-3-7-10-8-5-4-6-9-10/h4-6,8-9H,2-3,7H2,1H3

>  <CASRN>
104-51-8

> <Outcome>
1

>  <Index>
2356

>  <StandardizerResult>
Dearomatize (ID: Dearomatize)
Clear Stereo (ID: ClearStereo)
Wedge Clean (ID: WedgeClean)
Mesomerize (ID: Mesomerize)
Tautomerize (ID: Tautomerize)
Aromatize (ID: Aromatize)
Add Explicit Hydrogens (ID: AddExplicitH)
Neutralize (ID: Neutralize)
Clean 2D (ID: Clean2D)

> <knn Distance>


> <CpId>
2356

$$$$
2357
  Mrv1532301301811342D          

 25 25  0  0  0  0            999 V2000
    1.4283    3.2996    0.0000 C   0  0  0  0  0  0  0  0  0  0  0  0
    1.4283    2.4746    0.0000 C   0  0  0  0  0  0  0  0  0  0  0  0
    0.7139    2.0621    0.0000 N   0  0  0  0  0  0  0  0  0  0  0  0
    0.7139    1.2371    0.0000 C   0  0  0  0  0  0  0  0  0  0  0  0
    1.4283    0.8246    0.0000 N   0  0  0  0  0  0  0  0  0  0  0  0
    1.4283   -0.0004    0.0000 C   0  0  0  0  0  0  0  0  0  0  0  0
    2.1428   -0.4129    0.0000 Cl  0  0  0  0  0  0  0  0  0  0  0  0
    0.7139   -0.4129    0.0000 N   0  0  0  0  0  0  0  0  0  0  0  0
   -0.0006   -0.0004    0.0000 C   0  0  0  0  0  0  0  0  0  0  0  0
   -0.7151   -0.4129    0.0000 N   0  0  0  0  0  0  0  0  0  0  0  0
   -1.4296   -0.0004    0.0000 C   0  0  0  0  0  0  0  0  0  0  0  0
   -2.1440   -0.4129    0.0000 C   0  0  0  0  0  0  0  0  0  0  0  0
   -0.0006    0.8246    0.0000 N   0  0  0  0  0  0  0  0  0  0  0  0
    2.2533    3.2996    0.0000 H   0  0  0  0  0  0  0  0  0  0  0  0
    1.4283    4.1246    0.0000 H   0  0  0  0  0  0  0  0  0  0  0  0
    0.6033    3.2996    0.0000 H   0  0  0  0  0  0  0  0  0  0  0  0
    1.8817    1.7854    0.0000 H   0  0  0  0  0  0  0  0  0  0  0  0
    2.2519    2.4267    0.0000 H   0  0  0  0  0  0  0  0  0  0  0  0
   -0.0006    2.4746    0.0000 H   0  0  0  0  0  0  0  0  0  0  0  0
   -0.7151   -1.2379    0.0000 H   0  0  0  0  0  0  0  0  0  0  0  0
   -1.0593    0.7369    0.0000 H   0  0  0  0  0  0  0  0  0  0  0  0
   -1.7998    0.7369    0.0000 H   0  0  0  0  0  0  0  0  0  0  0  0
   -2.5565    0.3016    0.0000 H   0  0  0  0  0  0  0  0  0  0  0  0
   -2.8585   -0.8254    0.0000 H   0  0  0  0  0  0  0  0  0  0  0  0
   -1.7315   -1.1273    0.0000 H   0  0  0  0  0  0  0  0  0  0  0  0
  1  2  1  0  0  0  0
  2  3  1  0  0  0  0
  3  4  1  0  0  0  0
  4  5  4  0  0  0  0
  5  6  4  0  0  0  0
  6  7  1  0  0  0  0
  6  8  4  0  0  0  0
  8  9  4  0  0  0  0
  9 10  1  0  0  0  0
 10 11  1  0  0  0  0
 11 12  1  0  0  0  0
  9 13  4  0  0  0  0
  4 13  4  0  0  0  0
  1 14  1  0  0  0  0
  1 15  1  0  0  0  0
  1 16  1  0  0  0  0
  2 17  1  0  0  0  0
  2 18  1  0  0  0  0
  3 19  1  0  0  0  0
 10 20  1  0  0  0  0
 11 21  1  0  0  0  0
 11 22  1  0  0  0  0
 12 23  1  0  0  0  0
 12 24  1  0  0  0  0
 12 25  1  0  0  0  0
M  END
>  <InChIKey>
InChI=1S/C7H12ClN5/c1-3-9-6-11-5(8)12-7(13-6)10-4-2/h3-4H2,1-2H3,(H2,9,10,11,12,13)

>  <CASRN>
122-34-9

> <Outcome>
1

>  <Index>
2357

>  <StandardizerResult>
Dearomatize (ID: Dearomatize)
Clear Stereo (ID: ClearStereo)
Wedge Clean (ID: WedgeClean)
Mesomerize (ID: Mesomerize)
Tautomerize (ID: Tautomerize)
Aromatize (ID: Aromatize)
Add Explicit Hydrogens (ID: AddExplicitH)
Neutralize (ID: Neutralize)
Clean 2D (ID: Clean2D)

> <knn Distance>


> <CpId>
2357

$$$$
2359
  Mrv1532301301811342D          

 21 21  0  0  0  0            999 V2000
    0.0000    3.3000    0.0000 C   0  0  0  0  0  0  0  0  0  0  0  0
    0.0000    2.4750    0.0000 C   0  0  0  0  0  0  0  0  0  0  0  0
    0.7145    2.0625    0.0000 C   0  0  0  0  0  0  0  0  0  0  0  0
    0.7145    1.2375    0.0000 C   0  0  0  0  0  0  0  0  0  0  0  0
    1.4289    0.8250    0.0000 C   0  0  0  0  0  0  0  0  0  0  0  0
    1.4289    0.0000    0.0000 C   0  0  0  0  0  0  0  0  0  0  0  0
    0.7145   -0.4125    0.0000 C   0  0  0  0  0  0  0  0  0  0  0  0
    0.0000    0.0000    0.0000 C   0  0  0  0  0  0  0  0  0  0  0  0
    0.0000    0.8250    0.0000 C   0  0  0  0  0  0  0  0  0  0  0  0
    0.8250    3.3000    0.0000 H   0  0  0  0  0  0  0  0  0  0  0  0
    0.0000    4.1250    0.0000 H   0  0  0  0  0  0  0  0  0  0  0  0
   -0.8250    3.3000    0.0000 H   0  0  0  0  0  0  0  0  0  0  0  0
   -0.8236    2.4270    0.0000 H   0  0  0  0  0  0  0  0  0  0  0  0
   -0.4533    1.7857    0.0000 H   0  0  0  0  0  0  0  0  0  0  0  0
    1.5381    2.1105    0.0000 H   0  0  0  0  0  0  0  0  0  0  0  0
    1.1678    2.7518    0.0000 H   0  0  0  0  0  0  0  0  0  0  0  0
    2.1434    1.2375    0.0000 H   0  0  0  0  0  0  0  0  0  0  0  0
    2.1434   -0.4125    0.0000 H   0  0  0  0  0  0  0  0  0  0  0  0
    0.7145   -1.2375    0.0000 H   0  0  0  0  0  0  0  0  0  0  0  0
   -0.7145   -0.4125    0.0000 H   0  0  0  0  0  0  0  0  0  0  0  0
   -0.7145    1.2375    0.0000 H   0  0  0  0  0  0  0  0  0  0  0  0
  1  2  1  0  0  0  0
  2  3  1  0  0  0  0
  3  4  1  0  0  0  0
  4  5  4  0  0  0  0
  5  6  4  0  0  0  0
  6  7  4  0  0  0  0
  7  8  4  0  0  0  0
  8  9  4  0  0  0  0
  4  9  4  0  0  0  0
  1 10  1  0  0  0  0
  1 11  1  0  0  0  0
  1 12  1  0  0  0  0
  2 13  1  0  0  0  0
  2 14  1  0  0  0  0
  3 15  1  0  0  0  0
  3 16  1  0  0  0  0
  5 17  1  0  0  0  0
  6 18  1  0  0  0  0
  7 19  1  0  0  0  0
  8 20  1  0  0  0  0
  9 21  1  0  0  0  0
M  END
>  <InChIKey>
InChI=1S/C9H12/c1-2-6-9-7-4-3-5-8-9/h3-5,7-8H,2,6H2,1H3

>  <CASRN>
103-65-1

> <Outcome>
1

>  <Index>
2359

>  <StandardizerResult>
Dearomatize (ID: Dearomatize)
Clear Stereo (ID: ClearStereo)
Wedge Clean (ID: WedgeClean)
Mesomerize (ID: Mesomerize)
Tautomerize (ID: Tautomerize)
Aromatize (ID: Aromatize)
Add Explicit Hydrogens (ID: AddExplicitH)
Neutralize (ID: Neutralize)
Clean 2D (ID: Clean2D)

> <knn Distance>


> <CpId>
2359

$$$$
2365
  Mrv1532301301811342D          

 40 43  0  0  0  0            999 V2000
   -7.3925    2.3350    0.0000 O   0  0  0  0  0  0  0  0  0  0  0  0
   -6.5675    2.3350    0.0000 S   0  0  0  0  0  0  0  0  0  0  0  0
   -6.5675    1.5100    0.0000 O   0  0  0  0  0  0  0  0  0  0  0  0
   -6.5675    3.1600    0.0000 O   0  0  0  0  0  0  0  0  0  0  0  0
   -5.7425    2.3350    0.0000 C   0  0  0  0  0  0  0  0  0  0  0  0
   -5.3300    3.0495    0.0000 C   0  0  0  0  0  0  0  0  0  0  0  0
   -4.5050    3.0495    0.0000 C   0  0  0  0  0  0  0  0  0  0  0  0
   -4.0925    2.3350    0.0000 C   0  0  0  0  0  0  0  0  0  0  0  0
   -3.2675    2.3350    0.0000 N   0  0  0  0  0  0  0  0  0  0  0  0
   -2.8550    1.6206    0.0000 C   0  0  0  0  0  0  0  0  0  0  0  0
   -3.2675    0.9061    0.0000 C   0  0  0  0  0  0  0  0  0  0  0  0
   -4.0925    0.9061    0.0000 C   0  0  0  0  0  0  0  0  0  0  0  0
   -4.5050    1.6206    0.0000 C   0  0  0  0  0  0  0  0  0  0  0  0
   -5.3300    1.6206    0.0000 C   0  0  0  0  0  0  0  0  0  0  0  0
   -2.0300    1.6206    0.0000 C   0  0  0  0  0  0  0  0  0  0  0  0
   -1.5450    2.2880    0.0000 C   0  0  0  0  0  0  0  0  0  0  0  0
   -1.8000    3.0726    0.0000 O   0  0  0  0  0  0  0  0  0  0  0  0
   -0.7604    2.0331    0.0000 C   0  0  0  0  0  0  0  0  0  0  0  0
   -0.0460    2.4456    0.0000 C   0  0  0  0  0  0  0  0  0  0  0  0
    0.6685    2.0331    0.0000 C   0  0  0  0  0  0  0  0  0  0  0  0
    0.6685    1.2081    0.0000 C   0  0  0  0  0  0  0  0  0  0  0  0
   -0.0460    0.7956    0.0000 C   0  0  0  0  0  0  0  0  0  0  0  0
   -0.7604    1.2081    0.0000 C   0  0  0  0  0  0  0  0  0  0  0  0
   -1.5450    0.9531    0.0000 C   0  0  0  0  0  0  0  0  0  0  0  0
   -1.8000    0.1685    0.0000 O   0  0  0  0  0  0  0  0  0  0  0  0
   -4.0925    3.7640    0.0000 S   0  0  0  0  0  0  0  0  0  0  0  0
   -3.6800    4.4785    0.0000 O   0  0  0  0  0  0  0  0  0  0  0  0
   -3.3780    3.3515    0.0000 O   0  0  0  0  0  0  0  0  0  0  0  0
   -4.8069    4.1765    0.0000 O   0  0  0  0  0  0  0  0  0  0  0  0
   -7.8050    3.0495    0.0000 H   0  0  0  0  0  0  0  0  0  0  0  0
   -5.7425    3.7640    0.0000 H   0  0  0  0  0  0  0  0  0  0  0  0
   -2.8550    0.1916    0.0000 H   0  0  0  0  0  0  0  0  0  0  0  0
   -4.5050    0.1916    0.0000 H   0  0  0  0  0  0  0  0  0  0  0  0
   -5.7425    0.9061    0.0000 H   0  0  0  0  0  0  0  0  0  0  0  0
   -2.4045    0.8855    0.0000 H   0  0  0  0  0  0  0  0  0  0  0  0
   -0.0460    3.2706    0.0000 H   0  0  0  0  0  0  0  0  0  0  0  0
    1.3830    2.4456    0.0000 H   0  0  0  0  0  0  0  0  0  0  0  0
    1.3830    0.7956    0.0000 H   0  0  0  0  0  0  0  0  0  0  0  0
   -0.0460   -0.0294    0.0000 H   0  0  0  0  0  0  0  0  0  0  0  0
   -2.8550    4.4785    0.0000 H   0  0  0  0  0  0  0  0  0  0  0  0
  1  2  1  0  0  0  0
  2  3  2  0  0  0  0
  2  4  2  0  0  0  0
  2  5  1  0  0  0  0
  5  6  4  0  0  0  0
  6  7  4  0  0  0  0
  7  8  4  0  0  0  0
  8  9  4  0  0  0  0
  9 10  4  0  0  0  0
 10 11  4  0  0  0  0
 11 12  4  0  0  0  0
 12 13  4  0  0  0  0
  8 13  4  0  0  0  0
 13 14  4  0  0  0  0
  5 14  4  0  0  0  0
 10 15  1  0  0  0  0
 15 16  1  0  0  0  0
 16 17  2  0  0  0  0
 16 18  1  0  0  0  0
 18 19  4  0  0  0  0
 19 20  4  0  0  0  0
 20 21  4  0  0  0  0
 21 22  4  0  0  0  0
 22 23  4  0  0  0  0
 18 23  4  0  0  0  0
 23 24  1  0  0  0  0
 15 24  1  0  0  0  0
 24 25  2  0  0  0  0
  7 26  1  0  0  0  0
 26 27  1  0  0  0  0
 26 28  2  0  0  0  0
 26 29  2  0  0  0  0
  1 30  1  0  0  0  0
  6 31  1  0  0  0  0
 11 32  1  0  0  0  0
 12 33  1  0  0  0  0
 14 34  1  0  0  0  0
 15 35  1  0  0  0  0
 19 36  1  0  0  0  0
 20 37  1  0  0  0  0
 21 38  1  0  0  0  0
 22 39  1  0  0  0  0
 27 40  1  0  0  0  0
M  END
>  <InChIKey>
InChI=1S/C18H11NO8S2/c20-17-11-3-1-2-4-12(11)18(21)15(17)13-6-5-9-7-10(28(22,23)24)8-14(16(9)19-13)29(25,26)27/h1-8,15H,(H,22,23,24)(H,25,26,27)

>  <CASRN>
8004-92-0

> <Outcome>
1

>  <Index>
2365

>  <StandardizerResult>
Dearomatize (ID: Dearomatize)
Clear Stereo (ID: ClearStereo)
Wedge Clean (ID: WedgeClean)
Mesomerize (ID: Mesomerize)
Tautomerize (ID: Tautomerize)
Aromatize (ID: Aromatize)
Add Explicit Hydrogens (ID: AddExplicitH)
Neutralize (ID: Neutralize)
Clean 2D (ID: Clean2D)

> <knn Distance>


> <CpId>
2365

$$$$
2369
  Mrv1532301301811342D          

 17 16  0  0  0  0            999 V2000
    2.4745   -1.4298    0.0000 C   0  0  0  0  0  0  0  0  0  0  0  0
    2.0620   -0.7154    0.0000 C   0  0  0  0  0  0  0  0  0  0  0  0
    1.2370   -0.7154    0.0000 C   0  0  0  0  0  0  0  0  0  0  0  0
    0.8245   -0.0009    0.0000 C   0  0  0  0  0  0  0  0  0  0  0  0
   -0.0005   -0.0009    0.0000 C   0  0  0  0  0  0  0  0  0  0  0  0
    1.7600   -1.8423    0.0000 H   0  0  0  0  0  0  0  0  0  0  0  0
    2.8870   -2.1443    0.0000 H   0  0  0  0  0  0  0  0  0  0  0  0
    3.1890   -1.0173    0.0000 H   0  0  0  0  0  0  0  0  0  0  0  0
    2.7513   -0.2620    0.0000 H   0  0  0  0  0  0  0  0  0  0  0  0
    2.1100    0.1082    0.0000 H   0  0  0  0  0  0  0  0  0  0  0  0
    0.5477   -1.1687    0.0000 H   0  0  0  0  0  0  0  0  0  0  0  0
    1.1890   -1.5390    0.0000 H   0  0  0  0  0  0  0  0  0  0  0  0
    1.5138    0.4524    0.0000 H   0  0  0  0  0  0  0  0  0  0  0  0
    0.8725    0.8227    0.0000 H   0  0  0  0  0  0  0  0  0  0  0  0
   -0.0005    0.8241    0.0000 H   0  0  0  0  0  0  0  0  0  0  0  0
   -0.8255   -0.0009    0.0000 H   0  0  0  0  0  0  0  0  0  0  0  0
   -0.0005   -0.8259    0.0000 H   0  0  0  0  0  0  0  0  0  0  0  0
  1  2  1  0  0  0  0
  2  3  1  0  0  0  0
  3  4  1  0  0  0  0
  4  5  1  0  0  0  0
  1  6  1  0  0  0  0
  1  7  1  0  0  0  0
  1  8  1  0  0  0  0
  2  9  1  0  0  0  0
  2 10  1  0  0  0  0
  3 11  1  0  0  0  0
  3 12  1  0  0  0  0
  4 13  1  0  0  0  0
  4 14  1  0  0  0  0
  5 15  1  0  0  0  0
  5 16  1  0  0  0  0
  5 17  1  0  0  0  0
M  END
>  <InChIKey>
InChI=1S/C5H12/c1-3-5-4-2/h3-5H2,1-2H3

>  <CASRN>
109-66-0

> <Outcome>
1

>  <Index>
2369

>  <StandardizerResult>
Clear Stereo (ID: ClearStereo)
Wedge Clean (ID: WedgeClean)
Mesomerize (ID: Mesomerize)
Tautomerize (ID: Tautomerize)
Add Explicit Hydrogens (ID: AddExplicitH)
Neutralize (ID: Neutralize)
Clean 2D (ID: Clean2D)

> <knn Distance>


> <CpId>
2369

$$$$
2370
  Mrv1532301301811342D          

 35 35  0  0  0  0            999 V2000
   -0.0328    3.2270    0.0000 C   0  0  0  0  0  0  0  0  0  0  0  0
   -0.0328    2.4020    0.0000 C   0  0  0  0  0  0  0  0  0  0  0  0
    0.6817    1.9895    0.0000 N   0  0  0  0  0  0  0  0  0  0  0  0
    1.3961    2.4020    0.0000 C   0  0  0  0  0  0  0  0  0  0  0  0
    1.3961    3.2270    0.0000 C   0  0  0  0  0  0  0  0  0  0  0  0
    0.6817    1.1645    0.0000 C   0  0  0  0  0  0  0  0  0  0  0  0
    1.3961    0.7520    0.0000 C   0  0  0  0  0  0  0  0  0  0  0  0
    1.3961   -0.0730    0.0000 C   0  0  0  0  0  0  0  0  0  0  0  0
    0.6817   -0.4855    0.0000 C   0  0  0  0  0  0  0  0  0  0  0  0
   -0.0328   -0.0730    0.0000 C   0  0  0  0  0  0  0  0  0  0  0  0
   -0.7473   -0.4855    0.0000 N   0  0  0  0  0  0  0  0  0  0  0  0
   -0.0328    0.7520    0.0000 C   0  0  0  0  0  0  0  0  0  0  0  0
   -0.7473    1.1645    0.0000 N   0  0  0  0  0  0  0  0  0  0  0  0
   -0.7473    1.9895    0.0000 O   0  0  0  0  0  0  0  0  0  0  0  0
   -1.4617    0.7520    0.0000 O   0  0  0  0  0  0  0  0  0  0  0  0
    0.6817   -1.3105    0.0000 C   0  0  0  0  0  0  0  0  0  0  0  0
    0.6817   -2.1355    0.0000 F   0  0  0  0  0  0  0  0  0  0  0  0
   -0.1433   -1.3105    0.0000 F   0  0  0  0  0  0  0  0  0  0  0  0
    1.5067   -1.3105    0.0000 F   0  0  0  0  0  0  0  0  0  0  0  0
    2.1106    1.1645    0.0000 N   0  0  0  0  0  0  0  0  0  0  0  0
    2.8251    0.7520    0.0000 O   0  0  0  0  0  0  0  0  0  0  0  0
    2.1106    1.9895    0.0000 O   0  0  0  0  0  0  0  0  0  0  0  0
    0.7922    3.2270    0.0000 H   0  0  0  0  0  0  0  0  0  0  0  0
   -0.0328    4.0520    0.0000 H   0  0  0  0  0  0  0  0  0  0  0  0
   -0.8578    3.2270    0.0000 H   0  0  0  0  0  0  0  0  0  0  0  0
   -0.7473    2.8145    0.0000 H   0  0  0  0  0  0  0  0  0  0  0  0
    0.6817    2.8145    0.0000 H   0  0  0  0  0  0  0  0  0  0  0  0
    1.3961    1.5770    0.0000 H   0  0  0  0  0  0  0  0  0  0  0  0
    2.1106    2.8145    0.0000 H   0  0  0  0  0  0  0  0  0  0  0  0
    2.1583    3.5427    0.0000 H   0  0  0  0  0  0  0  0  0  0  0  0
    1.6097    4.0238    0.0000 H   0  0  0  0  0  0  0  0  0  0  0  0
    0.8939    3.8815    0.0000 H   0  0  0  0  0  0  0  0  0  0  0  0
    2.1106   -0.4855    0.0000 H   0  0  0  0  0  0  0  0  0  0  0  0
   -1.4617   -0.0730    0.0000 H   0  0  0  0  0  0  0  0  0  0  0  0
   -0.7473   -1.3105    0.0000 H   0  0  0  0  0  0  0  0  0  0  0  0
  1  2  1  0  0  0  0
  2  3  1  0  0  0  0
  3  4  1  0  0  0  0
  4  5  1  0  0  0  0
  3  6  1  0  0  0  0
  6  7  4  0  0  0  0
  7  8  4  0  0  0  0
  8  9  4  0  0  0  0
  9 10  4  0  0  0  0
 10 11  1  0  0  0  0
 10 12  4  0  0  0  0
  6 12  4  0  0  0  0
 12 13  1  0  0  0  0
 13 14  2  0  0  0  0
 13 15  2  0  0  0  0
  9 16  1  0  0  0  0
 16 17  1  0  0  0  0
 16 18  1  0  0  0  0
 16 19  1  0  0  0  0
  7 20  1  0  0  0  0
 20 21  2  0  0  0  0
 20 22  2  0  0  0  0
  1 23  1  0  0  0  0
  1 24  1  0  0  0  0
  1 25  1  0  0  0  0
  2 26  1  0  0  0  0
  2 27  1  0  0  0  0
  4 28  1  0  0  0  0
  4 29  1  0  0  0  0
  5 30  1  0  0  0  0
  5 31  1  0  0  0  0
  5 32  1  0  0  0  0
  8 33  1  0  0  0  0
 11 34  1  0  0  0  0
 11 35  1  0  0  0  0
M  END
>  <InChIKey>
InChI=1S/C11H13F3N4O4/c1-3-16(4-2)9-7(17(19)20)5-6(11(12,13)14)8(15)10(9)18(21)22/h5H,3-4,15H2,1-2H3

>  <CASRN>
29091-05-2

> <Outcome>
1

>  <Index>
2370

>  <StandardizerResult>
Dearomatize (ID: Dearomatize)
Clear Stereo (ID: ClearStereo)
Wedge Clean (ID: WedgeClean)
Mesomerize (ID: Mesomerize)
Tautomerize (ID: Tautomerize)
Aromatize (ID: Aromatize)
Add Explicit Hydrogens (ID: AddExplicitH)
Neutralize (ID: Neutralize)
Clean 2D (ID: Clean2D)

> <knn Distance>


> <CpId>
2370

$$$$
2375
  Mrv1532301301811342D          

 21 23  0  0  0  0            999 V2000
    0.9130   -0.8764    0.0000 Cl  0  0  0  0  0  0  0  0  0  0  0  0
    1.7200   -1.0480    0.0000 C   0  0  0  0  0  0  0  0  0  0  0  0
    2.2720   -0.4349    0.0000 C   0  0  0  0  0  0  0  0  0  0  0  0
    3.0790   -0.6064    0.0000 C   0  0  0  0  0  0  0  0  0  0  0  0
    3.7464   -0.1215    0.0000 O   0  0  0  0  0  0  0  0  0  0  0  0
    4.4139   -0.6064    0.0000 C   0  0  0  0  0  0  0  0  0  0  0  0
    5.2208   -0.4349    0.0000 C   0  0  0  0  0  0  0  0  0  0  0  0
    5.4758    0.3498    0.0000 Cl  0  0  0  0  0  0  0  0  0  0  0  0
    5.7729   -1.0480    0.0000 C   0  0  0  0  0  0  0  0  0  0  0  0
    6.5798   -0.8764    0.0000 Cl  0  0  0  0  0  0  0  0  0  0  0  0
    5.5179   -1.8326    0.0000 C   0  0  0  0  0  0  0  0  0  0  0  0
    6.0700   -2.4457    0.0000 Cl  0  0  0  0  0  0  0  0  0  0  0  0
    4.7110   -2.0041    0.0000 C   0  0  0  0  0  0  0  0  0  0  0  0
    4.1589   -1.3910    0.0000 C   0  0  0  0  0  0  0  0  0  0  0  0
    3.3339   -1.3910    0.0000 C   0  0  0  0  0  0  0  0  0  0  0  0
    2.7819   -2.0041    0.0000 C   0  0  0  0  0  0  0  0  0  0  0  0
    1.9749   -1.8326    0.0000 C   0  0  0  0  0  0  0  0  0  0  0  0
    1.4229   -2.4457    0.0000 Cl  0  0  0  0  0  0  0  0  0  0  0  0
    2.0171    0.3498    0.0000 H   0  0  0  0  0  0  0  0  0  0  0  0
    4.4560   -2.7887    0.0000 H   0  0  0  0  0  0  0  0  0  0  0  0
    3.0368   -2.7887    0.0000 H   0  0  0  0  0  0  0  0  0  0  0  0
  1  2  1  0  0  0  0
  2  3  4  0  0  0  0
  3  4  4  0  0  0  0
  4  5  4  0  0  0  0
  5  6  4  0  0  0  0
  6  7  4  0  0  0  0
  7  8  1  0  0  0  0
  7  9  4  0  0  0  0
  9 10  1  0  0  0  0
  9 11  4  0  0  0  0
 11 12  1  0  0  0  0
 11 13  4  0  0  0  0
 13 14  4  0  0  0  0
  6 14  4  0  0  0  0
 14 15  4  0  0  0  0
  4 15  4  0  0  0  0
 15 16  4  0  0  0  0
 16 17  4  0  0  0  0
  2 17  4  0  0  0  0
 17 18  1  0  0  0  0
  3 19  1  0  0  0  0
 13 20  1  0  0  0  0
 16 21  1  0  0  0  0
M  END
>  <InChIKey>
InChI=1S/C12H3Cl5O/c13-6-1-4-5-2-8(15)10(16)11(17)12(5)18-9(4)3-7(6)14/h1-3H

>  <CASRN>
57117-31-4

> <Outcome>
1

>  <Index>
2375

>  <StandardizerResult>
Dearomatize (ID: Dearomatize)
Clear Stereo (ID: ClearStereo)
Wedge Clean (ID: WedgeClean)
Mesomerize (ID: Mesomerize)
Tautomerize (ID: Tautomerize)
Aromatize (ID: Aromatize)
Add Explicit Hydrogens (ID: AddExplicitH)
Neutralize (ID: Neutralize)
Clean 2D (ID: Clean2D)

> <knn Distance>


> <CpId>
2375

$$$$
2377
  Mrv1532301301811342D          

119118  0  0  0  0            999 V2000
   -6.3827    5.4209    0.0000 C   0  0  0  0  0  0  0  0  0  0  0  0
   -5.6682    5.8334    0.0000 C   0  0  0  0  0  0  0  0  0  0  0  0
   -4.9537    5.4209    0.0000 C   0  0  0  0  0  0  0  0  0  0  0  0
   -4.2392    5.8334    0.0000 C   0  0  0  0  0  0  0  0  0  0  0  0
   -3.5248    5.4209    0.0000 C   0  0  0  0  0  0  0  0  0  0  0  0
   -2.8103    5.8334    0.0000 C   0  0  0  0  0  0  0  0  0  0  0  0
   -2.0958    5.4209    0.0000 C   0  0  0  0  0  0  0  0  0  0  0  0
   -1.3814    5.8334    0.0000 C   0  0  0  0  0  0  0  0  0  0  0  0
   -0.6669    5.4209    0.0000 C   0  0  0  0  0  0  0  0  0  0  0  0
    0.0476    5.8334    0.0000 C   0  0  0  0  0  0  0  0  0  0  0  0
    0.7621    5.4209    0.0000 C   0  0  0  0  0  0  0  0  0  0  0  0
    1.4765    5.8334    0.0000 C   0  0  0  0  0  0  0  0  0  0  0  0
    2.1910    5.4209    0.0000 C   0  0  0  0  0  0  0  0  0  0  0  0
    2.9055    5.8334    0.0000 C   0  0  0  0  0  0  0  0  0  0  0  0
    3.6199    5.4209    0.0000 C   0  0  0  0  0  0  0  0  0  0  0  0
    4.3344    5.8334    0.0000 C   0  0  0  0  0  0  0  0  0  0  0  0
    5.0489    5.4209    0.0000 C   0  0  0  0  0  0  0  0  0  0  0  0
    5.7634    5.8334    0.0000 C   0  0  0  0  0  0  0  0  0  0  0  0
    6.4778    5.4209    0.0000 N   0  3  0  0  0  0  0  0  0  0  0  0
    6.0653    4.7065    0.0000 C   0  0  0  0  0  0  0  0  0  0  0  0
    6.8903    6.1354    0.0000 C   0  0  0  0  0  0  0  0  0  0  0  0
    7.1923    5.0084    0.0000 C   0  0  0  0  0  0  0  0  0  0  0  0
    7.9068    5.4209    0.0000 C   0  0  0  0  0  0  0  0  0  0  0  0
    8.6212    5.0084    0.0000 C   0  0  0  0  0  0  0  0  0  0  0  0
    9.3357    5.4209    0.0000 C   0  0  0  0  0  0  0  0  0  0  0  0
   10.0502    5.0084    0.0000 C   0  0  0  0  0  0  0  0  0  0  0  0
   10.7647    5.4209    0.0000 C   0  0  0  0  0  0  0  0  0  0  0  0
   11.4791    5.0084    0.0000 C   0  0  0  0  0  0  0  0  0  0  0  0
   12.1936    5.4209    0.0000 C   0  0  0  0  0  0  0  0  0  0  0  0
   12.9081    5.0084    0.0000 C   0  0  0  0  0  0  0  0  0  0  0  0
   13.6225    5.4209    0.0000 C   0  0  0  0  0  0  0  0  0  0  0  0
   14.3370    5.0084    0.0000 C   0  0  0  0  0  0  0  0  0  0  0  0
   15.0515    5.4209    0.0000 C   0  0  0  0  0  0  0  0  0  0  0  0
   15.7659    5.0084    0.0000 C   0  0  0  0  0  0  0  0  0  0  0  0
   16.4804    5.4209    0.0000 C   0  0  0  0  0  0  0  0  0  0  0  0
   17.1949    5.0084    0.0000 C   0  0  0  0  0  0  0  0  0  0  0  0
   17.9094    5.4209    0.0000 C   0  0  0  0  0  0  0  0  0  0  0  0
   18.6238    5.0084    0.0000 C   0  0  0  0  0  0  0  0  0  0  0  0
   19.3383    5.4209    0.0000 C   0  0  0  0  0  0  0  0  0  0  0  0
   -6.7952    6.1354    0.0000 H   0  0  0  0  0  0  0  0  0  0  0  0
   -7.0971    5.0084    0.0000 H   0  0  0  0  0  0  0  0  0  0  0  0
   -5.9702    4.7065    0.0000 H   0  0  0  0  0  0  0  0  0  0  0  0
   -5.2979    6.5707    0.0000 H   0  0  0  0  0  0  0  0  0  0  0  0
   -6.0384    6.5707    0.0000 H   0  0  0  0  0  0  0  0  0  0  0  0
   -5.3240    4.6837    0.0000 H   0  0  0  0  0  0  0  0  0  0  0  0
   -4.5835    4.6837    0.0000 H   0  0  0  0  0  0  0  0  0  0  0  0
   -3.8690    6.5707    0.0000 H   0  0  0  0  0  0  0  0  0  0  0  0
   -4.6095    6.5707    0.0000 H   0  0  0  0  0  0  0  0  0  0  0  0
   -3.8950    4.6837    0.0000 H   0  0  0  0  0  0  0  0  0  0  0  0
   -3.1545    4.6837    0.0000 H   0  0  0  0  0  0  0  0  0  0  0  0
   -2.4400    6.5707    0.0000 H   0  0  0  0  0  0  0  0  0  0  0  0
   -3.1806    6.5707    0.0000 H   0  0  0  0  0  0  0  0  0  0  0  0
   -2.4661    4.6837    0.0000 H   0  0  0  0  0  0  0  0  0  0  0  0
   -1.7256    4.6837    0.0000 H   0  0  0  0  0  0  0  0  0  0  0  0
   -1.0111    6.5707    0.0000 H   0  0  0  0  0  0  0  0  0  0  0  0
   -1.7516    6.5707    0.0000 H   0  0  0  0  0  0  0  0  0  0  0  0
   -1.0371    4.6837    0.0000 H   0  0  0  0  0  0  0  0  0  0  0  0
   -0.2966    4.6837    0.0000 H   0  0  0  0  0  0  0  0  0  0  0  0
    0.4178    6.5707    0.0000 H   0  0  0  0  0  0  0  0  0  0  0  0
   -0.3227    6.5707    0.0000 H   0  0  0  0  0  0  0  0  0  0  0  0
    0.3918    4.6837    0.0000 H   0  0  0  0  0  0  0  0  0  0  0  0
    1.1323    4.6837    0.0000 H   0  0  0  0  0  0  0  0  0  0  0  0
    1.8468    6.5707    0.0000 H   0  0  0  0  0  0  0  0  0  0  0  0
    1.1063    6.5707    0.0000 H   0  0  0  0  0  0  0  0  0  0  0  0
    1.8207    4.6837    0.0000 H   0  0  0  0  0  0  0  0  0  0  0  0
    2.5613    4.6837    0.0000 H   0  0  0  0  0  0  0  0  0  0  0  0
    3.2757    6.5707    0.0000 H   0  0  0  0  0  0  0  0  0  0  0  0
    2.5352    6.5707    0.0000 H   0  0  0  0  0  0  0  0  0  0  0  0
    3.2497    4.6837    0.0000 H   0  0  0  0  0  0  0  0  0  0  0  0
    3.9902    4.6837    0.0000 H   0  0  0  0  0  0  0  0  0  0  0  0
    4.7047    6.5707    0.0000 H   0  0  0  0  0  0  0  0  0  0  0  0
    3.9642    6.5707    0.0000 H   0  0  0  0  0  0  0  0  0  0  0  0
    4.6786    4.6837    0.0000 H   0  0  0  0  0  0  0  0  0  0  0  0
    5.4191    4.6837    0.0000 H   0  0  0  0  0  0  0  0  0  0  0  0
    6.1336    6.5707    0.0000 H   0  0  0  0  0  0  0  0  0  0  0  0
    5.3931    6.5707    0.0000 H   0  0  0  0  0  0  0  0  0  0  0  0
    5.6718    3.9813    0.0000 H   0  0  0  0  0  0  0  0  0  0  0  0
    6.4903    3.9994    0.0000 H   0  0  0  0  0  0  0  0  0  0  0  0
    6.8903    4.7137    0.0000 H   0  0  0  0  0  0  0  0  0  0  0  0
    7.3928    5.4811    0.0000 H   0  0  0  0  0  0  0  0  0  0  0  0
    7.6870    6.3496    0.0000 H   0  0  0  0  0  0  0  0  0  0  0  0
    6.9970    6.9535    0.0000 H   0  0  0  0  0  0  0  0  0  0  0  0
    7.3289    4.1948    0.0000 H   0  0  0  0  0  0  0  0  0  0  0  0
    7.9386    4.6567    0.0000 H   0  0  0  0  0  0  0  0  0  0  0  0
    8.7057    5.6266    0.0000 H   0  0  0  0  0  0  0  0  0  0  0  0
    8.3332    6.1272    0.0000 H   0  0  0  0  0  0  0  0  0  0  0  0
    8.7407    4.1921    0.0000 H   0  0  0  0  0  0  0  0  0  0  0  0
    9.2432    4.4665    0.0000 H   0  0  0  0  0  0  0  0  0  0  0  0
    9.9228    6.0006    0.0000 H   0  0  0  0  0  0  0  0  0  0  0  0
    9.3748    6.2450    0.0000 H   0  0  0  0  0  0  0  0  0  0  0  0
    9.6799    4.2712    0.0000 H   0  0  0  0  0  0  0  0  0  0  0  0
   10.4204    4.2712    0.0000 H   0  0  0  0  0  0  0  0  0  0  0  0
   11.1349    6.1582    0.0000 H   0  0  0  0  0  0  0  0  0  0  0  0
   10.3944    6.1582    0.0000 H   0  0  0  0  0  0  0  0  0  0  0  0
   11.1089    4.2712    0.0000 H   0  0  0  0  0  0  0  0  0  0  0  0
   11.8494    4.2712    0.0000 H   0  0  0  0  0  0  0  0  0  0  0  0
   12.5639    6.1582    0.0000 H   0  0  0  0  0  0  0  0  0  0  0  0
   11.8233    6.1582    0.0000 H   0  0  0  0  0  0  0  0  0  0  0  0
   12.5378    4.2712    0.0000 H   0  0  0  0  0  0  0  0  0  0  0  0
   13.2783    4.2712    0.0000 H   0  0  0  0  0  0  0  0  0  0  0  0
   13.9928    6.1582    0.0000 H   0  0  0  0  0  0  0  0  0  0  0  0
   13.2523    6.1582    0.0000 H   0  0  0  0  0  0  0  0  0  0  0  0
   13.9667    4.2712    0.0000 H   0  0  0  0  0  0  0  0  0  0  0  0
   14.7073    4.2712    0.0000 H   0  0  0  0  0  0  0  0  0  0  0  0
   15.4217    6.1582    0.0000 H   0  0  0  0  0  0  0  0  0  0  0  0
   14.6812    6.1582    0.0000 H   0  0  0  0  0  0  0  0  0  0  0  0
   15.3957    4.2712    0.0000 H   0  0  0  0  0  0  0  0  0  0  0  0
   16.1362    4.2712    0.0000 H   0  0  0  0  0  0  0  0  0  0  0  0
   16.8507    6.1582    0.0000 H   0  0  0  0  0  0  0  0  0  0  0  0
   16.1102    6.1582    0.0000 H   0  0  0  0  0  0  0  0  0  0  0  0
   16.8246    4.2712    0.0000 H   0  0  0  0  0  0  0  0  0  0  0  0
   17.5651    4.2712    0.0000 H   0  0  0  0  0  0  0  0  0  0  0  0
   18.2796    6.1582    0.0000 H   0  0  0  0  0  0  0  0  0  0  0  0
   17.5391    6.1582    0.0000 H   0  0  0  0  0  0  0  0  0  0  0  0
   18.2536    4.2712    0.0000 H   0  0  0  0  0  0  0  0  0  0  0  0
   18.9941    4.2712    0.0000 H   0  0  0  0  0  0  0  0  0  0  0  0
   19.7508    4.7065    0.0000 H   0  0  0  0  0  0  0  0  0  0  0  0
   20.0528    5.8334    0.0000 H   0  0  0  0  0  0  0  0  0  0  0  0
   18.9258    6.1354    0.0000 H   0  0  0  0  0  0  0  0  0  0  0  0
  1  2  1  0  0  0  0
  2  3  1  0  0  0  0
  3  4  1  0  0  0  0
  4  5  1  0  0  0  0
  5  6  1  0  0  0  0
  6  7  1  0  0  0  0
  7  8  1  0  0  0  0
  8  9  1  0  0  0  0
  9 10  1  0  0  0  0
 10 11  1  0  0  0  0
 11 12  1  0  0  0  0
 12 13  1  0  0  0  0
 13 14  1  0  0  0  0
 14 15  1  0  0  0  0
 15 16  1  0  0  0  0
 16 17  1  0  0  0  0
 17 18  1  0  0  0  0
 18 19  1  0  0  0  0
 19 20  1  0  0  0  0
 19 21  1  0  0  0  0
 19 22  1  0  0  0  0
 22 23  1  0  0  0  0
 23 24  1  0  0  0  0
 24 25  1  0  0  0  0
 25 26  1  0  0  0  0
 26 27  1  0  0  0  0
 27 28  1  0  0  0  0
 28 29  1  0  0  0  0
 29 30  1  0  0  0  0
 30 31  1  0  0  0  0
 31 32  1  0  0  0  0
 32 33  1  0  0  0  0
 33 34  1  0  0  0  0
 34 35  1  0  0  0  0
 35 36  1  0  0  0  0
 36 37  1  0  0  0  0
 37 38  1  0  0  0  0
 38 39  1  0  0  0  0
  1 40  1  0  0  0  0
  1 41  1  0  0  0  0
  1 42  1  0  0  0  0
  2 43  1  0  0  0  0
  2 44  1  0  0  0  0
  3 45  1  0  0  0  0
  3 46  1  0  0  0  0
  4 47  1  0  0  0  0
  4 48  1  0  0  0  0
  5 49  1  0  0  0  0
  5 50  1  0  0  0  0
  6 51  1  0  0  0  0
  6 52  1  0  0  0  0
  7 53  1  0  0  0  0
  7 54  1  0  0  0  0
  8 55  1  0  0  0  0
  8 56  1  0  0  0  0
  9 57  1  0  0  0  0
  9 58  1  0  0  0  0
 10 59  1  0  0  0  0
 10 60  1  0  0  0  0
 11 61  1  0  0  0  0
 11 62  1  0  0  0  0
 12 63  1  0  0  0  0
 12 64  1  0  0  0  0
 13 65  1  0  0  0  0
 13 66  1  0  0  0  0
 14 67  1  0  0  0  0
 14 68  1  0  0  0  0
 15 69  1  0  0  0  0
 15 70  1  0  0  0  0
 16 71  1  0  0  0  0
 16 72  1  0  0  0  0
 17 73  1  0  0  0  0
 17 74  1  0  0  0  0
 18 75  1  0  0  0  0
 18 76  1  0  0  0  0
 20 77  1  0  0  0  0
 20 78  1  0  0  0  0
 20 79  1  0  0  0  0
 21 80  1  0  0  0  0
 21 81  1  0  0  0  0
 21 82  1  0  0  0  0
 22 83  1  0  0  0  0
 22 84  1  0  0  0  0
 23 85  1  0  0  0  0
 23 86  1  0  0  0  0
 24 87  1  0  0  0  0
 24 88  1  0  0  0  0
 25 89  1  0  0  0  0
 25 90  1  0  0  0  0
 26 91  1  0  0  0  0
 26 92  1  0  0  0  0
 27 93  1  0  0  0  0
 27 94  1  0  0  0  0
 28 95  1  0  0  0  0
 28 96  1  0  0  0  0
 29 97  1  0  0  0  0
 29 98  1  0  0  0  0
 30 99  1  0  0  0  0
 30100  1  0  0  0  0
 31101  1  0  0  0  0
 31102  1  0  0  0  0
 32103  1  0  0  0  0
 32104  1  0  0  0  0
 33105  1  0  0  0  0
 33106  1  0  0  0  0
 34107  1  0  0  0  0
 34108  1  0  0  0  0
 35109  1  0  0  0  0
 35110  1  0  0  0  0
 36111  1  0  0  0  0
 36112  1  0  0  0  0
 37113  1  0  0  0  0
 37114  1  0  0  0  0
 38115  1  0  0  0  0
 38116  1  0  0  0  0
 39117  1  0  0  0  0
 39118  1  0  0  0  0
 39119  1  0  0  0  0
M  CHG  1  19   1
M  END
>  <InChIKey>
InChI=1S/C38H80N/c1-5-7-9-11-13-15-17-19-21-23-25-27-29-31-33-35-37-39(3,4)38-36-34-32-30-28-26-24-22-20-18-16-14-12-10-8-6-2/h5-38H2,1-4H3/q+1

>  <UN GHS>
1

>  <CASRN>
107-64-2

> <Outcome>
1

>  <Index>
2377

>  <StandardizerResult>
Clear Stereo (ID: ClearStereo)
Wedge Clean (ID: WedgeClean)
Mesomerize (ID: Mesomerize)
Tautomerize (ID: Tautomerize)
Add Explicit Hydrogens (ID: AddExplicitH)
Clean 2D (ID: Clean2D)

> <knn Distance>


> <CpId>
2377

$$$$
2379
  Mrv1532301301811342D          

 12 11  0  0  0  0            999 V2000
    1.2375    2.1434    0.0000 N   0  0  0  0  0  0  0  0  0  0  0  0
    0.8250    1.4289    0.0000 C   0  0  0  0  0  0  0  0  0  0  0  0
   -0.0000    1.4289    0.0000 O   0  0  0  0  0  0  0  0  0  0  0  0
    1.2375    0.7145    0.0000 N   0  0  0  0  0  0  0  0  0  0  0  0
    0.8250   -0.0000    0.0000 C   0  0  0  0  0  0  0  0  0  0  0  0
    1.2375   -0.7145    0.0000 N   0  0  0  0  0  0  0  0  0  0  0  0
   -0.0000   -0.0000    0.0000 O   0  0  0  0  0  0  0  0  0  0  0  0
    2.0625    2.1434    0.0000 H   0  0  0  0  0  0  0  0  0  0  0  0
    0.8250    2.8579    0.0000 H   0  0  0  0  0  0  0  0  0  0  0  0
    2.0625    0.7145    0.0000 H   0  0  0  0  0  0  0  0  0  0  0  0
    0.8250   -1.4290    0.0000 H   0  0  0  0  0  0  0  0  0  0  0  0
    2.0625   -0.7145    0.0000 H   0  0  0  0  0  0  0  0  0  0  0  0
  1  2  1  0  0  0  0
  2  3  2  0  0  0  0
  2  4  1  0  0  0  0
  4  5  1  0  0  0  0
  5  6  1  0  0  0  0
  5  7  2  0  0  0  0
  1  8  1  0  0  0  0
  1  9  1  0  0  0  0
  4 10  1  0  0  0  0
  6 11  1  0  0  0  0
  6 12  1  0  0  0  0
M  END
>  <InChIKey>
InChI=1S/C2H5N3O2/c3-1(6)5-2(4)7/h(H5,3,4,5,6,7)

>  <CASRN>
108-19-0

> <Outcome>
1

>  <Index>
2379

>  <StandardizerResult>
Clear Stereo (ID: ClearStereo)
Wedge Clean (ID: WedgeClean)
Mesomerize (ID: Mesomerize)
Tautomerize (ID: Tautomerize)
Add Explicit Hydrogens (ID: AddExplicitH)
Neutralize (ID: Neutralize)
Clean 2D (ID: Clean2D)

> <knn Distance>


> <CpId>
2379

$$$$
2381
  Mrv1532301301811342D          

 12 11  0  0  0  0            999 V2000
    2.0618   -0.7157    0.0000 C   0  0  0  0  0  0  0  0  0  0  0  0
    1.2368   -0.7157    0.0000 C   0  0  0  0  0  0  0  0  0  0  0  0
    0.8243   -1.4302    0.0000 C   0  0  0  0  0  0  0  0  0  0  0  0
    0.8243   -0.0013    0.0000 C   0  0  0  0  0  0  0  0  0  0  0  0
   -0.0007   -0.0013    0.0000 Cl  0  0  0  0  0  0  0  0  0  0  0  0
    2.0618   -1.5407    0.0000 H   0  0  0  0  0  0  0  0  0  0  0  0
    2.8868   -0.7157    0.0000 H   0  0  0  0  0  0  0  0  0  0  0  0
    2.0618    0.1093    0.0000 H   0  0  0  0  0  0  0  0  0  0  0  0
   -0.0007   -1.4302    0.0000 H   0  0  0  0  0  0  0  0  0  0  0  0
    1.2368   -2.1447    0.0000 H   0  0  0  0  0  0  0  0  0  0  0  0
    1.5135    0.4521    0.0000 H   0  0  0  0  0  0  0  0  0  0  0  0
    0.8722    0.8223    0.0000 H   0  0  0  0  0  0  0  0  0  0  0  0
  1  2  1  0  0  0  0
  2  3  2  0  0  0  0
  2  4  1  0  0  0  0
  4  5  1  0  0  0  0
  1  6  1  0  0  0  0
  1  7  1  0  0  0  0
  1  8  1  0  0  0  0
  3  9  1  0  0  0  0
  3 10  1  0  0  0  0
  4 11  1  0  0  0  0
  4 12  1  0  0  0  0
M  END
>  <InChIKey>
InChI=1S/C4H7Cl/c1-4(2)3-5/h1,3H2,2H3

>  <CASRN>
563-47-3

> <Outcome>
1

>  <Index>
2381

>  <StandardizerResult>
Clear Stereo (ID: ClearStereo)
Wedge Clean (ID: WedgeClean)
Mesomerize (ID: Mesomerize)
Tautomerize (ID: Tautomerize)
Add Explicit Hydrogens (ID: AddExplicitH)
Neutralize (ID: Neutralize)
Clean 2D (ID: Clean2D)

> <knn Distance>


> <CpId>
2381

$$$$
2382
  Mrv1532301301811342D          

 18 17  0  0  0  0            999 V2000
    1.7605    1.8434    0.0000 C   0  0  0  0  0  0  0  0  0  0  0  0
    2.4750    1.4309    0.0000 C   0  0  0  0  0  0  0  0  0  0  0  0
    3.1895    1.8434    0.0000 O   0  0  0  0  0  0  0  0  0  0  0  0
    3.9039    1.4309    0.0000 C   0  0  0  0  0  0  0  0  0  0  0  0
    3.9039    0.6059    0.0000 O   0  0  0  0  0  0  0  0  0  0  0  0
    4.6184    1.8434    0.0000 O   0  0  0  0  0  0  0  0  0  0  0  0
    5.3329    1.4309    0.0000 C   0  0  0  0  0  0  0  0  0  0  0  0
    6.0474    1.8434    0.0000 C   0  0  0  0  0  0  0  0  0  0  0  0
    2.1730    2.5578    0.0000 H   0  0  0  0  0  0  0  0  0  0  0  0
    1.0461    2.2559    0.0000 H   0  0  0  0  0  0  0  0  0  0  0  0
    1.3480    1.1289    0.0000 H   0  0  0  0  0  0  0  0  0  0  0  0
    2.1047    0.6936    0.0000 H   0  0  0  0  0  0  0  0  0  0  0  0
    2.8453    0.6936    0.0000 H   0  0  0  0  0  0  0  0  0  0  0  0
    4.9626    0.6936    0.0000 H   0  0  0  0  0  0  0  0  0  0  0  0
    5.7031    0.6936    0.0000 H   0  0  0  0  0  0  0  0  0  0  0  0
    6.4599    1.1289    0.0000 H   0  0  0  0  0  0  0  0  0  0  0  0
    6.7618    2.2559    0.0000 H   0  0  0  0  0  0  0  0  0  0  0  0
    5.6349    2.5578    0.0000 H   0  0  0  0  0  0  0  0  0  0  0  0
  1  2  1  0  0  0  0
  2  3  1  0  0  0  0
  3  4  1  0  0  0  0
  4  5  2  0  0  0  0
  4  6  1  0  0  0  0
  6  7  1  0  0  0  0
  7  8  1  0  0  0  0
  1  9  1  0  0  0  0
  1 10  1  0  0  0  0
  1 11  1  0  0  0  0
  2 12  1  0  0  0  0
  2 13  1  0  0  0  0
  7 14  1  0  0  0  0
  7 15  1  0  0  0  0
  8 16  1  0  0  0  0
  8 17  1  0  0  0  0
  8 18  1  0  0  0  0
M  END
>  <InChIKey>
InChI=1S/C5H10O3/c1-3-7-5(6)8-4-2/h3-4H2,1-2H3

>  <CASRN>
105-58-8

> <Outcome>
1

>  <Index>
2382

>  <StandardizerResult>
Clear Stereo (ID: ClearStereo)
Wedge Clean (ID: WedgeClean)
Mesomerize (ID: Mesomerize)
Tautomerize (ID: Tautomerize)
Add Explicit Hydrogens (ID: AddExplicitH)
Neutralize (ID: Neutralize)
Clean 2D (ID: Clean2D)

> <knn Distance>


> <CpId>
2382

$$$$
2384
  Mrv1532301301811342D          

 28 28  0  0  0  0            999 V2000
   -0.6602    3.7473    0.0000 C   0  0  0  0  0  0  0  0  0  0  0  0
    0.0542    3.3348    0.0000 C   0  0  0  0  0  0  0  0  0  0  0  0
    0.7687    3.7473    0.0000 C   0  0  0  0  0  0  0  0  0  0  0  0
    0.0542    2.5098    0.0000 C   0  0  0  0  0  0  0  0  0  0  0  0
   -0.6602    2.0973    0.0000 O   0  0  0  0  0  0  0  0  0  0  0  0
    0.7687    2.0973    0.0000 O   0  0  0  0  0  0  0  0  0  0  0  0
    0.7687    1.2723    0.0000 C   0  0  0  0  0  0  0  0  0  0  0  0
    1.4832    0.8598    0.0000 C   0  0  0  0  0  0  0  0  0  0  0  0
    1.4832    0.0348    0.0000 C   0  0  0  0  0  0  0  0  0  0  0  0
    0.7687   -0.3777    0.0000 C   0  0  0  0  0  0  0  0  0  0  0  0
    0.0542    0.0348    0.0000 C   0  0  0  0  0  0  0  0  0  0  0  0
    0.0542    0.8598    0.0000 C   0  0  0  0  0  0  0  0  0  0  0  0
   -0.2477    4.4618    0.0000 H   0  0  0  0  0  0  0  0  0  0  0  0
   -1.3747    4.1598    0.0000 H   0  0  0  0  0  0  0  0  0  0  0  0
   -1.0727    3.0328    0.0000 H   0  0  0  0  0  0  0  0  0  0  0  0
    1.4832    3.3348    0.0000 H   0  0  0  0  0  0  0  0  0  0  0  0
    0.7687    4.5723    0.0000 H   0  0  0  0  0  0  0  0  0  0  0  0
    0.0542    1.6848    0.0000 H   0  0  0  0  0  0  0  0  0  0  0  0
    2.3068    0.9078    0.0000 H   0  0  0  0  0  0  0  0  0  0  0  0
    1.9365    1.5491    0.0000 H   0  0  0  0  0  0  0  0  0  0  0  0
    1.9365   -0.6545    0.0000 H   0  0  0  0  0  0  0  0  0  0  0  0
    2.3068   -0.0132    0.0000 H   0  0  0  0  0  0  0  0  0  0  0  0
    0.3984   -1.1149    0.0000 H   0  0  0  0  0  0  0  0  0  0  0  0
    1.1390   -1.1149    0.0000 H   0  0  0  0  0  0  0  0  0  0  0  0
   -0.7694   -0.0132    0.0000 H   0  0  0  0  0  0  0  0  0  0  0  0
   -0.3991   -0.6545    0.0000 H   0  0  0  0  0  0  0  0  0  0  0  0
   -0.7210    1.1420    0.0000 H   0  0  0  0  0  0  0  0  0  0  0  0
   -0.7210    0.5776    0.0000 H   0  0  0  0  0  0  0  0  0  0  0  0
  1  2  1  0  0  0  0
  2  3  2  0  0  0  0
  2  4  1  0  0  0  0
  4  5  2  0  0  0  0
  4  6  1  0  0  0  0
  6  7  1  0  0  0  0
  7  8  1  0  0  0  0
  8  9  1  0  0  0  0
  9 10  1  0  0  0  0
 10 11  1  0  0  0  0
 11 12  1  0  0  0  0
  7 12  1  0  0  0  0
  1 13  1  0  0  0  0
  1 14  1  0  0  0  0
  1 15  1  0  0  0  0
  3 16  1  0  0  0  0
  3 17  1  0  0  0  0
  7 18  1  0  0  0  0
  8 19  1  0  0  0  0
  8 20  1  0  0  0  0
  9 21  1  0  0  0  0
  9 22  1  0  0  0  0
 10 23  1  0  0  0  0
 10 24  1  0  0  0  0
 11 25  1  0  0  0  0
 11 26  1  0  0  0  0
 12 27  1  0  0  0  0
 12 28  1  0  0  0  0
M  END
>  <InChIKey>
InChI=1S/C10H16O2/c1-8(2)10(11)12-9-6-4-3-5-7-9/h9H,1,3-7H2,2H3

>  <CASRN>
101-43-9

> <Outcome>
1

>  <Index>
2384

>  <StandardizerResult>
Clear Stereo (ID: ClearStereo)
Wedge Clean (ID: WedgeClean)
Mesomerize (ID: Mesomerize)
Tautomerize (ID: Tautomerize)
Add Explicit Hydrogens (ID: AddExplicitH)
Neutralize (ID: Neutralize)
Clean 2D (ID: Clean2D)

> <knn Distance>


> <CpId>
2384

$$$$
2390
  Mrv1532301301811342D          

 16 16  0  0  0  0            999 V2000
   -0.0000    3.3000    0.0000 O   0  0  0  0  0  0  0  0  0  0  0  0
   -0.0000    2.4750    0.0000 C   0  0  0  0  0  0  0  0  0  0  0  0
    0.7145    2.0625    0.0000 C   0  0  0  0  0  0  0  0  0  0  0  0
    1.4289    2.4750    0.0000 O   0  0  0  0  0  0  0  0  0  0  0  0
    0.7145    1.2375    0.0000 C   0  0  0  0  0  0  0  0  0  0  0  0
    1.4289    0.8250    0.0000 C   0  0  0  0  0  0  0  0  0  0  0  0
    1.4289   -0.0000    0.0000 C   0  0  0  0  0  0  0  0  0  0  0  0
    0.7145   -0.4125    0.0000 C   0  0  0  0  0  0  0  0  0  0  0  0
   -0.0000   -0.0000    0.0000 C   0  0  0  0  0  0  0  0  0  0  0  0
   -0.0000    0.8250    0.0000 C   0  0  0  0  0  0  0  0  0  0  0  0
   -0.7145    2.0625    0.0000 H   0  0  0  0  0  0  0  0  0  0  0  0
    2.1434    1.2375    0.0000 H   0  0  0  0  0  0  0  0  0  0  0  0
    2.1434   -0.4125    0.0000 H   0  0  0  0  0  0  0  0  0  0  0  0
    0.7145   -1.2375    0.0000 H   0  0  0  0  0  0  0  0  0  0  0  0
   -0.7145   -0.4125    0.0000 H   0  0  0  0  0  0  0  0  0  0  0  0
   -0.7145    1.2375    0.0000 H   0  0  0  0  0  0  0  0  0  0  0  0
  1  2  2  0  0  0  0
  2  3  1  0  0  0  0
  3  4  2  0  0  0  0
  3  5  1  0  0  0  0
  5  6  4  0  0  0  0
  6  7  4  0  0  0  0
  7  8  4  0  0  0  0
  8  9  4  0  0  0  0
  9 10  4  0  0  0  0
  5 10  4  0  0  0  0
  2 11  1  0  0  0  0
  6 12  1  0  0  0  0
  7 13  1  0  0  0  0
  8 14  1  0  0  0  0
  9 15  1  0  0  0  0
 10 16  1  0  0  0  0
M  END
>  <InChIKey>
InChI=1S/C8H6O2/c9-6-8(10)7-4-2-1-3-5-7/h1-6H

>  <CASRN>
1074-12-0

> <Outcome>
1

>  <Index>
2390

>  <StandardizerResult>
Dearomatize (ID: Dearomatize)
Clear Stereo (ID: ClearStereo)
Wedge Clean (ID: WedgeClean)
Mesomerize (ID: Mesomerize)
Tautomerize (ID: Tautomerize)
Aromatize (ID: Aromatize)
Add Explicit Hydrogens (ID: AddExplicitH)
Neutralize (ID: Neutralize)
Clean 2D (ID: Clean2D)

> <knn Distance>


> <CpId>
2390

$$$$
2394
  Mrv1532301301811342D          

 34 34  0  0  0  0            999 V2000
    1.4719   -4.1359    0.0000 C   0  0  0  0  0  0  0  0  0  0  0  0
    2.1864   -3.7234    0.0000 C   0  0  0  0  0  0  0  0  0  0  0  0
    2.9008   -4.1359    0.0000 C   0  0  0  0  0  0  0  0  0  0  0  0
    3.6153   -3.7234    0.0000 C   0  0  0  0  0  0  0  0  0  0  0  0
    4.3298   -4.1359    0.0000 O   0  0  0  0  0  0  0  0  0  0  0  0
    5.0442   -3.7234    0.0000 C   0  0  0  0  0  0  0  0  0  0  0  0
    5.0442   -2.8984    0.0000 O   0  0  0  0  0  0  0  0  0  0  0  0
    5.7587   -4.1359    0.0000 C   0  0  0  0  0  0  0  0  0  0  0  0
    6.4732   -3.7234    0.0000 C   0  0  0  0  0  0  0  0  0  0  0  0
    7.1877   -4.1359    0.0000 C   0  0  0  0  0  0  0  0  0  0  0  0
    7.9021   -3.7234    0.0000 O   0  0  0  0  0  0  0  0  0  0  0  0
    7.1877   -4.9609    0.0000 C   0  0  0  0  0  0  0  0  0  0  0  0
    6.4732   -5.3734    0.0000 C   0  0  0  0  0  0  0  0  0  0  0  0
    7.0035   -6.0054    0.0000 C   0  0  0  0  0  0  0  0  0  0  0  0
    5.9429   -6.0054    0.0000 C   0  0  0  0  0  0  0  0  0  0  0  0
    5.7587   -4.9609    0.0000 O   0  0  0  0  0  0  0  0  0  0  0  0
    1.0594   -3.4214    0.0000 H   0  0  0  0  0  0  0  0  0  0  0  0
    0.7574   -4.5484    0.0000 H   0  0  0  0  0  0  0  0  0  0  0  0
    1.8844   -4.8504    0.0000 H   0  0  0  0  0  0  0  0  0  0  0  0
    2.5566   -2.9861    0.0000 H   0  0  0  0  0  0  0  0  0  0  0  0
    1.8161   -2.9861    0.0000 H   0  0  0  0  0  0  0  0  0  0  0  0
    2.5306   -4.8731    0.0000 H   0  0  0  0  0  0  0  0  0  0  0  0
    3.2711   -4.8731    0.0000 H   0  0  0  0  0  0  0  0  0  0  0  0
    3.9856   -2.9861    0.0000 H   0  0  0  0  0  0  0  0  0  0  0  0
    3.2450   -2.9861    0.0000 H   0  0  0  0  0  0  0  0  0  0  0  0
    6.4732   -2.8984    0.0000 H   0  0  0  0  0  0  0  0  0  0  0  0
    7.6410   -5.6502    0.0000 H   0  0  0  0  0  0  0  0  0  0  0  0
    8.0113   -5.0089    0.0000 H   0  0  0  0  0  0  0  0  0  0  0  0
    6.2058   -6.2159    0.0000 H   0  0  0  0  0  0  0  0  0  0  0  0
    6.8540   -6.8167    0.0000 H   0  0  0  0  0  0  0  0  0  0  0  0
    7.6738   -6.4863    0.0000 H   0  0  0  0  0  0  0  0  0  0  0  0
    5.5577   -5.2758    0.0000 H   0  0  0  0  0  0  0  0  0  0  0  0
    5.1219   -6.0867    0.0000 H   0  0  0  0  0  0  0  0  0  0  0  0
    5.7084   -6.7964    0.0000 H   0  0  0  0  0  0  0  0  0  0  0  0
  1  2  1  0  0  0  0
  2  3  1  0  0  0  0
  3  4  1  0  0  0  0
  4  5  1  0  0  0  0
  5  6  1  0  0  0  0
  6  7  2  0  0  0  0
  6  8  1  0  0  0  0
  8  9  2  0  0  0  0
  9 10  1  0  0  0  0
 10 11  2  0  0  0  0
 10 12  1  0  0  0  0
 12 13  1  0  0  0  0
 13 14  1  0  0  0  0
 13 15  1  0  0  0  0
 13 16  1  0  0  0  0
  8 16  1  0  0  0  0
  1 17  1  0  0  0  0
  1 18  1  0  0  0  0
  1 19  1  0  0  0  0
  2 20  1  0  0  0  0
  2 21  1  0  0  0  0
  3 22  1  0  0  0  0
  3 23  1  0  0  0  0
  4 24  1  0  0  0  0
  4 25  1  0  0  0  0
  9 26  1  0  0  0  0
 12 27  1  0  0  0  0
 12 28  1  0  0  0  0
 14 29  1  0  0  0  0
 14 30  1  0  0  0  0
 14 31  1  0  0  0  0
 15 32  1  0  0  0  0
 15 33  1  0  0  0  0
 15 34  1  0  0  0  0
M  END
>  <InChIKey>
InChI=1S/C12H18O4/c1-4-5-6-15-11(14)10-7-9(13)8-12(2,3)16-10/h7H,4-6,8H2,1-3H3

>  <CASRN>
532-34-3

> <Outcome>
1

>  <Index>
2394

>  <StandardizerResult>
Clear Stereo (ID: ClearStereo)
Wedge Clean (ID: WedgeClean)
Mesomerize (ID: Mesomerize)
Tautomerize (ID: Tautomerize)
Add Explicit Hydrogens (ID: AddExplicitH)
Neutralize (ID: Neutralize)
Clean 2D (ID: Clean2D)

> <knn Distance>


> <CpId>
2394

$$$$
2396
  Mrv1532301301811342D          

 34 33  0  0  0  0            999 V2000
    2.9095    0.9191    0.0000 C   0  0  0  0  0  0  0  0  0  0  0  0
    3.7197    0.7632    0.0000 C   0  0  0  0  0  0  0  0  0  0  0  0
    4.2598    1.3868    0.0000 C   0  0  0  0  0  0  0  0  0  0  0  0
    5.0699    1.2309    0.0000 S   0  0  0  0  0  0  0  0  0  0  0  0
    5.6100    1.8545    0.0000 C   0  0  0  0  0  0  0  0  0  0  0  0
    5.3400    2.6341    0.0000 O   0  0  0  0  0  0  0  0  0  0  0  0
    6.4201    1.6986    0.0000 N   0  0  0  0  0  0  0  0  0  0  0  0
    6.9602    2.3223    0.0000 C   0  0  0  0  0  0  0  0  0  0  0  0
    7.7704    2.1664    0.0000 C   0  0  0  0  0  0  0  0  0  0  0  0
    8.3104    2.7900    0.0000 C   0  0  0  0  0  0  0  0  0  0  0  0
    6.6902    0.9191    0.0000 C   0  0  0  0  0  0  0  0  0  0  0  0
    7.5003    0.7632    0.0000 C   0  0  0  0  0  0  0  0  0  0  0  0
    7.7704   -0.0164    0.0000 C   0  0  0  0  0  0  0  0  0  0  0  0
    3.0655    1.7292    0.0000 H   0  0  0  0  0  0  0  0  0  0  0  0
    2.0994    1.0750    0.0000 H   0  0  0  0  0  0  0  0  0  0  0  0
    2.7536    0.1089    0.0000 H   0  0  0  0  0  0  0  0  0  0  0  0
    3.6111   -0.0547    0.0000 H   0  0  0  0  0  0  0  0  0  0  0  0
    4.3109    0.1877    0.0000 H   0  0  0  0  0  0  0  0  0  0  0  0
    4.3683    2.2046    0.0000 H   0  0  0  0  0  0  0  0  0  0  0  0
    3.6686    1.9623    0.0000 H   0  0  0  0  0  0  0  0  0  0  0  0
    7.0688    3.1401    0.0000 H   0  0  0  0  0  0  0  0  0  0  0  0
    6.3690    2.8977    0.0000 H   0  0  0  0  0  0  0  0  0  0  0  0
    7.6618    1.3485    0.0000 H   0  0  0  0  0  0  0  0  0  0  0  0
    8.3615    1.5909    0.0000 H   0  0  0  0  0  0  0  0  0  0  0  0
    8.9341    2.2499    0.0000 H   0  0  0  0  0  0  0  0  0  0  0  0
    8.8505    3.4136    0.0000 H   0  0  0  0  0  0  0  0  0  0  0  0
    7.6868    3.3301    0.0000 H   0  0  0  0  0  0  0  0  0  0  0  0
    5.9276    0.6042    0.0000 H   0  0  0  0  0  0  0  0  0  0  0  0
    6.4874    0.1194    0.0000 H   0  0  0  0  0  0  0  0  0  0  0  0
    8.3249    0.7897    0.0000 H   0  0  0  0  0  0  0  0  0  0  0  0
    6.9602    0.1395    0.0000 H   0  0  0  0  0  0  0  0  0  0  0  0
    7.4101   -0.7586    0.0000 H   0  0  0  0  0  0  0  0  0  0  0  0
    8.3940   -0.5565    0.0000 H   0  0  0  0  0  0  0  0  0  0  0  0
    8.4534    0.4462    0.0000 H   0  0  0  0  0  0  0  0  0  0  0  0
  1  2  1  0  0  0  0
  2  3  1  0  0  0  0
  3  4  1  0  0  0  0
  4  5  1  0  0  0  0
  5  6  2  0  0  0  0
  5  7  1  0  0  0  0
  7  8  1  0  0  0  0
  8  9  1  0  0  0  0
  9 10  1  0  0  0  0
  7 11  1  0  0  0  0
 11 12  1  0  0  0  0
 12 13  1  0  0  0  0
  1 14  1  0  0  0  0
  1 15  1  0  0  0  0
  1 16  1  0  0  0  0
  2 17  1  0  0  0  0
  2 18  1  0  0  0  0
  3 19  1  0  0  0  0
  3 20  1  0  0  0  0
  8 21  1  0  0  0  0
  8 22  1  0  0  0  0
  9 23  1  0  0  0  0
  9 24  1  0  0  0  0
 10 25  1  0  0  0  0
 10 26  1  0  0  0  0
 10 27  1  0  0  0  0
 11 28  1  0  0  0  0
 11 29  1  0  0  0  0
 12 30  1  0  0  0  0
 12 31  1  0  0  0  0
 13 32  1  0  0  0  0
 13 33  1  0  0  0  0
 13 34  1  0  0  0  0
M  END
>  <InChIKey>
InChI=1S/C10H21NOS/c1-4-7-11(8-5-2)10(12)13-9-6-3/h4-9H2,1-3H3

>  <CASRN>
1929-77-7

> <Outcome>
1

>  <Index>
2396

>  <StandardizerResult>
Clear Stereo (ID: ClearStereo)
Wedge Clean (ID: WedgeClean)
Mesomerize (ID: Mesomerize)
Tautomerize (ID: Tautomerize)
Add Explicit Hydrogens (ID: AddExplicitH)
Neutralize (ID: Neutralize)
Clean 2D (ID: Clean2D)

> <knn Distance>


> <CpId>
2396

$$$$
2402
  Mrv1532301301811342D          

 16 15  0  0  0  0            999 V2000
    1.7605    1.8414    0.0000 O   0  0  0  0  0  0  0  0  0  0  0  0
    2.4750    1.4289    0.0000 C   0  0  0  0  0  0  0  0  0  0  0  0
    3.1895    1.8414    0.0000 C   0  0  0  0  0  0  0  0  0  0  0  0
    3.9040    1.4289    0.0000 O   0  0  0  0  0  0  0  0  0  0  0  0
    4.6184    1.8414    0.0000 C   0  0  0  0  0  0  0  0  0  0  0  0
    4.6184    2.6664    0.0000 O   0  0  0  0  0  0  0  0  0  0  0  0
    5.3329    1.4289    0.0000 C   0  0  0  0  0  0  0  0  0  0  0  0
    6.0474    1.8414    0.0000 C   0  0  0  0  0  0  0  0  0  0  0  0
    1.7605    2.6664    0.0000 H   0  0  0  0  0  0  0  0  0  0  0  0
    2.1048    0.6917    0.0000 H   0  0  0  0  0  0  0  0  0  0  0  0
    2.8453    0.6917    0.0000 H   0  0  0  0  0  0  0  0  0  0  0  0
    3.5597    2.5786    0.0000 H   0  0  0  0  0  0  0  0  0  0  0  0
    2.8192    2.5786    0.0000 H   0  0  0  0  0  0  0  0  0  0  0  0
    5.3329    0.6039    0.0000 H   0  0  0  0  0  0  0  0  0  0  0  0
    6.7618    1.4289    0.0000 H   0  0  0  0  0  0  0  0  0  0  0  0
    6.0474    2.6664    0.0000 H   0  0  0  0  0  0  0  0  0  0  0  0
  1  2  1  0  0  0  0
  2  3  1  0  0  0  0
  3  4  1  0  0  0  0
  4  5  1  0  0  0  0
  5  6  2  0  0  0  0
  5  7  1  0  0  0  0
  7  8  2  0  0  0  0
  1  9  1  0  0  0  0
  2 10  1  0  0  0  0
  2 11  1  0  0  0  0
  3 12  1  0  0  0  0
  3 13  1  0  0  0  0
  7 14  1  0  0  0  0
  8 15  1  0  0  0  0
  8 16  1  0  0  0  0
M  END
>  <InChIKey>
InChI=1S/C5H8O3/c1-2-5(7)8-4-3-6/h2,6H,1,3-4H2

>  <UN GHS>
1

>  <CASRN>
818-61-1

> <Outcome>
1

>  <Index>
2402

>  <StandardizerResult>
Clear Stereo (ID: ClearStereo)
Wedge Clean (ID: WedgeClean)
Mesomerize (ID: Mesomerize)
Tautomerize (ID: Tautomerize)
Add Explicit Hydrogens (ID: AddExplicitH)
Neutralize (ID: Neutralize)
Clean 2D (ID: Clean2D)

> <knn Distance>


> <CpId>
2402

$$$$
2416
  Mrv1532301301811342D          

 10  9  0  0  0  0            999 V2000
    1.6500    1.4289    0.0000 C   0  0  0  0  0  0  0  0  0  0  0  0
    1.2375    0.7145    0.0000 C   0  0  0  0  0  0  0  0  0  0  0  0
    0.5230    1.1270    0.0000 Cl  0  0  0  0  0  0  0  0  0  0  0  0
    1.9520    0.3020    0.0000 Cl  0  0  0  0  0  0  0  0  0  0  0  0
    0.8250   -0.0000    0.0000 N   0  0  0  0  0  0  0  0  0  0  0  0
    1.2375   -0.7145    0.0000 O   0  0  0  0  0  0  0  0  0  0  0  0
    0.0000   -0.0000    0.0000 O   0  0  0  0  0  0  0  0  0  0  0  0
    2.3645    1.0164    0.0000 H   0  0  0  0  0  0  0  0  0  0  0  0
    2.0625    2.1434    0.0000 H   0  0  0  0  0  0  0  0  0  0  0  0
    0.9355    1.8414    0.0000 H   0  0  0  0  0  0  0  0  0  0  0  0
  1  2  1  0  0  0  0
  2  3  1  0  0  0  0
  2  4  1  0  0  0  0
  2  5  1  0  0  0  0
  5  6  2  0  0  0  0
  5  7  2  0  0  0  0
  1  8  1  0  0  0  0
  1  9  1  0  0  0  0
  1 10  1  0  0  0  0
M  END
>  <InChIKey>
InChI=1S/C2H3Cl2NO2/c1-2(3,4)5(6)7/h1H3

>  <CASRN>
594-72-9

> <Outcome>
1

>  <Index>
2416

>  <StandardizerResult>
Clear Stereo (ID: ClearStereo)
Wedge Clean (ID: WedgeClean)
Mesomerize (ID: Mesomerize)
Tautomerize (ID: Tautomerize)
Add Explicit Hydrogens (ID: AddExplicitH)
Neutralize (ID: Neutralize)
Clean 2D (ID: Clean2D)

> <knn Distance>


> <CpId>
2416

$$$$
2418
  Mrv1532301301811342D          

 68 67  0  0  0  0            999 V2000
    9.7007    6.4360    0.0000 C   0  0  0  0  0  0  0  0  0  0  0  0
   10.4151    6.8485    0.0000 C   0  0  0  0  0  0  0  0  0  0  0  0
   11.1296    6.4360    0.0000 C   0  0  0  0  0  0  0  0  0  0  0  0
   11.8441    6.8485    0.0000 C   0  0  0  0  0  0  0  0  0  0  0  0
   12.5585    6.4360    0.0000 C   0  0  0  0  0  0  0  0  0  0  0  0
   13.2730    6.8485    0.0000 C   0  0  0  0  0  0  0  0  0  0  0  0
   13.9875    6.4360    0.0000 C   0  0  0  0  0  0  0  0  0  0  0  0
   14.7020    6.8485    0.0000 C   0  0  0  0  0  0  0  0  0  0  0  0
   15.4164    6.4360    0.0000 C   0  0  0  0  0  0  0  0  0  0  0  0
   16.1309    6.8485    0.0000 C   0  0  0  0  0  0  0  0  0  0  0  0
   16.8454    6.4360    0.0000 C   0  0  0  0  0  0  0  0  0  0  0  0
   17.5598    6.8485    0.0000 C   0  0  0  0  0  0  0  0  0  0  0  0
   18.2743    6.4360    0.0000 C   0  0  0  0  0  0  0  0  0  0  0  0
   18.9888    6.8485    0.0000 C   0  0  0  0  0  0  0  0  0  0  0  0
   19.7032    6.4360    0.0000 C   0  0  0  0  0  0  0  0  0  0  0  0
   20.4177    6.8485    0.0000 C   0  0  0  0  0  0  0  0  0  0  0  0
   21.1322    6.4360    0.0000 C   0  0  0  0  0  0  0  0  0  0  0  0
   21.8467    6.8485    0.0000 C   0  0  0  0  0  0  0  0  0  0  0  0
   21.8467    7.6735    0.0000 O   0  0  0  0  0  0  0  0  0  0  0  0
   22.5611    6.4360    0.0000 O   0  0  0  0  0  0  0  0  0  0  0  0
   23.2756    6.8485    0.0000 C   0  0  0  0  0  0  0  0  0  0  0  0
   23.9901    6.4360    0.0000 C   0  0  0  0  0  0  0  0  0  0  0  0
   24.7045    6.8485    0.0000 C   0  0  0  0  0  0  0  0  0  0  0  0
   23.9901    5.6110    0.0000 C   0  0  0  0  0  0  0  0  0  0  0  0
    9.2882    7.1505    0.0000 H   0  0  0  0  0  0  0  0  0  0  0  0
    8.9862    6.0235    0.0000 H   0  0  0  0  0  0  0  0  0  0  0  0
   10.1132    5.7215    0.0000 H   0  0  0  0  0  0  0  0  0  0  0  0
   10.7854    7.5858    0.0000 H   0  0  0  0  0  0  0  0  0  0  0  0
   10.0449    7.5858    0.0000 H   0  0  0  0  0  0  0  0  0  0  0  0
   10.7593    5.6988    0.0000 H   0  0  0  0  0  0  0  0  0  0  0  0
   11.4999    5.6988    0.0000 H   0  0  0  0  0  0  0  0  0  0  0  0
   12.2143    7.5858    0.0000 H   0  0  0  0  0  0  0  0  0  0  0  0
   11.4738    7.5858    0.0000 H   0  0  0  0  0  0  0  0  0  0  0  0
   12.1883    5.6988    0.0000 H   0  0  0  0  0  0  0  0  0  0  0  0
   12.9288    5.6988    0.0000 H   0  0  0  0  0  0  0  0  0  0  0  0
   13.6433    7.5858    0.0000 H   0  0  0  0  0  0  0  0  0  0  0  0
   12.9027    7.5858    0.0000 H   0  0  0  0  0  0  0  0  0  0  0  0
   13.6172    5.6988    0.0000 H   0  0  0  0  0  0  0  0  0  0  0  0
   14.3577    5.6988    0.0000 H   0  0  0  0  0  0  0  0  0  0  0  0
   15.0722    7.5858    0.0000 H   0  0  0  0  0  0  0  0  0  0  0  0
   14.3317    7.5858    0.0000 H   0  0  0  0  0  0  0  0  0  0  0  0
   15.0462    5.6988    0.0000 H   0  0  0  0  0  0  0  0  0  0  0  0
   15.7867    5.6988    0.0000 H   0  0  0  0  0  0  0  0  0  0  0  0
   16.5012    7.5858    0.0000 H   0  0  0  0  0  0  0  0  0  0  0  0
   15.7606    7.5858    0.0000 H   0  0  0  0  0  0  0  0  0  0  0  0
   16.4751    5.6988    0.0000 H   0  0  0  0  0  0  0  0  0  0  0  0
   17.2156    5.6988    0.0000 H   0  0  0  0  0  0  0  0  0  0  0  0
   17.9301    7.5858    0.0000 H   0  0  0  0  0  0  0  0  0  0  0  0
   17.1896    7.5858    0.0000 H   0  0  0  0  0  0  0  0  0  0  0  0
   17.9040    5.6988    0.0000 H   0  0  0  0  0  0  0  0  0  0  0  0
   18.6446    5.6988    0.0000 H   0  0  0  0  0  0  0  0  0  0  0  0
   19.3590    7.5858    0.0000 H   0  0  0  0  0  0  0  0  0  0  0  0
   18.6185    7.5858    0.0000 H   0  0  0  0  0  0  0  0  0  0  0  0
   19.3330    5.6988    0.0000 H   0  0  0  0  0  0  0  0  0  0  0  0
   20.0735    5.6988    0.0000 H   0  0  0  0  0  0  0  0  0  0  0  0
   20.7880    7.5858    0.0000 H   0  0  0  0  0  0  0  0  0  0  0  0
   20.0475    7.5858    0.0000 H   0  0  0  0  0  0  0  0  0  0  0  0
   20.7619    5.6988    0.0000 H   0  0  0  0  0  0  0  0  0  0  0  0
   21.5024    5.6988    0.0000 H   0  0  0  0  0  0  0  0  0  0  0  0
   23.6459    7.5858    0.0000 H   0  0  0  0  0  0  0  0  0  0  0  0
   22.9053    7.5858    0.0000 H   0  0  0  0  0  0  0  0  0  0  0  0
   23.9901    7.2610    0.0000 H   0  0  0  0  0  0  0  0  0  0  0  0
   24.9181    6.0516    0.0000 H   0  0  0  0  0  0  0  0  0  0  0  0
   25.5295    6.8485    0.0000 H   0  0  0  0  0  0  0  0  0  0  0  0
   24.9181    7.6454    0.0000 H   0  0  0  0  0  0  0  0  0  0  0  0
   23.1651    5.6110    0.0000 H   0  0  0  0  0  0  0  0  0  0  0  0
   23.9901    4.7860    0.0000 H   0  0  0  0  0  0  0  0  0  0  0  0
   24.8151    5.6110    0.0000 H   0  0  0  0  0  0  0  0  0  0  0  0
  1  2  1  0  0  0  0
  2  3  1  0  0  0  0
  3  4  1  0  0  0  0
  4  5  1  0  0  0  0
  5  6  1  0  0  0  0
  6  7  1  0  0  0  0
  7  8  1  0  0  0  0
  8  9  1  0  0  0  0
  9 10  1  0  0  0  0
 10 11  1  0  0  0  0
 11 12  1  0  0  0  0
 12 13  1  0  0  0  0
 13 14  1  0  0  0  0
 14 15  1  0  0  0  0
 15 16  1  0  0  0  0
 16 17  1  0  0  0  0
 17 18  1  0  0  0  0
 18 19  2  0  0  0  0
 18 20  1  0  0  0  0
 20 21  1  0  0  0  0
 21 22  1  0  0  0  0
 22 23  1  0  0  0  0
 22 24  1  0  0  0  0
  1 25  1  0  0  0  0
  1 26  1  0  0  0  0
  1 27  1  0  0  0  0
  2 28  1  0  0  0  0
  2 29  1  0  0  0  0
  3 30  1  0  0  0  0
  3 31  1  0  0  0  0
  4 32  1  0  0  0  0
  4 33  1  0  0  0  0
  5 34  1  0  0  0  0
  5 35  1  0  0  0  0
  6 36  1  0  0  0  0
  6 37  1  0  0  0  0
  7 38  1  0  0  0  0
  7 39  1  0  0  0  0
  8 40  1  0  0  0  0
  8 41  1  0  0  0  0
  9 42  1  0  0  0  0
  9 43  1  0  0  0  0
 10 44  1  0  0  0  0
 10 45  1  0  0  0  0
 11 46  1  0  0  0  0
 11 47  1  0  0  0  0
 12 48  1  0  0  0  0
 12 49  1  0  0  0  0
 13 50  1  0  0  0  0
 13 51  1  0  0  0  0
 14 52  1  0  0  0  0
 14 53  1  0  0  0  0
 15 54  1  0  0  0  0
 15 55  1  0  0  0  0
 16 56  1  0  0  0  0
 16 57  1  0  0  0  0
 17 58  1  0  0  0  0
 17 59  1  0  0  0  0
 21 60  1  0  0  0  0
 21 61  1  0  0  0  0
 22 62  1  0  0  0  0
 23 63  1  0  0  0  0
 23 64  1  0  0  0  0
 23 65  1  0  0  0  0
 24 66  1  0  0  0  0
 24 67  1  0  0  0  0
 24 68  1  0  0  0  0
M  END
>  <InChIKey>
InChI=1S/C22H44O2/c1-4-5-6-7-8-9-10-11-12-13-14-15-16-17-18-19-22(23)24-20-21(2)3/h21H,4-20H2,1-3H3

>  <CASRN>
646-13-9

> <Outcome>
1

>  <Index>
2418

>  <StandardizerResult>
Clear Stereo (ID: ClearStereo)
Wedge Clean (ID: WedgeClean)
Mesomerize (ID: Mesomerize)
Tautomerize (ID: Tautomerize)
Add Explicit Hydrogens (ID: AddExplicitH)
Neutralize (ID: Neutralize)
Clean 2D (ID: Clean2D)

> <knn Distance>


> <CpId>
2418

$$$$
2421
  Mrv1532301301811342D          

 15 14  0  0  0  0            999 V2000
    0.8394   -1.6024    0.0000 C   0  0  0  0  0  0  0  0  0  0  0  0
    0.8394   -0.7774    0.0000 C   0  0  0  0  0  0  0  0  0  0  0  0
    1.6644   -0.7774    0.0000 C   0  0  0  0  0  0  0  0  0  0  0  0
    0.0144   -0.7774    0.0000 O   0  0  0  0  0  0  0  0  0  0  0  0
    0.8394    0.0476    0.0000 C   0  0  0  0  0  0  0  0  0  0  0  0
    0.8394    0.8726    0.0000 Cl  0  0  0  0  0  0  0  0  0  0  0  0
    1.6644    0.0476    0.0000 Cl  0  0  0  0  0  0  0  0  0  0  0  0
    0.0144    0.0476    0.0000 Cl  0  0  0  0  0  0  0  0  0  0  0  0
    0.0144   -1.6024    0.0000 H   0  0  0  0  0  0  0  0  0  0  0  0
    0.8394   -2.4274    0.0000 H   0  0  0  0  0  0  0  0  0  0  0  0
    1.6644   -1.6024    0.0000 H   0  0  0  0  0  0  0  0  0  0  0  0
    2.2477   -1.3607    0.0000 H   0  0  0  0  0  0  0  0  0  0  0  0
    2.4894   -0.7774    0.0000 H   0  0  0  0  0  0  0  0  0  0  0  0
    2.2477   -0.1940    0.0000 H   0  0  0  0  0  0  0  0  0  0  0  0
   -0.8106   -0.7774    0.0000 H   0  0  0  0  0  0  0  0  0  0  0  0
  1  2  1  0  0  0  0
  2  3  1  0  0  0  0
  2  4  1  0  0  0  0
  2  5  1  0  0  0  0
  5  6  1  0  0  0  0
  5  7  1  0  0  0  0
  5  8  1  0  0  0  0
  1  9  1  0  0  0  0
  1 10  1  0  0  0  0
  1 11  1  0  0  0  0
  3 12  1  0  0  0  0
  3 13  1  0  0  0  0
  3 14  1  0  0  0  0
  4 15  1  0  0  0  0
M  END
>  <InChIKey>
InChI=1S/C4H7Cl3O/c1-3(2,8)4(5,6)7/h8H,1-2H3

>  <CASRN>
57-15-8

> <Outcome>
1

>  <Index>
2421

>  <StandardizerResult>
Clear Stereo (ID: ClearStereo)
Wedge Clean (ID: WedgeClean)
Mesomerize (ID: Mesomerize)
Tautomerize (ID: Tautomerize)
Add Explicit Hydrogens (ID: AddExplicitH)
Neutralize (ID: Neutralize)
Clean 2D (ID: Clean2D)

> <knn Distance>


> <CpId>
2421

$$$$
2422
  Mrv1532301301811342D          

 19 19  0  0  0  0            999 V2000
    0.7145    2.0625    0.0000 C   0  0  0  0  0  0  0  0  0  0  0  0
    0.7145    1.2375    0.0000 C   0  0  0  0  0  0  0  0  0  0  0  0
    1.4289    0.8250    0.0000 C   0  0  0  0  0  0  0  0  0  0  0  0
    1.4289   -0.0000    0.0000 C   0  0  0  0  0  0  0  0  0  0  0  0
    2.1434   -0.4125    0.0000 O   0  0  0  0  0  0  0  0  0  0  0  0
    0.7145   -0.4125    0.0000 C   0  0  0  0  0  0  0  0  0  0  0  0
   -0.0000   -0.0000    0.0000 C   0  0  0  0  0  0  0  0  0  0  0  0
   -0.7145   -0.4125    0.0000 C   0  0  0  0  0  0  0  0  0  0  0  0
   -0.0000    0.8250    0.0000 C   0  0  0  0  0  0  0  0  0  0  0  0
   -0.7145    1.2375    0.0000 Cl  0  0  0  0  0  0  0  0  0  0  0  0
    1.5395    2.0625    0.0000 H   0  0  0  0  0  0  0  0  0  0  0  0
    0.7145    2.8875    0.0000 H   0  0  0  0  0  0  0  0  0  0  0  0
   -0.1105    2.0625    0.0000 H   0  0  0  0  0  0  0  0  0  0  0  0
    2.1434    1.2375    0.0000 H   0  0  0  0  0  0  0  0  0  0  0  0
    2.1434   -1.2375    0.0000 H   0  0  0  0  0  0  0  0  0  0  0  0
    0.7145   -1.2375    0.0000 H   0  0  0  0  0  0  0  0  0  0  0  0
   -1.1270    0.3020    0.0000 H   0  0  0  0  0  0  0  0  0  0  0  0
   -1.4289   -0.8250    0.0000 H   0  0  0  0  0  0  0  0  0  0  0  0
   -0.3020   -1.1270    0.0000 H   0  0  0  0  0  0  0  0  0  0  0  0
  1  2  1  0  0  0  0
  2  3  4  0  0  0  0
  3  4  4  0  0  0  0
  4  5  1  0  0  0  0
  4  6  4  0  0  0  0
  6  7  4  0  0  0  0
  7  8  1  0  0  0  0
  7  9  4  0  0  0  0
  2  9  4  0  0  0  0
  9 10  1  0  0  0  0
  1 11  1  0  0  0  0
  1 12  1  0  0  0  0
  1 13  1  0  0  0  0
  3 14  1  0  0  0  0
  5 15  1  0  0  0  0
  6 16  1  0  0  0  0
  8 17  1  0  0  0  0
  8 18  1  0  0  0  0
  8 19  1  0  0  0  0
M  END
>  <InChIKey>
InChI=1S/C8H9ClO/c1-5-3-7(10)4-6(2)8(5)9/h3-4,10H,1-2H3

>  <CASRN>
88-04-0

> <Outcome>
1

>  <Index>
2422

>  <StandardizerResult>
Dearomatize (ID: Dearomatize)
Clear Stereo (ID: ClearStereo)
Wedge Clean (ID: WedgeClean)
Mesomerize (ID: Mesomerize)
Tautomerize (ID: Tautomerize)
Aromatize (ID: Aromatize)
Add Explicit Hydrogens (ID: AddExplicitH)
Neutralize (ID: Neutralize)
Clean 2D (ID: Clean2D)

> <knn Distance>


> <CpId>
2422

$$$$
2423
  Mrv1532301301811342D          

  9  8  0  0  0  0            999 V2000
    2.0635   -0.7128    0.0000 Cl  0  0  0  0  0  0  0  0  0  0  0  0
    1.2385   -0.7128    0.0000 C   0  0  0  0  0  0  0  0  0  0  0  0
    0.8260    0.0017    0.0000 C   0  0  0  0  0  0  0  0  0  0  0  0
    0.0010    0.0017    0.0000 C   0  0  0  0  0  0  0  0  0  0  0  0
    0.5492   -1.1661    0.0000 H   0  0  0  0  0  0  0  0  0  0  0  0
    1.1905   -1.5364    0.0000 H   0  0  0  0  0  0  0  0  0  0  0  0
    1.2385    0.7162    0.0000 H   0  0  0  0  0  0  0  0  0  0  0  0
   -0.4115    0.7162    0.0000 H   0  0  0  0  0  0  0  0  0  0  0  0
   -0.4115   -0.7128    0.0000 H   0  0  0  0  0  0  0  0  0  0  0  0
  1  2  1  0  0  0  0
  2  3  1  0  0  0  0
  3  4  2  0  0  0  0
  2  5  1  0  0  0  0
  2  6  1  0  0  0  0
  3  7  1  0  0  0  0
  4  8  1  0  0  0  0
  4  9  1  0  0  0  0
M  END
>  <InChIKey>
InChI=1S/C3H5Cl/c1-2-3-4/h2H,1,3H2

>  <CASRN>
107-05-1

> <Outcome>
1

>  <Index>
2423

>  <StandardizerResult>
Clear Stereo (ID: ClearStereo)
Wedge Clean (ID: WedgeClean)
Mesomerize (ID: Mesomerize)
Tautomerize (ID: Tautomerize)
Add Explicit Hydrogens (ID: AddExplicitH)
Neutralize (ID: Neutralize)
Clean 2D (ID: Clean2D)

> <knn Distance>


> <CpId>
2423

$$$$
2425
  Mrv1532301301811342D          

 18 18  0  0  0  0            999 V2000
    0.7145    2.8875    0.0000 Cl  0  0  0  0  0  0  0  0  0  0  0  0
    0.7145    2.0625    0.0000 C   0  0  0  0  0  0  0  0  0  0  0  0
   -0.1105    2.0625    0.0000 Cl  0  0  0  0  0  0  0  0  0  0  0  0
    1.5395    2.0625    0.0000 Cl  0  0  0  0  0  0  0  0  0  0  0  0
    0.7145    1.2375    0.0000 C   0  0  0  0  0  0  0  0  0  0  0  0
    1.4290    0.8250    0.0000 C   0  0  0  0  0  0  0  0  0  0  0  0
    1.4290   -0.0000    0.0000 C   0  0  0  0  0  0  0  0  0  0  0  0
    0.7145   -0.4125    0.0000 C   0  0  0  0  0  0  0  0  0  0  0  0
    0.0000    0.0000    0.0000 C   0  0  0  0  0  0  0  0  0  0  0  0
    0.0000    0.8250    0.0000 C   0  0  0  0  0  0  0  0  0  0  0  0
    0.7145   -1.2375    0.0000 C   0  0  0  0  0  0  0  0  0  0  0  0
    0.7145   -2.0625    0.0000 Cl  0  0  0  0  0  0  0  0  0  0  0  0
   -0.1105   -1.2375    0.0000 Cl  0  0  0  0  0  0  0  0  0  0  0  0
    1.5395   -1.2375    0.0000 Cl  0  0  0  0  0  0  0  0  0  0  0  0
    2.1434    1.2375    0.0000 H   0  0  0  0  0  0  0  0  0  0  0  0
    2.1434   -0.4125    0.0000 H   0  0  0  0  0  0  0  0  0  0  0  0
   -0.7145   -0.4125    0.0000 H   0  0  0  0  0  0  0  0  0  0  0  0
   -0.7145    1.2375    0.0000 H   0  0  0  0  0  0  0  0  0  0  0  0
  1  2  1  0  0  0  0
  2  3  1  0  0  0  0
  2  4  1  0  0  0  0
  2  5  1  0  0  0  0
  5  6  4  0  0  0  0
  6  7  4  0  0  0  0
  7  8  4  0  0  0  0
  8  9  4  0  0  0  0
  9 10  4  0  0  0  0
  5 10  4  0  0  0  0
  8 11  1  0  0  0  0
 11 12  1  0  0  0  0
 11 13  1  0  0  0  0
 11 14  1  0  0  0  0
  6 15  1  0  0  0  0
  7 16  1  0  0  0  0
  9 17  1  0  0  0  0
 10 18  1  0  0  0  0
M  END
>  <InChIKey>
InChI=1S/C8H4Cl6/c9-7(10,11)5-1-2-6(4-3-5)8(12,13)14/h1-4H

>  <CASRN>
68-36-0

> <Outcome>
1

>  <Index>
2425

>  <StandardizerResult>
Dearomatize (ID: Dearomatize)
Clear Stereo (ID: ClearStereo)
Wedge Clean (ID: WedgeClean)
Mesomerize (ID: Mesomerize)
Tautomerize (ID: Tautomerize)
Aromatize (ID: Aromatize)
Add Explicit Hydrogens (ID: AddExplicitH)
Neutralize (ID: Neutralize)
Clean 2D (ID: Clean2D)

> <knn Distance>


> <CpId>
2425

$$$$
2427
  Mrv1532301301811342D          

 17 17  0  0  0  0            999 V2000
   -0.0000    2.4750    0.0000 O   0  0  0  0  0  0  0  0  0  0  0  0
    0.7145    2.0625    0.0000 C   0  0  0  0  0  0  0  0  0  0  0  0
    1.4289    2.4750    0.0000 O   0  0  0  0  0  0  0  0  0  0  0  0
    0.7145    1.2375    0.0000 C   0  0  0  0  0  0  0  0  0  0  0  0
    1.4289    0.8250    0.0000 C   0  0  0  0  0  0  0  0  0  0  0  0
    1.4289   -0.0000    0.0000 C   0  0  0  0  0  0  0  0  0  0  0  0
    0.7145   -0.4125    0.0000 C   0  0  0  0  0  0  0  0  0  0  0  0
   -0.0000   -0.0000    0.0000 C   0  0  0  0  0  0  0  0  0  0  0  0
   -0.0000    0.8250    0.0000 C   0  0  0  0  0  0  0  0  0  0  0  0
    0.7145   -1.2375    0.0000 N   0  0  0  0  0  0  0  0  0  0  0  0
    1.4289   -1.6500    0.0000 O   0  0  0  0  0  0  0  0  0  0  0  0
   -0.0000   -1.6500    0.0000 O   0  0  0  0  0  0  0  0  0  0  0  0
   -0.0000    3.3000    0.0000 H   0  0  0  0  0  0  0  0  0  0  0  0
    2.1434    1.2375    0.0000 H   0  0  0  0  0  0  0  0  0  0  0  0
    2.1434   -0.4125    0.0000 H   0  0  0  0  0  0  0  0  0  0  0  0
   -0.7145   -0.4125    0.0000 H   0  0  0  0  0  0  0  0  0  0  0  0
   -0.7145    1.2375    0.0000 H   0  0  0  0  0  0  0  0  0  0  0  0
  1  2  1  0  0  0  0
  2  3  2  0  0  0  0
  2  4  1  0  0  0  0
  4  5  4  0  0  0  0
  5  6  4  0  0  0  0
  6  7  4  0  0  0  0
  7  8  4  0  0  0  0
  8  9  4  0  0  0  0
  4  9  4  0  0  0  0
  7 10  1  0  0  0  0
 10 11  2  0  0  0  0
 10 12  2  0  0  0  0
  1 13  1  0  0  0  0
  5 14  1  0  0  0  0
  6 15  1  0  0  0  0
  8 16  1  0  0  0  0
  9 17  1  0  0  0  0
M  END
>  <InChIKey>
InChI=1S/C7H5NO4/c9-7(10)5-1-3-6(4-2-5)8(11)12/h1-4H,(H,9,10)

>  <UN GHS>
2B

>  <CASRN>
62-23-7

> <Outcome>
1

>  <Index>
2427

>  <StandardizerResult>
Dearomatize (ID: Dearomatize)
Clear Stereo (ID: ClearStereo)
Wedge Clean (ID: WedgeClean)
Mesomerize (ID: Mesomerize)
Tautomerize (ID: Tautomerize)
Aromatize (ID: Aromatize)
Add Explicit Hydrogens (ID: AddExplicitH)
Neutralize (ID: Neutralize)
Clean 2D (ID: Clean2D)

> <knn Distance>


> <CpId>
2427

$$$$
2430
  Mrv1532301301811342D          

 28 28  0  0  0  0            999 V2000
   -1.4284    4.9503    0.0000 C   0  0  0  0  0  0  0  0  0  0  0  0
   -1.4284    4.1253    0.0000 O   0  0  0  0  0  0  0  0  0  0  0  0
   -0.7139    3.7128    0.0000 P   0  0  0  0  0  0  0  0  0  0  0  0
   -1.1264    2.9983    0.0000 S   0  0  0  0  0  0  0  0  0  0  0  0
   -0.3014    4.4273    0.0000 O   0  0  0  0  0  0  0  0  0  0  0  0
    0.5236    4.4273    0.0000 C   0  0  0  0  0  0  0  0  0  0  0  0
    0.0005    3.3003    0.0000 S   0  0  0  0  0  0  0  0  0  0  0  0
    0.0005    2.4753    0.0000 C   0  0  0  0  0  0  0  0  0  0  0  0
    0.7150    2.0628    0.0000 S   0  0  0  0  0  0  0  0  0  0  0  0
    0.7150    1.2378    0.0000 C   0  0  0  0  0  0  0  0  0  0  0  0
    1.4295    0.8253    0.0000 C   0  0  0  0  0  0  0  0  0  0  0  0
    1.4295    0.0003    0.0000 C   0  0  0  0  0  0  0  0  0  0  0  0
    0.7150   -0.4122    0.0000 C   0  0  0  0  0  0  0  0  0  0  0  0
    0.7150   -1.2372    0.0000 Cl  0  0  0  0  0  0  0  0  0  0  0  0
    0.0005    0.0003    0.0000 C   0  0  0  0  0  0  0  0  0  0  0  0
    0.0005    0.8253    0.0000 C   0  0  0  0  0  0  0  0  0  0  0  0
   -0.6034    4.9503    0.0000 H   0  0  0  0  0  0  0  0  0  0  0  0
   -1.4284    5.7753    0.0000 H   0  0  0  0  0  0  0  0  0  0  0  0
   -2.2534    4.9503    0.0000 H   0  0  0  0  0  0  0  0  0  0  0  0
    0.5236    3.6023    0.0000 H   0  0  0  0  0  0  0  0  0  0  0  0
    1.3486    4.4273    0.0000 H   0  0  0  0  0  0  0  0  0  0  0  0
    0.5236    5.2523    0.0000 H   0  0  0  0  0  0  0  0  0  0  0  0
   -0.8231    2.4273    0.0000 H   0  0  0  0  0  0  0  0  0  0  0  0
   -0.4528    1.7860    0.0000 H   0  0  0  0  0  0  0  0  0  0  0  0
    2.1440    1.2378    0.0000 H   0  0  0  0  0  0  0  0  0  0  0  0
    2.1440   -0.4122    0.0000 H   0  0  0  0  0  0  0  0  0  0  0  0
   -0.7139   -0.4122    0.0000 H   0  0  0  0  0  0  0  0  0  0  0  0
   -0.7139    1.2378    0.0000 H   0  0  0  0  0  0  0  0  0  0  0  0
  1  2  1  0  0  0  0
  2  3  1  0  0  0  0
  3  4  2  0  0  0  0
  3  5  1  0  0  0  0
  5  6  1  0  0  0  0
  3  7  1  0  0  0  0
  7  8  1  0  0  0  0
  8  9  1  0  0  0  0
  9 10  1  0  0  0  0
 10 11  4  0  0  0  0
 11 12  4  0  0  0  0
 12 13  4  0  0  0  0
 13 14  1  0  0  0  0
 13 15  4  0  0  0  0
 15 16  4  0  0  0  0
 10 16  4  0  0  0  0
  1 17  1  0  0  0  0
  1 18  1  0  0  0  0
  1 19  1  0  0  0  0
  6 20  1  0  0  0  0
  6 21  1  0  0  0  0
  6 22  1  0  0  0  0
  8 23  1  0  0  0  0
  8 24  1  0  0  0  0
 11 25  1  0  0  0  0
 12 26  1  0  0  0  0
 15 27  1  0  0  0  0
 16 28  1  0  0  0  0
M  END
>  <InChIKey>
InChI=1S/C9H12ClO2PS3/c1-11-13(14,12-2)16-7-15-9-5-3-8(10)4-6-9/h3-6H,7H2,1-2H3

>  <CASRN>
953-17-3

> <Outcome>
1

>  <Index>
2430

>  <StandardizerResult>
Dearomatize (ID: Dearomatize)
Clear Stereo (ID: ClearStereo)
Wedge Clean (ID: WedgeClean)
Mesomerize (ID: Mesomerize)
Tautomerize (ID: Tautomerize)
Aromatize (ID: Aromatize)
Add Explicit Hydrogens (ID: AddExplicitH)
Neutralize (ID: Neutralize)
Clean 2D (ID: Clean2D)

> <knn Distance>


> <CpId>
2430

$$$$
2433
  Mrv1532301301811342D          

 36 39  0  0  0  0            999 V2000
    0.7655   -1.1907    0.0000 O   0  0  0  0  0  0  0  0  0  0  0  0
    0.7655   -0.3657    0.0000 C   0  0  0  0  0  0  0  0  0  0  0  0
    0.0510    0.0468    0.0000 N   0  0  0  0  0  0  0  0  0  0  0  0
   -0.6634   -0.3657    0.0000 C   0  0  0  0  0  0  0  0  0  0  0  0
   -0.6634   -1.1907    0.0000 C   0  0  0  0  0  0  0  0  0  0  0  0
   -0.2509   -1.9051    0.0000 C   0  0  0  0  0  0  0  0  0  0  0  0
   -1.0759   -1.9051    0.0000 O   0  0  0  0  0  0  0  0  0  0  0  0
    0.0510    0.8718    0.0000 C   0  0  0  0  0  0  0  0  0  0  0  0
   -0.6634    1.2843    0.0000 O   0  0  0  0  0  0  0  0  0  0  0  0
    0.7655    1.2843    0.0000 N   0  0  0  0  0  0  0  0  0  0  0  0
    0.7655    2.1093    0.0000 C   0  0  0  0  0  0  0  0  0  0  0  0
    1.4800    2.5218    0.0000 C   0  0  0  0  0  0  0  0  0  0  0  0
    1.8925    3.2363    0.0000 C   0  0  0  0  0  0  0  0  0  0  0  0
    2.3050    2.5218    0.0000 O   0  0  0  0  0  0  0  0  0  0  0  0
    1.4800    0.8718    0.0000 C   0  0  0  0  0  0  0  0  0  0  0  0
    2.1944    1.2843    0.0000 O   0  0  0  0  0  0  0  0  0  0  0  0
    1.4800    0.0468    0.0000 N   0  0  0  0  0  0  0  0  0  0  0  0
    2.1944   -0.3657    0.0000 C   0  0  0  0  0  0  0  0  0  0  0  0
    2.1944   -1.1907    0.0000 C   0  0  0  0  0  0  0  0  0  0  0  0
    2.6069   -1.9051    0.0000 C   0  0  0  0  0  0  0  0  0  0  0  0
    1.7819   -1.9051    0.0000 O   0  0  0  0  0  0  0  0  0  0  0  0
   -1.1168    0.3236    0.0000 H   0  0  0  0  0  0  0  0  0  0  0  0
   -1.4870   -0.3177    0.0000 H   0  0  0  0  0  0  0  0  0  0  0  0
   -1.4603   -0.9771    0.0000 H   0  0  0  0  0  0  0  0  0  0  0  0
    0.1193   -2.6424    0.0000 H   0  0  0  0  0  0  0  0  0  0  0  0
    0.5727   -1.8572    0.0000 H   0  0  0  0  0  0  0  0  0  0  0  0
    0.3122    2.7986    0.0000 H   0  0  0  0  0  0  0  0  0  0  0  0
   -0.0581    2.1573    0.0000 H   0  0  0  0  0  0  0  0  0  0  0  0
    1.6935    1.7249    0.0000 H   0  0  0  0  0  0  0  0  0  0  0  0
    2.3458    3.9256    0.0000 H   0  0  0  0  0  0  0  0  0  0  0  0
    1.4391    3.9256    0.0000 H   0  0  0  0  0  0  0  0  0  0  0  0
    3.0180   -0.3177    0.0000 H   0  0  0  0  0  0  0  0  0  0  0  0
    2.6478    0.3236    0.0000 H   0  0  0  0  0  0  0  0  0  0  0  0
    1.3976   -0.9771    0.0000 H   0  0  0  0  0  0  0  0  0  0  0  0
    2.9772   -2.6424    0.0000 H   0  0  0  0  0  0  0  0  0  0  0  0
    3.4305   -1.8572    0.0000 H   0  0  0  0  0  0  0  0  0  0  0  0
  1  2  2  0  0  0  0
  2  3  1  0  0  0  0
  3  4  1  0  0  0  0
  4  5  1  0  0  0  0
  5  6  1  0  0  0  0
  6  7  1  0  0  0  0
  5  7  1  0  0  0  0
  3  8  1  0  0  0  0
  8  9  2  0  0  0  0
  8 10  1  0  0  0  0
 10 11  1  0  0  0  0
 11 12  1  0  0  0  0
 12 13  1  0  0  0  0
 13 14  1  0  0  0  0
 12 14  1  0  0  0  0
 10 15  1  0  0  0  0
 15 16  2  0  0  0  0
 15 17  1  0  0  0  0
  2 17  1  0  0  0  0
 17 18  1  0  0  0  0
 18 19  1  0  0  0  0
 19 20  1  0  0  0  0
 20 21  1  0  0  0  0
 19 21  1  0  0  0  0
  4 22  1  0  0  0  0
  4 23  1  0  0  0  0
  5 24  1  0  0  0  0
  6 25  1  0  0  0  0
  6 26  1  0  0  0  0
 11 27  1  0  0  0  0
 11 28  1  0  0  0  0
 12 29  1  0  0  0  0
 13 30  1  0  0  0  0
 13 31  1  0  0  0  0
 18 32  1  0  0  0  0
 18 33  1  0  0  0  0
 19 34  1  0  0  0  0
 20 35  1  0  0  0  0
 20 36  1  0  0  0  0
M  END
>  <InChIKey>
InChI=1S/C12H15N3O6/c16-10-13(1-7-4-19-7)11(17)15(3-9-6-21-9)12(18)14(10)2-8-5-20-8/h7-9H,1-6H2

>  <CASRN>
2451-62-9

> <Outcome>
1

>  <Index>
2433

>  <StandardizerResult>
Dearomatize (ID: Dearomatize)
Clear Stereo (ID: ClearStereo)
Wedge Clean (ID: WedgeClean)
Mesomerize (ID: Mesomerize)
Tautomerize (ID: Tautomerize)
Add Explicit Hydrogens (ID: AddExplicitH)
Neutralize (ID: Neutralize)
Clean 2D (ID: Clean2D)

> <knn Distance>


> <CpId>
2433

$$$$
2438
  Mrv1532301301811342D          

 19 19  0  0  0  0            999 V2000
   -0.7137    3.7130    0.0000 O   0  0  0  0  0  0  0  0  0  0  0  0
    0.0008    3.3005    0.0000 C   0  0  0  0  0  0  0  0  0  0  0  0
    0.7153    3.7130    0.0000 O   0  0  0  0  0  0  0  0  0  0  0  0
    0.0008    2.4755    0.0000 C   0  0  0  0  0  0  0  0  0  0  0  0
    0.7153    2.0630    0.0000 O   0  0  0  0  0  0  0  0  0  0  0  0
    0.7153    1.2380    0.0000 C   0  0  0  0  0  0  0  0  0  0  0  0
    1.4297    0.8255    0.0000 C   0  0  0  0  0  0  0  0  0  0  0  0
    1.4297    0.0005    0.0000 C   0  0  0  0  0  0  0  0  0  0  0  0
    0.7153   -0.4120    0.0000 C   0  0  0  0  0  0  0  0  0  0  0  0
    0.7153   -1.2370    0.0000 Cl  0  0  0  0  0  0  0  0  0  0  0  0
    0.0008    0.0005    0.0000 C   0  0  0  0  0  0  0  0  0  0  0  0
    0.0008    0.8255    0.0000 C   0  0  0  0  0  0  0  0  0  0  0  0
   -0.7137    1.2380    0.0000 Cl  0  0  0  0  0  0  0  0  0  0  0  0
   -0.7137    4.5380    0.0000 H   0  0  0  0  0  0  0  0  0  0  0  0
   -0.8228    2.4275    0.0000 H   0  0  0  0  0  0  0  0  0  0  0  0
   -0.4525    1.7862    0.0000 H   0  0  0  0  0  0  0  0  0  0  0  0
    2.1442    1.2380    0.0000 H   0  0  0  0  0  0  0  0  0  0  0  0
    2.1442   -0.4120    0.0000 H   0  0  0  0  0  0  0  0  0  0  0  0
   -0.7137   -0.4120    0.0000 H   0  0  0  0  0  0  0  0  0  0  0  0
  1  2  1  0  0  0  0
  2  3  2  0  0  0  0
  2  4  1  0  0  0  0
  4  5  1  0  0  0  0
  5  6  1  0  0  0  0
  6  7  4  0  0  0  0
  7  8  4  0  0  0  0
  8  9  4  0  0  0  0
  9 10  1  0  0  0  0
  9 11  4  0  0  0  0
 11 12  4  0  0  0  0
  6 12  4  0  0  0  0
 12 13  1  0  0  0  0
  1 14  1  0  0  0  0
  4 15  1  0  0  0  0
  4 16  1  0  0  0  0
  7 17  1  0  0  0  0
  8 18  1  0  0  0  0
 11 19  1  0  0  0  0
M  END
>  <InChIKey>
InChI=1S/C8H6Cl2O3/c9-5-1-2-7(6(10)3-5)13-4-8(11)12/h1-3H,4H2,(H,11,12)

>  <CASRN>
94-75-7

> <Outcome>
1

>  <Index>
2438

>  <StandardizerResult>
Dearomatize (ID: Dearomatize)
Clear Stereo (ID: ClearStereo)
Wedge Clean (ID: WedgeClean)
Mesomerize (ID: Mesomerize)
Tautomerize (ID: Tautomerize)
Aromatize (ID: Aromatize)
Add Explicit Hydrogens (ID: AddExplicitH)
Neutralize (ID: Neutralize)
Clean 2D (ID: Clean2D)

> <knn Distance>


> <CpId>
2438

$$$$
2439
  Mrv1532301301811342D          

 37 38  0  0  0  0            999 V2000
    0.5303    0.2075    0.0000 C   0  0  0  0  0  0  0  0  0  0  0  0
    1.2448    0.6200    0.0000 C   0  0  0  0  0  0  0  0  0  0  0  0
    1.6573   -0.0944    0.0000 C   0  0  0  0  0  0  0  0  0  0  0  0
    0.8323    1.3345    0.0000 C   0  0  0  0  0  0  0  0  0  0  0  0
    1.9592    1.0325    0.0000 C   0  0  0  0  0  0  0  0  0  0  0  0
    1.9592    1.8575    0.0000 O   0  0  0  0  0  0  0  0  0  0  0  0
    2.6737    0.6200    0.0000 C   0  0  0  0  0  0  0  0  0  0  0  0
    3.3882    1.0325    0.0000 O   0  0  0  0  0  0  0  0  0  0  0  0
    4.1026    0.6200    0.0000 C   0  0  0  0  0  0  0  0  0  0  0  0
    4.8171    1.0325    0.0000 C   0  0  0  0  0  0  0  0  0  0  0  0
    5.5316    0.6200    0.0000 C   0  0  0  0  0  0  0  0  0  0  0  0
    5.5316   -0.2050    0.0000 C   0  0  0  0  0  0  0  0  0  0  0  0
    6.2461   -0.6175    0.0000 Cl  0  0  0  0  0  0  0  0  0  0  0  0
    4.8171   -0.6175    0.0000 C   0  0  0  0  0  0  0  0  0  0  0  0
    4.1026   -0.2050    0.0000 C   0  0  0  0  0  0  0  0  0  0  0  0
    2.6737   -0.2050    0.0000 N   0  0  0  0  0  0  0  0  0  0  0  0
    3.3411   -0.6899    0.0000 C   0  0  0  0  0  0  0  0  0  0  0  0
    3.0862   -1.4745    0.0000 C   0  0  0  0  0  0  0  0  0  0  0  0
    2.2612   -1.4745    0.0000 N   0  0  0  0  0  0  0  0  0  0  0  0
    2.0063   -0.6899    0.0000 C   0  0  0  0  0  0  0  0  0  0  0  0
    0.1178    0.9220    0.0000 H   0  0  0  0  0  0  0  0  0  0  0  0
   -0.1842   -0.2050    0.0000 H   0  0  0  0  0  0  0  0  0  0  0  0
    0.9428   -0.5069    0.0000 H   0  0  0  0  0  0  0  0  0  0  0  0
    2.4822   -0.0908    0.0000 H   0  0  0  0  0  0  0  0  0  0  0  0
    2.0682    0.6209    0.0000 H   0  0  0  0  0  0  0  0  0  0  0  0
    1.4463   -0.8920    0.0000 H   0  0  0  0  0  0  0  0  0  0  0  0
    1.6502    1.4422    0.0000 H   0  0  0  0  0  0  0  0  0  0  0  0
    1.0458    2.1314    0.0000 H   0  0  0  0  0  0  0  0  0  0  0  0
    0.1777    1.8367    0.0000 H   0  0  0  0  0  0  0  0  0  0  0  0
    2.6737    1.4450    0.0000 H   0  0  0  0  0  0  0  0  0  0  0  0
    4.8171    1.8575    0.0000 H   0  0  0  0  0  0  0  0  0  0  0  0
    6.2461    1.0325    0.0000 H   0  0  0  0  0  0  0  0  0  0  0  0
    4.8171   -1.4425    0.0000 H   0  0  0  0  0  0  0  0  0  0  0  0
    3.3794    0.1919    0.0000 H   0  0  0  0  0  0  0  0  0  0  0  0
    3.9934   -1.1950    0.0000 H   0  0  0  0  0  0  0  0  0  0  0  0
    3.2090   -2.2903    0.0000 H   0  0  0  0  0  0  0  0  0  0  0  0
    2.7909   -0.9448    0.0000 H   0  0  0  0  0  0  0  0  0  0  0  0
  1  2  1  0  0  0  0
  2  3  1  0  0  0  0
  2  4  1  0  0  0  0
  2  5  1  0  0  0  0
  5  6  2  0  0  0  0
  5  7  1  0  0  0  0
  7  8  1  0  0  0  0
  8  9  1  0  0  0  0
  9 10  4  0  0  0  0
 10 11  4  0  0  0  0
 11 12  4  0  0  0  0
 12 13  1  0  0  0  0
 12 14  4  0  0  0  0
 14 15  4  0  0  0  0
  9 15  4  0  0  0  0
  7 16  1  0  0  0  0
 16 17  4  0  0  0  0
 17 18  4  0  0  0  0
 18 19  4  0  0  0  0
 19 20  4  0  0  0  0
 16 20  4  0  0  0  0
  1 21  1  0  0  0  0
  1 22  1  0  0  0  0
  1 23  1  0  0  0  0
  3 24  1  0  0  0  0
  3 25  1  0  0  0  0
  3 26  1  0  0  0  0
  4 27  1  0  0  0  0
  4 28  1  0  0  0  0
  4 29  1  0  0  0  0
  7 30  1  0  0  0  0
 10 31  1  0  0  0  0
 11 32  1  0  0  0  0
 14 33  1  0  0  0  0
 15 34  1  0  0  0  0
 17 35  1  0  0  0  0
 18 36  1  0  0  0  0
 20 37  1  0  0  0  0
M  END
>  <InChIKey>
InChI=1S/C15H17ClN2O2/c1-15(2,3)13(19)14(18-9-8-17-10-18)20-12-6-4-11(16)5-7-12/h4-10,14H,1-3H3

>  <CASRN>
38083-17-9

> <Outcome>
1

>  <Index>
2439

>  <StandardizerResult>
Dearomatize (ID: Dearomatize)
Clear Stereo (ID: ClearStereo)
Wedge Clean (ID: WedgeClean)
Mesomerize (ID: Mesomerize)
Tautomerize (ID: Tautomerize)
Aromatize (ID: Aromatize)
Add Explicit Hydrogens (ID: AddExplicitH)
Neutralize (ID: Neutralize)
Clean 2D (ID: Clean2D)

> <knn Distance>


> <CpId>
2439

$$$$
2443
  Mrv1532301301811342D          

  9  8  0  0  0  0            999 V2000
    1.2375    0.7145    0.0000 C   0  0  0  0  0  0  0  0  0  0  0  0
    0.8250    0.0000    0.0000 C   0  0  0  0  0  0  0  0  0  0  0  0
   -0.0000    0.0000    0.0000 C   0  0  0  0  0  0  0  0  0  0  0  0
   -0.4125   -0.7145    0.0000 Cl  0  0  0  0  0  0  0  0  0  0  0  0
    1.9520    0.3020    0.0000 H   0  0  0  0  0  0  0  0  0  0  0  0
    1.6500    1.4290    0.0000 H   0  0  0  0  0  0  0  0  0  0  0  0
    0.5230    1.1270    0.0000 H   0  0  0  0  0  0  0  0  0  0  0  0
    1.2375   -0.7145    0.0000 H   0  0  0  0  0  0  0  0  0  0  0  0
   -0.4125    0.7145    0.0000 H   0  0  0  0  0  0  0  0  0  0  0  0
  2  1  1  4  0  0  0
  2  3  2  0  0  0  0
  3  4  1  0  0  0  0
  1  5  1  0  0  0  0
  1  6  1  0  0  0  0
  1  7  1  0  0  0  0
  2  8  1  0  0  0  0
  3  9  1  0  0  0  0
M  END
>  <InChIKey>
InChI=1S/C3H5Cl/c1-2-3-4/h2-3H,1H3

>  <CASRN>
590-21-6

> <Outcome>
1

>  <Index>
2443

>  <StandardizerResult>
Clear Stereo (ID: ClearStereo)
Wedge Clean (ID: WedgeClean)
Mesomerize (ID: Mesomerize)
Tautomerize (ID: Tautomerize)
Add Explicit Hydrogens (ID: AddExplicitH)
Neutralize (ID: Neutralize)
Clean 2D (ID: Clean2D)

> <knn Distance>


> <CpId>
2443

$$$$
2445
  Mrv1532301301811342D          

 47 49  0  0  0  0            999 V2000
    2.5367   -4.1683    0.0000 C   0  0  0  0  0  0  0  0  0  0  0  0
    3.1687   -3.6380    0.0000 C   0  0  0  0  0  0  0  0  0  0  0  0
    3.8007   -4.1683    0.0000 C   0  0  0  0  0  0  0  0  0  0  0  0
    2.7562   -2.9235    0.0000 C   0  0  0  0  0  0  0  0  0  0  0  0
    2.0417   -2.5110    0.0000 C   0  0  0  0  0  0  0  0  0  0  0  0
    2.0417   -1.6860    0.0000 C   0  0  0  0  0  0  0  0  0  0  0  0
    1.3273   -1.2735    0.0000 Br  0  0  0  0  0  0  0  0  0  0  0  0
    2.7562   -1.2735    0.0000 Br  0  0  0  0  0  0  0  0  0  0  0  0
    3.5812   -2.9235    0.0000 C   0  0  0  0  0  0  0  0  0  0  0  0
    4.2957   -2.5110    0.0000 C   0  0  0  0  0  0  0  0  0  0  0  0
    5.0102   -2.9235    0.0000 O   0  0  0  0  0  0  0  0  0  0  0  0
    4.2957   -1.6860    0.0000 O   0  0  0  0  0  0  0  0  0  0  0  0
    5.0102   -1.2735    0.0000 C   0  0  0  0  0  0  0  0  0  0  0  0
    5.7246   -1.6860    0.0000 C   0  0  0  0  0  0  0  0  0  0  0  0
    6.4391   -2.0985    0.0000 N   0  0  0  0  0  0  0  0  0  0  0  0
    5.0102   -0.4485    0.0000 C   0  0  0  0  0  0  0  0  0  0  0  0
    4.2957   -0.0360    0.0000 C   0  0  0  0  0  0  0  0  0  0  0  0
    4.2957    0.7890    0.0000 C   0  0  0  0  0  0  0  0  0  0  0  0
    5.0102    1.2015    0.0000 C   0  0  0  0  0  0  0  0  0  0  0  0
    5.7246    0.7890    0.0000 C   0  0  0  0  0  0  0  0  0  0  0  0
    6.4391    1.2015    0.0000 O   0  0  0  0  0  0  0  0  0  0  0  0
    7.1536    0.7890    0.0000 C   0  0  0  0  0  0  0  0  0  0  0  0
    7.8680    1.2015    0.0000 C   0  0  0  0  0  0  0  0  0  0  0  0
    8.5825    0.7890    0.0000 C   0  0  0  0  0  0  0  0  0  0  0  0
    8.5825   -0.0360    0.0000 C   0  0  0  0  0  0  0  0  0  0  0  0
    7.8680   -0.4485    0.0000 C   0  0  0  0  0  0  0  0  0  0  0  0
    7.1536   -0.0360    0.0000 C   0  0  0  0  0  0  0  0  0  0  0  0
    5.7246   -0.0360    0.0000 C   0  0  0  0  0  0  0  0  0  0  0  0
    2.0064   -3.5363    0.0000 H   0  0  0  0  0  0  0  0  0  0  0  0
    1.9047   -4.6986    0.0000 H   0  0  0  0  0  0  0  0  0  0  0  0
    3.0670   -4.8002    0.0000 H   0  0  0  0  0  0  0  0  0  0  0  0
    4.0904   -4.9407    0.0000 H   0  0  0  0  0  0  0  0  0  0  0  0
    4.6257   -4.1629    0.0000 H   0  0  0  0  0  0  0  0  0  0  0  0
    4.0804   -3.3921    0.0000 H   0  0  0  0  0  0  0  0  0  0  0  0
    2.9697   -2.1266    0.0000 H   0  0  0  0  0  0  0  0  0  0  0  0
    1.3273   -2.9235    0.0000 H   0  0  0  0  0  0  0  0  0  0  0  0
    3.3677   -2.1266    0.0000 H   0  0  0  0  0  0  0  0  0  0  0  0
    5.0102   -2.0985    0.0000 H   0  0  0  0  0  0  0  0  0  0  0  0
    3.5812   -0.4485    0.0000 H   0  0  0  0  0  0  0  0  0  0  0  0
    3.5812    1.2015    0.0000 H   0  0  0  0  0  0  0  0  0  0  0  0
    5.0102    2.0265    0.0000 H   0  0  0  0  0  0  0  0  0  0  0  0
    7.8680    2.0265    0.0000 H   0  0  0  0  0  0  0  0  0  0  0  0
    9.2970    1.2015    0.0000 H   0  0  0  0  0  0  0  0  0  0  0  0
    9.2970   -0.4485    0.0000 H   0  0  0  0  0  0  0  0  0  0  0  0
    7.8680   -1.2735    0.0000 H   0  0  0  0  0  0  0  0  0  0  0  0
    6.4391   -0.4485    0.0000 H   0  0  0  0  0  0  0  0  0  0  0  0
    5.7246   -0.8610    0.0000 H   0  0  0  0  0  0  0  0  0  0  0  0
  1  2  1  0  0  0  0
  2  3  1  0  0  0  0
  2  4  1  0  0  0  0
  4  5  1  0  0  0  0
  5  6  2  0  0  0  0
  6  7  1  0  0  0  0
  6  8  1  0  0  0  0
  4  9  1  0  0  0  0
  2  9  1  0  0  0  0
  9 10  1  0  0  0  0
 10 11  2  0  0  0  0
 10 12  1  0  0  0  0
 12 13  1  0  0  0  0
 13 14  1  0  0  0  0
 14 15  3  0  0  0  0
 13 16  1  0  0  0  0
 16 17  4  0  0  0  0
 17 18  4  0  0  0  0
 18 19  4  0  0  0  0
 19 20  4  0  0  0  0
 20 21  1  0  0  0  0
 21 22  1  0  0  0  0
 22 23  4  0  0  0  0
 23 24  4  0  0  0  0
 24 25  4  0  0  0  0
 25 26  4  0  0  0  0
 26 27  4  0  0  0  0
 22 27  4  0  0  0  0
 20 28  4  0  0  0  0
 16 28  4  0  0  0  0
  1 29  1  0  0  0  0
  1 30  1  0  0  0  0
  1 31  1  0  0  0  0
  3 32  1  0  0  0  0
  3 33  1  0  0  0  0
  3 34  1  0  0  0  0
  4 35  1  0  0  0  0
  5 36  1  0  0  0  0
  9 37  1  0  0  0  0
 13 38  1  0  0  0  0
 17 39  1  0  0  0  0
 18 40  1  0  0  0  0
 19 41  1  0  0  0  0
 23 42  1  0  0  0  0
 24 43  1  0  0  0  0
 25 44  1  0  0  0  0
 26 45  1  0  0  0  0
 27 46  1  0  0  0  0
 28 47  1  0  0  0  0
M  END
>  <InChIKey>
InChI=1S/C22H19Br2NO3/c1-22(2)17(12-19(23)24)20(22)21(26)28-18(13-25)14-7-6-10-16(11-14)27-15-8-4-3-5-9-15/h3-12,17-18,20H,1-2H3

>  <CASRN>
52918-63-5

> <Outcome>
1

>  <Index>
2445

>  <StandardizerResult>
Dearomatize (ID: Dearomatize)
Clear Stereo (ID: ClearStereo)
Wedge Clean (ID: WedgeClean)
Mesomerize (ID: Mesomerize)
Tautomerize (ID: Tautomerize)
Aromatize (ID: Aromatize)
Add Explicit Hydrogens (ID: AddExplicitH)
Neutralize (ID: Neutralize)
Clean 2D (ID: Clean2D)

> <knn Distance>


> <CpId>
2445

$$$$
2451
  Mrv1532301301811342D          

 11 11  0  0  0  0            999 V2000
    0.3660    1.7438    0.0000 C   0  0  0  0  0  0  0  0  0  0  0  0
    0.3660    0.9188    0.0000 C   0  0  0  0  0  0  0  0  0  0  0  0
    0.7785    0.2043    0.0000 C   0  0  0  0  0  0  0  0  0  0  0  0
   -0.0465    0.2043    0.0000 N   0  0  0  0  0  0  0  0  0  0  0  0
    1.1910    1.7438    0.0000 H   0  0  0  0  0  0  0  0  0  0  0  0
    0.3660    2.5688    0.0000 H   0  0  0  0  0  0  0  0  0  0  0  0
   -0.4590    1.7438    0.0000 H   0  0  0  0  0  0  0  0  0  0  0  0
   -0.4309    1.1323    0.0000 H   0  0  0  0  0  0  0  0  0  0  0  0
    1.1487   -0.5329    0.0000 H   0  0  0  0  0  0  0  0  0  0  0  0
    1.6021    0.2523    0.0000 H   0  0  0  0  0  0  0  0  0  0  0  0
   -0.7610   -0.2082    0.0000 H   0  0  0  0  0  0  0  0  0  0  0  0
  1  2  1  0  0  0  0
  2  3  1  0  0  0  0
  3  4  1  0  0  0  0
  2  4  1  0  0  0  0
  1  5  1  0  0  0  0
  1  6  1  0  0  0  0
  1  7  1  0  0  0  0
  2  8  1  0  0  0  0
  3  9  1  0  0  0  0
  3 10  1  0  0  0  0
  4 11  1  0  0  0  0
M  END
>  <InChIKey>
InChI=1S/C3H7N/c1-3-2-4-3/h3-4H,2H2,1H3

>  <CASRN>
75-55-8

> <Outcome>
1

>  <Index>
2451

>  <StandardizerResult>
Clear Stereo (ID: ClearStereo)
Wedge Clean (ID: WedgeClean)
Mesomerize (ID: Mesomerize)
Tautomerize (ID: Tautomerize)
Add Explicit Hydrogens (ID: AddExplicitH)
Neutralize (ID: Neutralize)
Clean 2D (ID: Clean2D)

> <knn Distance>


> <CpId>
2451

$$$$
2453
  Mrv1532301301811342D          

 15 15  0  0  0  0            999 V2000
    0.7145    2.0625    0.0000 C   0  0  0  0  0  0  0  0  0  0  0  0
    0.7145    1.2375    0.0000 C   0  0  0  0  0  0  0  0  0  0  0  0
    1.4289    0.8250    0.0000 C   0  0  0  0  0  0  0  0  0  0  0  0
    2.1434    1.2375    0.0000 Br  0  0  0  0  0  0  0  0  0  0  0  0
    1.4289   -0.0000    0.0000 C   0  0  0  0  0  0  0  0  0  0  0  0
    2.1434   -0.4125    0.0000 Br  0  0  0  0  0  0  0  0  0  0  0  0
    0.7145   -0.4125    0.0000 C   0  0  0  0  0  0  0  0  0  0  0  0
    0.7145   -1.2375    0.0000 Br  0  0  0  0  0  0  0  0  0  0  0  0
    0.0000    0.0000    0.0000 C   0  0  0  0  0  0  0  0  0  0  0  0
   -0.7145   -0.4125    0.0000 Br  0  0  0  0  0  0  0  0  0  0  0  0
    0.0000    0.8250    0.0000 C   0  0  0  0  0  0  0  0  0  0  0  0
   -0.7145    1.2375    0.0000 Br  0  0  0  0  0  0  0  0  0  0  0  0
    1.5395    2.0625    0.0000 H   0  0  0  0  0  0  0  0  0  0  0  0
    0.7145    2.8875    0.0000 H   0  0  0  0  0  0  0  0  0  0  0  0
   -0.1105    2.0625    0.0000 H   0  0  0  0  0  0  0  0  0  0  0  0
  1  2  1  0  0  0  0
  2  3  4  0  0  0  0
  3  4  1  0  0  0  0
  3  5  4  0  0  0  0
  5  6  1  0  0  0  0
  5  7  4  0  0  0  0
  7  8  1  0  0  0  0
  7  9  4  0  0  0  0
  9 10  1  0  0  0  0
  9 11  4  0  0  0  0
  2 11  4  0  0  0  0
 11 12  1  0  0  0  0
  1 13  1  0  0  0  0
  1 14  1  0  0  0  0
  1 15  1  0  0  0  0
M  END
>  <InChIKey>
InChI=1S/C7H3Br5/c1-2-3(8)5(10)7(12)6(11)4(2)9/h1H3

>  <CASRN>
87-83-2

> <Outcome>
1

>  <Index>
2453

>  <StandardizerResult>
Dearomatize (ID: Dearomatize)
Clear Stereo (ID: ClearStereo)
Wedge Clean (ID: WedgeClean)
Mesomerize (ID: Mesomerize)
Tautomerize (ID: Tautomerize)
Aromatize (ID: Aromatize)
Add Explicit Hydrogens (ID: AddExplicitH)
Neutralize (ID: Neutralize)
Clean 2D (ID: Clean2D)

> <knn Distance>


> <CpId>
2453

$$$$
2464
  Mrv1532301301811342D          

 12 12  0  0  0  0            999 V2000
    0.7145    2.0625    0.0000 Cl  0  0  0  0  0  0  0  0  0  0  0  0
    0.7145    1.2375    0.0000 C   0  0  0  0  0  0  0  0  0  0  0  0
    1.4289    0.8250    0.0000 C   0  0  0  0  0  0  0  0  0  0  0  0
    1.4289    0.0000    0.0000 C   0  0  0  0  0  0  0  0  0  0  0  0
    0.7145   -0.4125    0.0000 C   0  0  0  0  0  0  0  0  0  0  0  0
    0.7145   -1.2375    0.0000 Cl  0  0  0  0  0  0  0  0  0  0  0  0
   -0.0000    0.0000    0.0000 C   0  0  0  0  0  0  0  0  0  0  0  0
   -0.7145   -0.4125    0.0000 Cl  0  0  0  0  0  0  0  0  0  0  0  0
   -0.0000    0.8250    0.0000 C   0  0  0  0  0  0  0  0  0  0  0  0
    2.1434    1.2375    0.0000 H   0  0  0  0  0  0  0  0  0  0  0  0
    2.1434   -0.4125    0.0000 H   0  0  0  0  0  0  0  0  0  0  0  0
   -0.7145    1.2375    0.0000 H   0  0  0  0  0  0  0  0  0  0  0  0
  1  2  1  0  0  0  0
  2  3  4  0  0  0  0
  3  4  4  0  0  0  0
  4  5  4  0  0  0  0
  5  6  1  0  0  0  0
  5  7  4  0  0  0  0
  7  8  1  0  0  0  0
  7  9  4  0  0  0  0
  2  9  4  0  0  0  0
  3 10  1  0  0  0  0
  4 11  1  0  0  0  0
  9 12  1  0  0  0  0
M  END
>  <InChIKey>
InChI=1S/C6H3Cl3/c7-4-1-2-5(8)6(9)3-4/h1-3H

>  <CASRN>
120-82-1

> <Outcome>
1

>  <Index>
2464

>  <StandardizerResult>
Dearomatize (ID: Dearomatize)
Clear Stereo (ID: ClearStereo)
Wedge Clean (ID: WedgeClean)
Mesomerize (ID: Mesomerize)
Tautomerize (ID: Tautomerize)
Aromatize (ID: Aromatize)
Add Explicit Hydrogens (ID: AddExplicitH)
Neutralize (ID: Neutralize)
Clean 2D (ID: Clean2D)

> <knn Distance>


> <CpId>
2464

$$$$
2467
  Mrv1532301301811342D          

 12 12  0  0  0  0            999 V2000
    1.5709   -1.1454    0.0000 Br  0  0  0  0  0  0  0  0  0  0  0  0
    1.0860   -0.4780    0.0000 N   0  0  0  0  0  0  0  0  0  0  0  0
    0.2610   -0.4780    0.0000 C   0  0  0  0  0  0  0  0  0  0  0  0
   -0.2239   -1.1454    0.0000 O   0  0  0  0  0  0  0  0  0  0  0  0
    0.0060    0.3067    0.0000 C   0  0  0  0  0  0  0  0  0  0  0  0
    0.6735    0.7916    0.0000 C   0  0  0  0  0  0  0  0  0  0  0  0
    1.3409    0.3067    0.0000 C   0  0  0  0  0  0  0  0  0  0  0  0
    2.1255    0.5616    0.0000 O   0  0  0  0  0  0  0  0  0  0  0  0
   -0.5670    0.9001    0.0000 H   0  0  0  0  0  0  0  0  0  0  0  0
   -0.8064    0.1634    0.0000 H   0  0  0  0  0  0  0  0  0  0  0  0
    1.0608    1.5200    0.0000 H   0  0  0  0  0  0  0  0  0  0  0  0
    0.2862    1.5200    0.0000 H   0  0  0  0  0  0  0  0  0  0  0  0
  1  2  1  0  0  0  0
  2  3  1  0  0  0  0
  3  4  2  0  0  0  0
  3  5  1  0  0  0  0
  5  6  1  0  0  0  0
  6  7  1  0  0  0  0
  2  7  1  0  0  0  0
  7  8  2  0  0  0  0
  5  9  1  0  0  0  0
  5 10  1  0  0  0  0
  6 11  1  0  0  0  0
  6 12  1  0  0  0  0
M  END
>  <InChIKey>
InChI=1S/C4H4BrNO2/c5-6-3(7)1-2-4(6)8/h1-2H2

>  <CASRN>
128-08-5

> <Outcome>
1

>  <Index>
2467

>  <StandardizerResult>
Clear Stereo (ID: ClearStereo)
Wedge Clean (ID: WedgeClean)
Mesomerize (ID: Mesomerize)
Tautomerize (ID: Tautomerize)
Add Explicit Hydrogens (ID: AddExplicitH)
Neutralize (ID: Neutralize)
Clean 2D (ID: Clean2D)

> <knn Distance>


> <CpId>
2467

$$$$
2470
  Mrv1532301301811342D          

 21 21  0  0  0  0            999 V2000
    0.0000   -2.4750    0.0000 C   0  0  0  0  0  0  0  0  0  0  0  0
    0.7145   -2.8875    0.0000 C   0  0  0  0  0  0  0  0  0  0  0  0
    0.7145   -3.7125    0.0000 O   0  0  0  0  0  0  0  0  0  0  0  0
    1.4289   -2.4750    0.0000 O   0  0  0  0  0  0  0  0  0  0  0  0
    2.1434   -2.8875    0.0000 O   0  0  0  0  0  0  0  0  0  0  0  0
    2.8579   -2.4750    0.0000 C   0  0  0  0  0  0  0  0  0  0  0  0
    2.8579   -1.6500    0.0000 O   0  0  0  0  0  0  0  0  0  0  0  0
    3.5724   -2.8875    0.0000 C   0  0  0  0  0  0  0  0  0  0  0  0
    4.2868   -2.4750    0.0000 C   0  0  0  0  0  0  0  0  0  0  0  0
    5.0013   -2.8875    0.0000 C   0  0  0  0  0  0  0  0  0  0  0  0
    5.0013   -3.7125    0.0000 C   0  0  0  0  0  0  0  0  0  0  0  0
    4.2868   -4.1250    0.0000 C   0  0  0  0  0  0  0  0  0  0  0  0
    3.5724   -3.7125    0.0000 C   0  0  0  0  0  0  0  0  0  0  0  0
    0.4125   -1.7605    0.0000 H   0  0  0  0  0  0  0  0  0  0  0  0
   -0.7145   -2.0625    0.0000 H   0  0  0  0  0  0  0  0  0  0  0  0
   -0.4125   -3.1895    0.0000 H   0  0  0  0  0  0  0  0  0  0  0  0
    4.2868   -1.6500    0.0000 H   0  0  0  0  0  0  0  0  0  0  0  0
    5.7158   -2.4750    0.0000 H   0  0  0  0  0  0  0  0  0  0  0  0
    5.7158   -4.1250    0.0000 H   0  0  0  0  0  0  0  0  0  0  0  0
    4.2868   -4.9500    0.0000 H   0  0  0  0  0  0  0  0  0  0  0  0
    2.8579   -4.1250    0.0000 H   0  0  0  0  0  0  0  0  0  0  0  0
  1  2  1  0  0  0  0
  2  3  2  0  0  0  0
  2  4  1  0  0  0  0
  4  5  1  0  0  0  0
  5  6  1  0  0  0  0
  6  7  2  0  0  0  0
  6  8  1  0  0  0  0
  8  9  4  0  0  0  0
  9 10  4  0  0  0  0
 10 11  4  0  0  0  0
 11 12  4  0  0  0  0
 12 13  4  0  0  0  0
  8 13  4  0  0  0  0
  1 14  1  0  0  0  0
  1 15  1  0  0  0  0
  1 16  1  0  0  0  0
  9 17  1  0  0  0  0
 10 18  1  0  0  0  0
 11 19  1  0  0  0  0
 12 20  1  0  0  0  0
 13 21  1  0  0  0  0
M  END
>  <InChIKey>
InChI=1S/C9H8O4/c1-7(10)12-13-9(11)8-5-3-2-4-6-8/h2-6H,1H3

>  <CASRN>
644-31-5

> <Outcome>
1

>  <Index>
2470

>  <StandardizerResult>
Dearomatize (ID: Dearomatize)
Clear Stereo (ID: ClearStereo)
Wedge Clean (ID: WedgeClean)
Mesomerize (ID: Mesomerize)
Tautomerize (ID: Tautomerize)
Aromatize (ID: Aromatize)
Add Explicit Hydrogens (ID: AddExplicitH)
Neutralize (ID: Neutralize)
Clean 2D (ID: Clean2D)

> <knn Distance>


> <CpId>
2470

$$$$
2472
  Mrv1532301301811342D          

 68 67  0  0  0  0            999 V2000
    7.9460    5.4321    0.0000 C   0  0  0  0  0  0  0  0  0  0  0  0
    8.6604    5.0196    0.0000 C   0  0  0  0  0  0  0  0  0  0  0  0
    9.3749    5.4321    0.0000 C   0  0  0  0  0  0  0  0  0  0  0  0
   10.0894    5.0196    0.0000 C   0  0  0  0  0  0  0  0  0  0  0  0
   10.8039    5.4321    0.0000 C   0  0  0  0  0  0  0  0  0  0  0  0
   11.5183    5.0196    0.0000 C   0  0  0  0  0  0  0  0  0  0  0  0
   12.2328    5.4321    0.0000 C   0  0  0  0  0  0  0  0  0  0  0  0
   12.9473    5.0196    0.0000 C   0  0  0  0  0  0  0  0  0  0  0  0
   13.6617    5.4321    0.0000 C   0  0  0  0  0  0  0  0  0  0  0  0
   14.3762    5.0196    0.0000 C   0  0  0  0  0  0  0  0  0  0  0  0
   15.0907    5.4321    0.0000 C   0  0  0  0  0  0  0  0  0  0  0  0
   15.8052    5.0196    0.0000 C   0  0  0  0  0  0  0  0  0  0  0  0
   16.5196    5.4321    0.0000 C   0  0  0  0  0  0  0  0  0  0  0  0
   17.2341    5.0196    0.0000 C   0  0  0  0  0  0  0  0  0  0  0  0
   17.9486    5.4321    0.0000 C   0  0  0  0  0  0  0  0  0  0  0  0
   18.6630    5.0196    0.0000 C   0  0  0  0  0  0  0  0  0  0  0  0
   19.3775    5.4321    0.0000 C   0  0  0  0  0  0  0  0  0  0  0  0
   20.0920    5.0196    0.0000 C   0  0  0  0  0  0  0  0  0  0  0  0
   20.8064    5.4321    0.0000 N   0  3  0  0  0  0  0  0  0  0  0  0
   21.5209    5.8446    0.0000 C   0  0  0  0  0  0  0  0  0  0  0  0
   21.2189    4.7176    0.0000 C   0  0  0  0  0  0  0  0  0  0  0  0
   20.3939    6.1466    0.0000 C   0  0  0  0  0  0  0  0  0  0  0  0
    8.3585    6.1466    0.0000 H   0  0  0  0  0  0  0  0  0  0  0  0
    7.2315    5.8446    0.0000 H   0  0  0  0  0  0  0  0  0  0  0  0
    7.5335    4.7176    0.0000 H   0  0  0  0  0  0  0  0  0  0  0  0
    8.2902    4.2824    0.0000 H   0  0  0  0  0  0  0  0  0  0  0  0
    9.0307    4.2824    0.0000 H   0  0  0  0  0  0  0  0  0  0  0  0
    9.7452    6.1693    0.0000 H   0  0  0  0  0  0  0  0  0  0  0  0
    9.0047    6.1693    0.0000 H   0  0  0  0  0  0  0  0  0  0  0  0
    9.7191    4.2824    0.0000 H   0  0  0  0  0  0  0  0  0  0  0  0
   10.4596    4.2824    0.0000 H   0  0  0  0  0  0  0  0  0  0  0  0
   11.1741    6.1693    0.0000 H   0  0  0  0  0  0  0  0  0  0  0  0
   10.4336    6.1693    0.0000 H   0  0  0  0  0  0  0  0  0  0  0  0
   11.1481    4.2824    0.0000 H   0  0  0  0  0  0  0  0  0  0  0  0
   11.8886    4.2824    0.0000 H   0  0  0  0  0  0  0  0  0  0  0  0
   12.6031    6.1693    0.0000 H   0  0  0  0  0  0  0  0  0  0  0  0
   11.8625    6.1693    0.0000 H   0  0  0  0  0  0  0  0  0  0  0  0
   12.5770    4.2824    0.0000 H   0  0  0  0  0  0  0  0  0  0  0  0
   13.3175    4.2824    0.0000 H   0  0  0  0  0  0  0  0  0  0  0  0
   14.0320    6.1693    0.0000 H   0  0  0  0  0  0  0  0  0  0  0  0
   13.2915    6.1693    0.0000 H   0  0  0  0  0  0  0  0  0  0  0  0
   14.0060    4.2824    0.0000 H   0  0  0  0  0  0  0  0  0  0  0  0
   14.7465    4.2824    0.0000 H   0  0  0  0  0  0  0  0  0  0  0  0
   15.4609    6.1693    0.0000 H   0  0  0  0  0  0  0  0  0  0  0  0
   14.7204    6.1693    0.0000 H   0  0  0  0  0  0  0  0  0  0  0  0
   15.4349    4.2824    0.0000 H   0  0  0  0  0  0  0  0  0  0  0  0
   16.1754    4.2824    0.0000 H   0  0  0  0  0  0  0  0  0  0  0  0
   16.8899    6.1693    0.0000 H   0  0  0  0  0  0  0  0  0  0  0  0
   16.1494    6.1693    0.0000 H   0  0  0  0  0  0  0  0  0  0  0  0
   16.8638    4.2824    0.0000 H   0  0  0  0  0  0  0  0  0  0  0  0
   17.6044    4.2824    0.0000 H   0  0  0  0  0  0  0  0  0  0  0  0
   18.3188    6.1693    0.0000 H   0  0  0  0  0  0  0  0  0  0  0  0
   17.5783    6.1693    0.0000 H   0  0  0  0  0  0  0  0  0  0  0  0
   18.2928    4.2824    0.0000 H   0  0  0  0  0  0  0  0  0  0  0  0
   19.0333    4.2824    0.0000 H   0  0  0  0  0  0  0  0  0  0  0  0
   19.7478    6.1693    0.0000 H   0  0  0  0  0  0  0  0  0  0  0  0
   19.0072    6.1693    0.0000 H   0  0  0  0  0  0  0  0  0  0  0  0
   19.7217    4.2824    0.0000 H   0  0  0  0  0  0  0  0  0  0  0  0
   20.4622    4.2824    0.0000 H   0  0  0  0  0  0  0  0  0  0  0  0
   21.9334    5.1301    0.0000 H   0  0  0  0  0  0  0  0  0  0  0  0
   22.2354    6.2571    0.0000 H   0  0  0  0  0  0  0  0  0  0  0  0
   21.1084    6.5591    0.0000 H   0  0  0  0  0  0  0  0  0  0  0  0
   21.0045    3.9210    0.0000 H   0  0  0  0  0  0  0  0  0  0  0  0
   21.6309    4.0028    0.0000 H   0  0  0  0  0  0  0  0  0  0  0  0
   22.0158    4.5038    0.0000 H   0  0  0  0  0  0  0  0  0  0  0  0
   20.5467    6.9573    0.0000 H   0  0  0  0  0  0  0  0  0  0  0  0
   19.8786    6.7908    0.0000 H   0  0  0  0  0  0  0  0  0  0  0  0
   19.9689    5.4395    0.0000 H   0  0  0  0  0  0  0  0  0  0  0  0
  1  2  1  0  0  0  0
  2  3  1  0  0  0  0
  3  4  1  0  0  0  0
  4  5  1  0  0  0  0
  5  6  1  0  0  0  0
  6  7  1  0  0  0  0
  7  8  1  0  0  0  0
  8  9  1  0  0  0  0
  9 10  1  0  0  0  0
 10 11  1  0  0  0  0
 11 12  1  0  0  0  0
 12 13  1  0  0  0  0
 13 14  1  0  0  0  0
 14 15  1  0  0  0  0
 15 16  1  0  0  0  0
 16 17  1  0  0  0  0
 17 18  1  0  0  0  0
 18 19  1  0  0  0  0
 19 20  1  0  0  0  0
 19 21  1  0  0  0  0
 19 22  1  0  0  0  0
  1 23  1  0  0  0  0
  1 24  1  0  0  0  0
  1 25  1  0  0  0  0
  2 26  1  0  0  0  0
  2 27  1  0  0  0  0
  3 28  1  0  0  0  0
  3 29  1  0  0  0  0
  4 30  1  0  0  0  0
  4 31  1  0  0  0  0
  5 32  1  0  0  0  0
  5 33  1  0  0  0  0
  6 34  1  0  0  0  0
  6 35  1  0  0  0  0
  7 36  1  0  0  0  0
  7 37  1  0  0  0  0
  8 38  1  0  0  0  0
  8 39  1  0  0  0  0
  9 40  1  0  0  0  0
  9 41  1  0  0  0  0
 10 42  1  0  0  0  0
 10 43  1  0  0  0  0
 11 44  1  0  0  0  0
 11 45  1  0  0  0  0
 12 46  1  0  0  0  0
 12 47  1  0  0  0  0
 13 48  1  0  0  0  0
 13 49  1  0  0  0  0
 14 50  1  0  0  0  0
 14 51  1  0  0  0  0
 15 52  1  0  0  0  0
 15 53  1  0  0  0  0
 16 54  1  0  0  0  0
 16 55  1  0  0  0  0
 17 56  1  0  0  0  0
 17 57  1  0  0  0  0
 18 58  1  0  0  0  0
 18 59  1  0  0  0  0
 20 60  1  0  0  0  0
 20 61  1  0  0  0  0
 20 62  1  0  0  0  0
 21 63  1  0  0  0  0
 21 64  1  0  0  0  0
 21 65  1  0  0  0  0
 22 66  1  0  0  0  0
 22 67  1  0  0  0  0
 22 68  1  0  0  0  0
M  CHG  1  19   1
M  END
>  <InChIKey>
InChI=1S/C21H46N/c1-5-6-7-8-9-10-11-12-13-14-15-16-17-18-19-20-21-22(2,3)4/h5-21H2,1-4H3/q+1

>  <UN GHS>
1

>  <CASRN>
112-03-8

> <Outcome>
1

>  <Index>
2472

>  <StandardizerResult>
Clear Stereo (ID: ClearStereo)
Wedge Clean (ID: WedgeClean)
Mesomerize (ID: Mesomerize)
Tautomerize (ID: Tautomerize)
Add Explicit Hydrogens (ID: AddExplicitH)
Clean 2D (ID: Clean2D)

> <knn Distance>


> <CpId>
2472

$$$$
2474
  Mrv1532301301811342D          

 66 67  0  0  0  0            999 V2000
    0.7400    1.2333    0.0000 C   0  0  0  0  0  0  0  0  0  0  0  0
    1.4545    0.8208    0.0000 C   0  0  0  0  0  0  0  0  0  0  0  0
    1.4545   -0.0042    0.0000 C   0  0  0  0  0  0  0  0  0  0  0  0
    2.1690   -0.4167    0.0000 C   0  0  0  0  0  0  0  0  0  0  0  0
    2.1690   -1.2417    0.0000 C   0  0  0  0  0  0  0  0  0  0  0  0
    2.8834   -1.6542    0.0000 C   0  0  0  0  0  0  0  0  0  0  0  0
    2.8834   -2.4792    0.0000 C   0  0  0  0  0  0  0  0  0  0  0  0
    2.1690   -2.8917    0.0000 C   0  0  0  0  0  0  0  0  0  0  0  0
    2.1690   -3.7167    0.0000 O   0  0  0  0  0  0  0  0  0  0  0  0
    1.4545   -2.4792    0.0000 C   0  0  0  0  0  0  0  0  0  0  0  0
    1.4545   -1.6542    0.0000 C   0  0  0  0  0  0  0  0  0  0  0  0
    0.7400   -1.2417    0.0000 C   0  0  0  0  0  0  0  0  0  0  0  0
    3.5979   -2.8917    0.0000 C   0  0  0  0  0  0  0  0  0  0  0  0
    4.3124   -3.3042    0.0000 C   0  0  0  0  0  0  0  0  0  0  0  0
    3.1854   -3.6062    0.0000 C   0  0  0  0  0  0  0  0  0  0  0  0
    4.0104   -2.1773    0.0000 C   0  0  0  0  0  0  0  0  0  0  0  0
    2.8834   -0.0042    0.0000 C   0  0  0  0  0  0  0  0  0  0  0  0
    2.8834    0.8208    0.0000 C   0  0  0  0  0  0  0  0  0  0  0  0
    3.5979    1.2333    0.0000 C   0  0  0  0  0  0  0  0  0  0  0  0
    4.3124    0.8208    0.0000 C   0  0  0  0  0  0  0  0  0  0  0  0
    5.0269    1.2333    0.0000 O   0  0  0  0  0  0  0  0  0  0  0  0
    4.3124   -0.0042    0.0000 C   0  0  0  0  0  0  0  0  0  0  0  0
    3.5979   -0.4167    0.0000 C   0  0  0  0  0  0  0  0  0  0  0  0
    3.5979   -1.2417    0.0000 C   0  0  0  0  0  0  0  0  0  0  0  0
    3.5979    2.0583    0.0000 C   0  0  0  0  0  0  0  0  0  0  0  0
    3.5979    2.8833    0.0000 C   0  0  0  0  0  0  0  0  0  0  0  0
    4.4229    2.0583    0.0000 C   0  0  0  0  0  0  0  0  0  0  0  0
    2.7729    2.0583    0.0000 C   0  0  0  0  0  0  0  0  0  0  0  0
    1.1525    1.9477    0.0000 H   0  0  0  0  0  0  0  0  0  0  0  0
    0.0256    1.6458    0.0000 H   0  0  0  0  0  0  0  0  0  0  0  0
    0.3275    0.5188    0.0000 H   0  0  0  0  0  0  0  0  0  0  0  0
    2.2781    0.8687    0.0000 H   0  0  0  0  0  0  0  0  0  0  0  0
    1.9078    1.5100    0.0000 H   0  0  0  0  0  0  0  0  0  0  0  0
    0.6309   -0.0522    0.0000 H   0  0  0  0  0  0  0  0  0  0  0  0
    1.0012   -0.6935    0.0000 H   0  0  0  0  0  0  0  0  0  0  0  0
    1.4545   -0.8292    0.0000 H   0  0  0  0  0  0  0  0  0  0  0  0
    2.8834   -0.8292    0.0000 H   0  0  0  0  0  0  0  0  0  0  0  0
    1.4545   -4.1292    0.0000 H   0  0  0  0  0  0  0  0  0  0  0  0
    0.7400   -2.8917    0.0000 H   0  0  0  0  0  0  0  0  0  0  0  0
    0.1999   -0.6181    0.0000 H   0  0  0  0  0  0  0  0  0  0  0  0
   -0.0478   -1.4866    0.0000 H   0  0  0  0  0  0  0  0  0  0  0  0
    0.6485   -2.0617    0.0000 H   0  0  0  0  0  0  0  0  0  0  0  0
    3.8999   -4.0187    0.0000 H   0  0  0  0  0  0  0  0  0  0  0  0
    5.0269   -3.7167    0.0000 H   0  0  0  0  0  0  0  0  0  0  0  0
    4.7249   -2.5898    0.0000 H   0  0  0  0  0  0  0  0  0  0  0  0
    2.6832   -2.9517    0.0000 H   0  0  0  0  0  0  0  0  0  0  0  0
    2.3885   -3.8197    0.0000 H   0  0  0  0  0  0  0  0  0  0  0  0
    3.0777   -4.4242    0.0000 H   0  0  0  0  0  0  0  0  0  0  0  0
    4.6649   -1.6750    0.0000 H   0  0  0  0  0  0  0  0  0  0  0  0
    3.7969   -1.3804    0.0000 H   0  0  0  0  0  0  0  0  0  0  0  0
    3.1925   -2.0696    0.0000 H   0  0  0  0  0  0  0  0  0  0  0  0
    2.7016    1.6255    0.0000 H   0  0  0  0  0  0  0  0  0  0  0  0
    5.7413    0.8208    0.0000 H   0  0  0  0  0  0  0  0  0  0  0  0
    5.0269   -0.4167    0.0000 H   0  0  0  0  0  0  0  0  0  0  0  0
    4.4172   -1.1447    0.0000 H   0  0  0  0  0  0  0  0  0  0  0  0
    4.1459   -0.6250    0.0000 H   0  0  0  0  0  0  0  0  0  0  0  0
    3.8047   -2.0404    0.0000 H   0  0  0  0  0  0  0  0  0  0  0  0
    4.4229    2.8833    0.0000 H   0  0  0  0  0  0  0  0  0  0  0  0
    3.5979    3.7083    0.0000 H   0  0  0  0  0  0  0  0  0  0  0  0
    2.7729    2.8833    0.0000 H   0  0  0  0  0  0  0  0  0  0  0  0
    4.1072    1.2961    0.0000 H   0  0  0  0  0  0  0  0  0  0  0  0
    5.0063    1.4749    0.0000 H   0  0  0  0  0  0  0  0  0  0  0  0
    5.1851    2.3740    0.0000 H   0  0  0  0  0  0  0  0  0  0  0  0
    2.2139    2.6650    0.0000 H   0  0  0  0  0  0  0  0  0  0  0  0
    1.9507    2.1256    0.0000 H   0  0  0  0  0  0  0  0  0  0  0  0
    2.1226    1.5506    0.0000 H   0  0  0  0  0  0  0  0  0  0  0  0
  1  2  1  0  0  0  0
  2  3  1  0  0  0  0
  3  4  1  0  0  0  0
  4  5  1  0  0  0  0
  5  6  4  0  0  0  0
  6  7  4  0  0  0  0
  7  8  4  0  0  0  0
  8  9  1  0  0  0  0
  8 10  4  0  0  0  0
 10 11  4  0  0  0  0
  5 11  4  0  0  0  0
 11 12  1  0  0  0  0
  7 13  1  0  0  0  0
 13 14  1  0  0  0  0
 13 15  1  0  0  0  0
 13 16  1  0  0  0  0
  4 17  1  0  0  0  0
 17 18  4  0  0  0  0
 18 19  4  0  0  0  0
 19 20  4  0  0  0  0
 20 21  1  0  0  0  0
 20 22  4  0  0  0  0
 22 23  4  0  0  0  0
 17 23  4  0  0  0  0
 23 24  1  0  0  0  0
 19 25  1  0  0  0  0
 25 26  1  0  0  0  0
 25 27  1  0  0  0  0
 25 28  1  0  0  0  0
  1 29  1  0  0  0  0
  1 30  1  0  0  0  0
  1 31  1  0  0  0  0
  2 32  1  0  0  0  0
  2 33  1  0  0  0  0
  3 34  1  0  0  0  0
  3 35  1  0  0  0  0
  4 36  1  0  0  0  0
  6 37  1  0  0  0  0
  9 38  1  0  0  0  0
 10 39  1  0  0  0  0
 12 40  1  0  0  0  0
 12 41  1  0  0  0  0
 12 42  1  0  0  0  0
 14 43  1  0  0  0  0
 14 44  1  0  0  0  0
 14 45  1  0  0  0  0
 15 46  1  0  0  0  0
 15 47  1  0  0  0  0
 15 48  1  0  0  0  0
 16 49  1  0  0  0  0
 16 50  1  0  0  0  0
 16 51  1  0  0  0  0
 18 52  1  0  0  0  0
 21 53  1  0  0  0  0
 22 54  1  0  0  0  0
 24 55  1  0  0  0  0
 24 56  1  0  0  0  0
 24 57  1  0  0  0  0
 26 58  1  0  0  0  0
 26 59  1  0  0  0  0
 26 60  1  0  0  0  0
 27 61  1  0  0  0  0
 27 62  1  0  0  0  0
 27 63  1  0  0  0  0
 28 64  1  0  0  0  0
 28 65  1  0  0  0  0
 28 66  1  0  0  0  0
M  END
>  <InChIKey>
InChI=1S/C26H38O2/c1-10-11-18(19-14-21(25(4,5)6)23(27)12-16(19)2)20-15-22(26(7,8)9)24(28)13-17(20)3/h12-15,18,27-28H,10-11H2,1-9H3

>  <CASRN>
85-60-9

> <Outcome>
1

>  <Index>
2474

>  <StandardizerResult>
Dearomatize (ID: Dearomatize)
Clear Stereo (ID: ClearStereo)
Wedge Clean (ID: WedgeClean)
Mesomerize (ID: Mesomerize)
Tautomerize (ID: Tautomerize)
Aromatize (ID: Aromatize)
Add Explicit Hydrogens (ID: AddExplicitH)
Neutralize (ID: Neutralize)
Clean 2D (ID: Clean2D)

> <knn Distance>


> <CpId>
2474

$$$$
2475
  Mrv1532301301811342D          

 21 20  0  0  0  0            999 V2000
   -0.2243    0.7003    0.0000 C   0  0  0  0  0  0  0  0  0  0  0  0
    0.4902    1.1128    0.0000 C   0  0  0  0  0  0  0  0  0  0  0  0
    1.2046    0.7003    0.0000 C   0  0  0  0  0  0  0  0  0  0  0  0
    1.9191    1.1128    0.0000 C   0  0  0  0  0  0  0  0  0  0  0  0
    1.9191    1.9378    0.0000 C   0  0  0  0  0  0  0  0  0  0  0  0
    2.6336    0.7003    0.0000 C   0  0  0  0  0  0  0  0  0  0  0  0
    3.3481    1.1128    0.0000 O   0  0  0  0  0  0  0  0  0  0  0  0
   -0.6368    1.4148    0.0000 H   0  0  0  0  0  0  0  0  0  0  0  0
   -0.9388    0.2878    0.0000 H   0  0  0  0  0  0  0  0  0  0  0  0
    0.1882   -0.0142    0.0000 H   0  0  0  0  0  0  0  0  0  0  0  0
    0.8604    1.8500    0.0000 H   0  0  0  0  0  0  0  0  0  0  0  0
    0.1199    1.8500    0.0000 H   0  0  0  0  0  0  0  0  0  0  0  0
    0.8344   -0.0370    0.0000 H   0  0  0  0  0  0  0  0  0  0  0  0
    1.5749   -0.0370    0.0000 H   0  0  0  0  0  0  0  0  0  0  0  0
    1.2046    1.5253    0.0000 H   0  0  0  0  0  0  0  0  0  0  0  0
    2.7160    1.7243    0.0000 H   0  0  0  0  0  0  0  0  0  0  0  0
    2.3316    2.6523    0.0000 H   0  0  0  0  0  0  0  0  0  0  0  0
    1.3358    2.5212    0.0000 H   0  0  0  0  0  0  0  0  0  0  0  0
    2.2633   -0.0370    0.0000 H   0  0  0  0  0  0  0  0  0  0  0  0
    3.0038   -0.0370    0.0000 H   0  0  0  0  0  0  0  0  0  0  0  0
    4.1669    1.0119    0.0000 H   0  0  0  0  0  0  0  0  0  0  0  0
  1  2  1  0  0  0  0
  2  3  1  0  0  0  0
  3  4  1  0  0  0  0
  4  5  1  0  0  0  0
  4  6  1  0  0  0  0
  6  7  1  0  0  0  0
  1  8  1  0  0  0  0
  1  9  1  0  0  0  0
  1 10  1  0  0  0  0
  2 11  1  0  0  0  0
  2 12  1  0  0  0  0
  3 13  1  0  0  0  0
  3 14  1  0  0  0  0
  4 15  1  0  0  0  0
  5 16  1  0  0  0  0
  5 17  1  0  0  0  0
  5 18  1  0  0  0  0
  6 19  1  0  0  0  0
  6 20  1  0  0  0  0
  7 21  1  0  0  0  0
M  END
>  <InChIKey>
InChI=1S/C6H14O/c1-3-4-6(2)5-7/h6-7H,3-5H2,1-2H3

>  <UN GHS>
2B

>  <CASRN>
105-30-6  105-30-6

> <Outcome>
1

>  <Index>
2475

>  <StandardizerResult>
Clear Stereo (ID: ClearStereo)
Wedge Clean (ID: WedgeClean)
Mesomerize (ID: Mesomerize)
Tautomerize (ID: Tautomerize)
Add Explicit Hydrogens (ID: AddExplicitH)
Neutralize (ID: Neutralize)
Clean 2D (ID: Clean2D)

> <knn Distance>


> <CpId>
2475

$$$$
2479
  Mrv1532301301811342D          

 10 10  0  0  0  0            999 V2000
    1.5021    1.9494    0.0000 F   0  0  0  0  0  0  0  0  0  0  0  0
    0.8701    1.4191    0.0000 C   0  0  0  0  0  0  0  0  0  0  0  0
    0.3398    2.0511    0.0000 F   0  0  0  0  0  0  0  0  0  0  0  0
    1.4004    0.7871    0.0000 F   0  0  0  0  0  0  0  0  0  0  0  0
    0.2382    0.8888    0.0000 C   0  0  0  0  0  0  0  0  0  0  0  0
   -0.3938    1.4191    0.0000 F   0  0  0  0  0  0  0  0  0  0  0  0
    0.6507    0.1743    0.0000 O   0  0  0  0  0  0  0  0  0  0  0  0
   -0.1743    0.1743    0.0000 C   0  0  0  0  0  0  0  0  0  0  0  0
   -0.5230   -0.5734    0.0000 F   0  0  0  0  0  0  0  0  0  0  0  0
   -0.9962    0.2462    0.0000 F   0  0  0  0  0  0  0  0  0  0  0  0
  1  2  1  0  0  0  0
  2  3  1  0  0  0  0
  2  4  1  0  0  0  0
  2  5  1  0  0  0  0
  5  6  1  0  0  0  0
  5  7  1  0  0  0  0
  7  8  1  0  0  0  0
  5  8  1  0  0  0  0
  8  9  1  0  0  0  0
  8 10  1  0  0  0  0
M  END
>  <InChIKey>
InChI=1S/C3F6O/c4-1(2(5,6)7)3(8,9)10-1

>  <CASRN>
428-59-1

> <Outcome>
1

>  <Index>
2479

>  <StandardizerResult>
Clear Stereo (ID: ClearStereo)
Wedge Clean (ID: WedgeClean)
Mesomerize (ID: Mesomerize)
Tautomerize (ID: Tautomerize)
Clean 2D (ID: Clean2D)

> <knn Distance>


> <CpId>
2479

$$$$
2483
  Mrv1532301301811342D          

 26 26  0  0  0  0            999 V2000
    0.7654    2.0880    0.0000 C   0  0  0  0  0  0  0  0  0  0  0  0
    0.7654    1.2630    0.0000 C   0  0  0  0  0  0  0  0  0  0  0  0
    1.4799    0.8505    0.0000 C   0  0  0  0  0  0  0  0  0  0  0  0
    1.4799    0.0255    0.0000 C   0  0  0  0  0  0  0  0  0  0  0  0
    2.1944   -0.3870    0.0000 O   0  0  0  0  0  0  0  0  0  0  0  0
    2.1944   -1.2120    0.0000 C   0  0  0  0  0  0  0  0  0  0  0  0
    2.9089   -1.6245    0.0000 C   0  0  0  0  0  0  0  0  0  0  0  0
    1.4799   -1.6245    0.0000 O   0  0  0  0  0  0  0  0  0  0  0  0
    0.7654   -0.3870    0.0000 O   0  0  0  0  0  0  0  0  0  0  0  0
    0.0510    0.0255    0.0000 C   0  0  0  0  0  0  0  0  0  0  0  0
   -0.6635   -0.3870    0.0000 C   0  0  0  0  0  0  0  0  0  0  0  0
    0.0510    0.8505    0.0000 O   0  0  0  0  0  0  0  0  0  0  0  0
    1.5904    2.0880    0.0000 H   0  0  0  0  0  0  0  0  0  0  0  0
    0.7654    2.9130    0.0000 H   0  0  0  0  0  0  0  0  0  0  0  0
   -0.0596    2.0880    0.0000 H   0  0  0  0  0  0  0  0  0  0  0  0
    0.0510    1.6755    0.0000 H   0  0  0  0  0  0  0  0  0  0  0  0
    2.3035    0.8985    0.0000 H   0  0  0  0  0  0  0  0  0  0  0  0
    1.9333    1.5398    0.0000 H   0  0  0  0  0  0  0  0  0  0  0  0
    1.4799   -0.7995    0.0000 H   0  0  0  0  0  0  0  0  0  0  0  0
    2.4964   -2.3390    0.0000 H   0  0  0  0  0  0  0  0  0  0  0  0
    3.6233   -2.0370    0.0000 H   0  0  0  0  0  0  0  0  0  0  0  0
    3.3214   -0.9100    0.0000 H   0  0  0  0  0  0  0  0  0  0  0  0
   -0.6635    0.4380    0.0000 H   0  0  0  0  0  0  0  0  0  0  0  0
   -1.4604   -0.1735    0.0000 H   0  0  0  0  0  0  0  0  0  0  0  0
   -1.0760   -1.1015    0.0000 H   0  0  0  0  0  0  0  0  0  0  0  0
   -0.0801   -0.9704    0.0000 H   0  0  0  0  0  0  0  0  0  0  0  0
  1  2  1  0  0  0  0
  2  3  1  0  0  0  0
  3  4  1  0  0  0  0
  4  5  1  0  0  0  0
  5  6  1  0  0  0  0
  6  7  1  0  0  0  0
  6  8  2  0  0  0  0
  4  9  1  0  0  0  0
  9 10  1  0  0  0  0
 10 11  1  0  0  0  0
 10 12  1  0  0  0  0
  2 12  1  0  0  0  0
  1 13  1  0  0  0  0
  1 14  1  0  0  0  0
  1 15  1  0  0  0  0
  2 16  1  0  0  0  0
  3 17  1  0  0  0  0
  3 18  1  0  0  0  0
  4 19  1  0  0  0  0
  7 20  1  0  0  0  0
  7 21  1  0  0  0  0
  7 22  1  0  0  0  0
 10 23  1  0  0  0  0
 11 24  1  0  0  0  0
 11 25  1  0  0  0  0
 11 26  1  0  0  0  0
M  END
>  <InChIKey>
InChI=1S/C8H14O4/c1-5-4-8(11-6(2)9)12-7(3)10-5/h5,7-8H,4H2,1-3H3

>  <CASRN>
828-00-2

> <Outcome>
1

>  <Index>
2483

>  <StandardizerResult>
Clear Stereo (ID: ClearStereo)
Wedge Clean (ID: WedgeClean)
Mesomerize (ID: Mesomerize)
Tautomerize (ID: Tautomerize)
Add Explicit Hydrogens (ID: AddExplicitH)
Neutralize (ID: Neutralize)
Clean 2D (ID: Clean2D)

> <knn Distance>


> <CpId>
2483

$$$$
2491
  Mrv1532301301811342D          

 71 74  0  0  0  0            999 V2000
   -0.3379    0.0137    0.0000 C   0  0  0  0  0  0  0  0  0  0  0  0
   -0.3379   -0.8113    0.0000 C   0  0  0  0  0  0  0  0  0  0  0  0
    0.3766   -1.2238    0.0000 C   0  0  0  0  0  0  0  0  0  0  0  0
    0.3766   -2.0488    0.0000 C   0  0  0  0  0  0  0  0  0  0  0  0
    1.0910   -2.4613    0.0000 C   0  0  0  0  0  0  0  0  0  0  0  0
    1.8055   -2.0488    0.0000 C   0  0  0  0  0  0  0  0  0  0  0  0
    1.8055   -1.2238    0.0000 C   0  0  0  0  0  0  0  0  0  0  0  0
    2.5200   -0.8113    0.0000 C   0  0  0  0  0  0  0  0  0  0  0  0
    2.5200    0.0137    0.0000 C   0  0  0  0  0  0  0  0  0  0  0  0
    3.2345   -1.2238    0.0000 C   0  0  0  0  0  0  0  0  0  0  0  0
    3.2345   -2.0488    0.0000 C   0  0  0  0  0  0  0  0  0  0  0  0
    2.5200   -2.4613    0.0000 C   0  0  0  0  0  0  0  0  0  0  0  0
    2.5200   -3.2863    0.0000 O   0  0  0  0  0  0  0  0  0  0  0  0
    3.9489   -2.4613    0.0000 C   0  0  0  0  0  0  0  0  0  0  0  0
    3.4186   -3.0932    0.0000 C   0  0  0  0  0  0  0  0  0  0  0  0
    4.2311   -1.6860    0.0000 C   0  0  0  0  0  0  0  0  0  0  0  0
    5.0436   -1.5428    0.0000 C   0  0  0  0  0  0  0  0  0  0  0  0
    5.5739   -2.1747    0.0000 C   0  0  0  0  0  0  0  0  0  0  0  0
    5.2917   -2.9500    0.0000 C   0  0  0  0  0  0  0  0  0  0  0  0
    4.4792   -3.0932    0.0000 C   0  0  0  0  0  0  0  0  0  0  0  0
   -0.3379   -2.4613    0.0000 C   0  0  0  0  0  0  0  0  0  0  0  0
   -0.3379   -3.2863    0.0000 O   0  0  0  0  0  0  0  0  0  0  0  0
   -1.0524   -2.0488    0.0000 C   0  0  0  0  0  0  0  0  0  0  0  0
   -1.0524   -1.2238    0.0000 C   0  0  0  0  0  0  0  0  0  0  0  0
   -1.7668   -2.4613    0.0000 C   0  0  0  0  0  0  0  0  0  0  0  0
   -2.0490   -1.6860    0.0000 C   0  0  0  0  0  0  0  0  0  0  0  0
   -1.2365   -3.0932    0.0000 C   0  0  0  0  0  0  0  0  0  0  0  0
   -1.5187   -3.8685    0.0000 C   0  0  0  0  0  0  0  0  0  0  0  0
   -2.3312   -4.0117    0.0000 C   0  0  0  0  0  0  0  0  0  0  0  0
   -2.8615   -3.3798    0.0000 C   0  0  0  0  0  0  0  0  0  0  0  0
   -2.5793   -2.6045    0.0000 C   0  0  0  0  0  0  0  0  0  0  0  0
    0.4871    0.0137    0.0000 H   0  0  0  0  0  0  0  0  0  0  0  0
   -0.3379    0.8387    0.0000 H   0  0  0  0  0  0  0  0  0  0  0  0
   -1.1629    0.0137    0.0000 H   0  0  0  0  0  0  0  0  0  0  0  0
    1.0910   -0.8113    0.0000 H   0  0  0  0  0  0  0  0  0  0  0  0
    0.7208   -3.1985    0.0000 H   0  0  0  0  0  0  0  0  0  0  0  0
    1.4613   -3.1985    0.0000 H   0  0  0  0  0  0  0  0  0  0  0  0
    1.0910   -1.6363    0.0000 H   0  0  0  0  0  0  0  0  0  0  0  0
    3.3450    0.0137    0.0000 H   0  0  0  0  0  0  0  0  0  0  0  0
    2.5200    0.8387    0.0000 H   0  0  0  0  0  0  0  0  0  0  0  0
    1.6950    0.0137    0.0000 H   0  0  0  0  0  0  0  0  0  0  0  0
    3.9489   -0.8113    0.0000 H   0  0  0  0  0  0  0  0  0  0  0  0
    2.0015   -3.9280    0.0000 H   0  0  0  0  0  0  0  0  0  0  0  0
    3.5171   -3.9123    0.0000 H   0  0  0  0  0  0  0  0  0  0  0  0
    4.0966   -3.5633    0.0000 H   0  0  0  0  0  0  0  0  0  0  0  0
    2.9930   -2.3865    0.0000 H   0  0  0  0  0  0  0  0  0  0  0  0
    3.4062   -1.6707    0.0000 H   0  0  0  0  0  0  0  0  0  0  0  0
    4.7614   -2.3180    0.0000 H   0  0  0  0  0  0  0  0  0  0  0  0
    5.6436   -0.9766    0.0000 H   0  0  0  0  0  0  0  0  0  0  0  0
    4.9478   -0.7233    0.0000 H   0  0  0  0  0  0  0  0  0  0  0  0
    6.3642   -2.4113    0.0000 H   0  0  0  0  0  0  0  0  0  0  0  0
    6.2356   -1.6821    0.0000 H   0  0  0  0  0  0  0  0  0  0  0  0
    5.4820   -3.7527    0.0000 H   0  0  0  0  0  0  0  0  0  0  0  0
    6.0492   -3.2767    0.0000 H   0  0  0  0  0  0  0  0  0  0  0  0
    4.8970   -3.8046    0.0000 H   0  0  0  0  0  0  0  0  0  0  0  0
    3.6543   -3.0994    0.0000 H   0  0  0  0  0  0  0  0  0  0  0  0
    0.1806   -3.9280    0.0000 H   0  0  0  0  0  0  0  0  0  0  0  0
   -1.7668   -0.8113    0.0000 H   0  0  0  0  0  0  0  0  0  0  0  0
   -2.8076   -1.3617    0.0000 H   0  0  0  0  0  0  0  0  0  0  0  0
   -2.7951   -2.0382    0.0000 H   0  0  0  0  0  0  0  0  0  0  0  0
   -1.2241   -1.6707    0.0000 H   0  0  0  0  0  0  0  0  0  0  0  0
   -0.8109   -2.3865    0.0000 H   0  0  0  0  0  0  0  0  0  0  0  0
   -2.0490   -3.2365    0.0000 H   0  0  0  0  0  0  0  0  0  0  0  0
   -1.3284   -4.6713    0.0000 H   0  0  0  0  0  0  0  0  0  0  0  0
   -0.7612   -4.1953    0.0000 H   0  0  0  0  0  0  0  0  0  0  0  0
   -2.9313   -4.5779    0.0000 H   0  0  0  0  0  0  0  0  0  0  0  0
   -2.2354   -4.8312    0.0000 H   0  0  0  0  0  0  0  0  0  0  0  0
   -3.6518   -3.1431    0.0000 H   0  0  0  0  0  0  0  0  0  0  0  0
   -3.5232   -3.8724    0.0000 H   0  0  0  0  0  0  0  0  0  0  0  0
   -3.4043   -2.6107    0.0000 H   0  0  0  0  0  0  0  0  0  0  0  0
   -2.1722   -1.8870    0.0000 H   0  0  0  0  0  0  0  0  0  0  0  0
  1  2  1  0  0  0  0
  2  3  4  0  0  0  0
  3  4  4  0  0  0  0
  4  5  1  0  0  0  0
  5  6  1  0  0  0  0
  6  7  4  0  0  0  0
  7  8  4  0  0  0  0
  8  9  1  0  0  0  0
  8 10  4  0  0  0  0
 10 11  4  0  0  0  0
 11 12  4  0  0  0  0
  6 12  4  0  0  0  0
 12 13  1  0  0  0  0
 11 14  1  0  0  0  0
 14 15  1  0  0  0  0
 14 16  1  0  0  0  0
 16 17  1  0  0  0  0
 17 18  1  0  0  0  0
 18 19  1  0  0  0  0
 19 20  1  0  0  0  0
 14 20  1  0  0  0  0
  4 21  4  0  0  0  0
 21 22  1  0  0  0  0
 21 23  4  0  0  0  0
 23 24  4  0  0  0  0
  2 24  4  0  0  0  0
 23 25  1  0  0  0  0
 25 26  1  0  0  0  0
 25 27  1  0  0  0  0
 27 28  1  0  0  0  0
 28 29  1  0  0  0  0
 29 30  1  0  0  0  0
 30 31  1  0  0  0  0
 25 31  1  0  0  0  0
  1 32  1  0  0  0  0
  1 33  1  0  0  0  0
  1 34  1  0  0  0  0
  3 35  1  0  0  0  0
  5 36  1  0  0  0  0
  5 37  1  0  0  0  0
  7 38  1  0  0  0  0
  9 39  1  0  0  0  0
  9 40  1  0  0  0  0
  9 41  1  0  0  0  0
 10 42  1  0  0  0  0
 13 43  1  0  0  0  0
 15 44  1  0  0  0  0
 15 45  1  0  0  0  0
 15 46  1  0  0  0  0
 16 47  1  0  0  0  0
 16 48  1  0  0  0  0
 17 49  1  0  0  0  0
 17 50  1  0  0  0  0
 18 51  1  0  0  0  0
 18 52  1  0  0  0  0
 19 53  1  0  0  0  0
 19 54  1  0  0  0  0
 20 55  1  0  0  0  0
 20 56  1  0  0  0  0
 22 57  1  0  0  0  0
 24 58  1  0  0  0  0
 26 59  1  0  0  0  0
 26 60  1  0  0  0  0
 26 61  1  0  0  0  0
 27 62  1  0  0  0  0
 27 63  1  0  0  0  0
 28 64  1  0  0  0  0
 28 65  1  0  0  0  0
 29 66  1  0  0  0  0
 29 67  1  0  0  0  0
 30 68  1  0  0  0  0
 30 69  1  0  0  0  0
 31 70  1  0  0  0  0
 31 71  1  0  0  0  0
M  END
>  <InChIKey>
InChI=1S/C29H40O2/c1-20-15-22(26(30)24(17-20)28(3)11-7-5-8-12-28)19-23-16-21(2)18-25(27(23)31)29(4)13-9-6-10-14-29/h15-18,30-31H,5-14,19H2,1-4H3

>  <CASRN>
77-62-3

> <Outcome>
1

>  <Index>
2491

>  <StandardizerResult>
Dearomatize (ID: Dearomatize)
Clear Stereo (ID: ClearStereo)
Wedge Clean (ID: WedgeClean)
Mesomerize (ID: Mesomerize)
Tautomerize (ID: Tautomerize)
Aromatize (ID: Aromatize)
Add Explicit Hydrogens (ID: AddExplicitH)
Neutralize (ID: Neutralize)
Clean 2D (ID: Clean2D)

> <knn Distance>


> <CpId>
2491

$$$$
2499
  Mrv1532301301811342D          

 30 31  0  0  0  0            999 V2000
    0.0150    0.0707    0.0000 C   0  0  0  0  0  0  0  0  0  0  0  0
    0.7295   -0.3418    0.0000 C   0  0  0  0  0  0  0  0  0  0  0  0
    0.7295   -1.1668    0.0000 C   0  0  0  0  0  0  0  0  0  0  0  0
    1.4440   -1.5793    0.0000 C   0  0  0  0  0  0  0  0  0  0  0  0
    2.1584   -1.1668    0.0000 C   0  0  0  0  0  0  0  0  0  0  0  0
    2.8729   -1.5793    0.0000 O   0  0  0  0  0  0  0  0  0  0  0  0
    2.1584   -0.3418    0.0000 O   0  0  0  0  0  0  0  0  0  0  0  0
    1.4440   -2.4043    0.0000 C   0  0  0  0  0  0  0  0  0  0  0  0
    2.1584   -2.8168    0.0000 O   0  0  0  0  0  0  0  0  0  0  0  0
    0.7295   -2.8168    0.0000 C   0  0  0  0  0  0  0  0  0  0  0  0
    0.0150   -2.4043    0.0000 N   0  0  0  0  0  0  0  0  0  0  0  0
    0.0150   -1.5793    0.0000 N   0  0  0  0  0  0  0  0  0  0  0  0
   -0.6994   -1.1668    0.0000 C   0  0  0  0  0  0  0  0  0  0  0  0
   -1.4139   -1.5793    0.0000 C   0  0  0  0  0  0  0  0  0  0  0  0
   -2.1284   -1.1668    0.0000 C   0  0  0  0  0  0  0  0  0  0  0  0
   -2.1284   -0.3418    0.0000 C   0  0  0  0  0  0  0  0  0  0  0  0
   -2.8429    0.0707    0.0000 Cl  0  0  0  0  0  0  0  0  0  0  0  0
   -1.4139    0.0707    0.0000 C   0  0  0  0  0  0  0  0  0  0  0  0
   -0.6994   -0.3418    0.0000 C   0  0  0  0  0  0  0  0  0  0  0  0
    0.7295    0.4832    0.0000 H   0  0  0  0  0  0  0  0  0  0  0  0
    0.0150    0.8957    0.0000 H   0  0  0  0  0  0  0  0  0  0  0  0
   -0.6994    0.4832    0.0000 H   0  0  0  0  0  0  0  0  0  0  0  0
    1.5047   -0.6240    0.0000 H   0  0  0  0  0  0  0  0  0  0  0  0
    1.5047   -0.0596    0.0000 H   0  0  0  0  0  0  0  0  0  0  0  0
    2.8729   -2.4043    0.0000 H   0  0  0  0  0  0  0  0  0  0  0  0
    0.7295   -3.6418    0.0000 H   0  0  0  0  0  0  0  0  0  0  0  0
   -1.4139   -2.4043    0.0000 H   0  0  0  0  0  0  0  0  0  0  0  0
   -2.8429   -1.5793    0.0000 H   0  0  0  0  0  0  0  0  0  0  0  0
   -1.8264    0.7852    0.0000 H   0  0  0  0  0  0  0  0  0  0  0  0
    0.0150   -0.7543    0.0000 H   0  0  0  0  0  0  0  0  0  0  0  0
  1  2  1  0  0  0  0
  2  3  1  0  0  0  0
  3  4  2  0  0  0  0
  4  5  1  0  0  0  0
  5  6  1  0  0  0  0
  5  7  2  0  0  0  0
  4  8  1  0  0  0  0
  8  9  2  0  0  0  0
  8 10  1  0  0  0  0
 10 11  2  0  0  0  0
 11 12  1  0  0  0  0
  3 12  1  0  0  0  0
 12 13  1  0  0  0  0
 13 14  4  0  0  0  0
 14 15  4  0  0  0  0
 15 16  4  0  0  0  0
 16 17  1  0  0  0  0
 16 18  4  0  0  0  0
 18 19  4  0  0  0  0
 13 19  4  0  0  0  0
  1 20  1  0  0  0  0
  1 21  1  0  0  0  0
  1 22  1  0  0  0  0
  2 23  1  0  0  0  0
  2 24  1  0  0  0  0
  6 25  1  0  0  0  0
 10 26  1  0  0  0  0
 14 27  1  0  0  0  0
 15 28  1  0  0  0  0
 18 29  1  0  0  0  0
 19 30  1  0  0  0  0
M  END
>  <InChIKey>
InChI=1S/C13H11ClN2O3/c1-2-10-12(13(18)19)11(17)7-15-16(10)9-5-3-8(14)4-6-9/h3-7H,2H2,1H3,(H,18,19)

>  <CASRN>
129025-54-3

> <Outcome>
1

>  <Index>
2499

>  <StandardizerResult>
Dearomatize (ID: Dearomatize)
Clear Stereo (ID: ClearStereo)
Wedge Clean (ID: WedgeClean)
Mesomerize (ID: Mesomerize)
Tautomerize (ID: Tautomerize)
Aromatize (ID: Aromatize)
Add Explicit Hydrogens (ID: AddExplicitH)
Neutralize (ID: Neutralize)
Clean 2D (ID: Clean2D)

> <knn Distance>


> <CpId>
2499

$$$$
2504
  Mrv1532301301811342D          

 20 20  0  0  0  0            999 V2000
   -0.0000    2.4750    0.0000 C   0  0  0  0  0  0  0  0  0  0  0  0
    0.7145    2.0625    0.0000 C   0  0  0  0  0  0  0  0  0  0  0  0
    1.4289    2.4750    0.0000 O   0  0  0  0  0  0  0  0  0  0  0  0
    0.7145    1.2375    0.0000 C   0  0  0  0  0  0  0  0  0  0  0  0
    1.4289    0.8250    0.0000 C   0  0  0  0  0  0  0  0  0  0  0  0
    2.1434    1.2375    0.0000 O   0  0  0  0  0  0  0  0  0  0  0  0
    1.4289   -0.0000    0.0000 C   0  0  0  0  0  0  0  0  0  0  0  0
    0.7145   -0.4125    0.0000 C   0  0  0  0  0  0  0  0  0  0  0  0
    0.7145   -1.2375    0.0000 C   0  0  0  0  0  0  0  0  0  0  0  0
   -0.0000   -0.0000    0.0000 O   0  0  0  0  0  0  0  0  0  0  0  0
   -0.0000    0.8250    0.0000 C   0  0  0  0  0  0  0  0  0  0  0  0
   -0.7145    1.2375    0.0000 O   0  0  0  0  0  0  0  0  0  0  0  0
    0.4125    3.1895    0.0000 H   0  0  0  0  0  0  0  0  0  0  0  0
   -0.7145    2.8875    0.0000 H   0  0  0  0  0  0  0  0  0  0  0  0
   -0.4125    1.7605    0.0000 H   0  0  0  0  0  0  0  0  0  0  0  0
    2.8579    0.8250    0.0000 H   0  0  0  0  0  0  0  0  0  0  0  0
    2.1434   -0.4125    0.0000 H   0  0  0  0  0  0  0  0  0  0  0  0
   -0.1105   -1.2375    0.0000 H   0  0  0  0  0  0  0  0  0  0  0  0
    0.7145   -2.0625    0.0000 H   0  0  0  0  0  0  0  0  0  0  0  0
    1.5395   -1.2375    0.0000 H   0  0  0  0  0  0  0  0  0  0  0  0
  1  2  1  0  0  0  0
  2  3  2  0  0  0  0
  2  4  1  0  0  0  0
  4  5  2  0  0  0  0
  5  6  1  0  0  0  0
  5  7  1  0  0  0  0
  7  8  2  0  0  0  0
  8  9  1  0  0  0  0
  8 10  1  0  0  0  0
 10 11  1  0  0  0  0
  4 11  1  0  0  0  0
 11 12  2  0  0  0  0
  1 13  1  0  0  0  0
  1 14  1  0  0  0  0
  1 15  1  0  0  0  0
  6 16  1  0  0  0  0
  7 17  1  0  0  0  0
  9 18  1  0  0  0  0
  9 19  1  0  0  0  0
  9 20  1  0  0  0  0
M  END
>  <InChIKey>
InChI=1S/C8H8O4/c1-4-3-6(10)7(5(2)9)8(11)12-4/h3,10H,1-2H3

>  <CASRN>
520-45-6

> <Outcome>
1

>  <Index>
2504

>  <StandardizerResult>
Dearomatize (ID: Dearomatize)
Clear Stereo (ID: ClearStereo)
Wedge Clean (ID: WedgeClean)
Mesomerize (ID: Mesomerize)
Tautomerize (ID: Tautomerize)
Add Explicit Hydrogens (ID: AddExplicitH)
Neutralize (ID: Neutralize)
Clean 2D (ID: Clean2D)

> <knn Distance>


> <CpId>
2504

$$$$
2516
  Mrv1532301301811342D          

  9  8  0  0  0  0            999 V2000
    1.2375    0.7145    0.0000 C   0  0  0  0  0  0  0  0  0  0  0  0
    0.8250    0.0000    0.0000 C   0  0  0  0  0  0  0  0  0  0  0  0
    1.2375   -0.7145    0.0000 Cl  0  0  0  0  0  0  0  0  0  0  0  0
   -0.0000    0.0000    0.0000 C   0  0  0  0  0  0  0  0  0  0  0  0
    1.9520    0.3020    0.0000 H   0  0  0  0  0  0  0  0  0  0  0  0
    1.6500    1.4290    0.0000 H   0  0  0  0  0  0  0  0  0  0  0  0
    0.5230    1.1270    0.0000 H   0  0  0  0  0  0  0  0  0  0  0  0
   -0.4125    0.7145    0.0000 H   0  0  0  0  0  0  0  0  0  0  0  0
   -0.4125   -0.7145    0.0000 H   0  0  0  0  0  0  0  0  0  0  0  0
  1  2  1  0  0  0  0
  2  3  1  0  0  0  0
  2  4  2  0  0  0  0
  1  5  1  0  0  0  0
  1  6  1  0  0  0  0
  1  7  1  0  0  0  0
  4  8  1  0  0  0  0
  4  9  1  0  0  0  0
M  END
>  <InChIKey>
InChI=1S/C3H5Cl/c1-3(2)4/h1H2,2H3

>  <CASRN>
557-98-2

> <Outcome>
1

>  <Index>
2516

>  <StandardizerResult>
Clear Stereo (ID: ClearStereo)
Wedge Clean (ID: WedgeClean)
Mesomerize (ID: Mesomerize)
Tautomerize (ID: Tautomerize)
Add Explicit Hydrogens (ID: AddExplicitH)
Neutralize (ID: Neutralize)
Clean 2D (ID: Clean2D)

> <knn Distance>


> <CpId>
2516

$$$$
2521
  Mrv1532301301811342D          

 15 14  0  0  0  0            999 V2000
    1.4025    0.8097    0.0000 C   0  0  0  0  0  0  0  0  0  0  0  0
    0.9900    0.0953    0.0000 C   0  0  0  0  0  0  0  0  0  0  0  0
    1.4025   -0.6192    0.0000 O   0  0  0  0  0  0  0  0  0  0  0  0
    0.1650    0.0953    0.0000 C   0  0  0  0  0  0  0  0  0  0  0  0
   -0.2475   -0.6192    0.0000 C   0  0  0  0  0  0  0  0  0  0  0  0
    0.1650   -1.3337    0.0000 C   0  0  0  0  0  0  0  0  0  0  0  0
   -1.0725   -0.6192    0.0000 O   0  0  0  0  0  0  0  0  0  0  0  0
    2.1170    0.3972    0.0000 H   0  0  0  0  0  0  0  0  0  0  0  0
    1.8150    1.5242    0.0000 H   0  0  0  0  0  0  0  0  0  0  0  0
    0.6880    1.2222    0.0000 H   0  0  0  0  0  0  0  0  0  0  0  0
    0.9900   -1.3337    0.0000 H   0  0  0  0  0  0  0  0  0  0  0  0
   -0.2475    0.8097    0.0000 H   0  0  0  0  0  0  0  0  0  0  0  0
   -0.6600   -1.3337    0.0000 H   0  0  0  0  0  0  0  0  0  0  0  0
   -0.2475   -2.0481    0.0000 H   0  0  0  0  0  0  0  0  0  0  0  0
    0.5775   -2.0481    0.0000 H   0  0  0  0  0  0  0  0  0  0  0  0
  1  2  1  0  0  0  0
  2  3  1  0  0  0  0
  2  4  2  0  0  0  0
  4  5  1  4  0  0  0
  5  6  1  0  0  0  0
  5  7  2  0  0  0  0
  1  8  1  0  0  0  0
  1  9  1  0  0  0  0
  1 10  1  0  0  0  0
  3 11  1  0  0  0  0
  4 12  1  0  0  0  0
  6 13  1  0  0  0  0
  6 14  1  0  0  0  0
  6 15  1  0  0  0  0
M  END
>  <InChIKey>
InChI=1S/C5H8O2/c1-4(6)3-5(2)7/h3,6H,1-2H3

>  <UN GHS>
Non-irritant

>  <CASRN>
123-54-6

> <Outcome>
1

>  <Index>
2521

>  <StandardizerResult>
Clear Stereo (ID: ClearStereo)
Wedge Clean (ID: WedgeClean)
Mesomerize (ID: Mesomerize)
Tautomerize (ID: Tautomerize)
Add Explicit Hydrogens (ID: AddExplicitH)
Neutralize (ID: Neutralize)
Clean 2D (ID: Clean2D)

> <knn Distance>


> <CpId>
2521

$$$$
2522
  Mrv1532301301811342D          

 21 20  0  0  0  0            999 V2000
    1.7605    1.8414    0.0000 C   0  0  0  0  0  0  0  0  0  0  0  0
    2.4750    1.4289    0.0000 C   0  0  0  0  0  0  0  0  0  0  0  0
    3.1895    1.8414    0.0000 C   0  0  0  0  0  0  0  0  0  0  0  0
    3.9039    1.4289    0.0000 O   0  0  0  0  0  0  0  0  0  0  0  0
    4.6184    1.8414    0.0000 C   0  0  0  0  0  0  0  0  0  0  0  0
    5.3329    1.4289    0.0000 C   0  0  0  0  0  0  0  0  0  0  0  0
    6.0474    1.8414    0.0000 C   0  0  0  0  0  0  0  0  0  0  0  0
    2.1730    2.5559    0.0000 H   0  0  0  0  0  0  0  0  0  0  0  0
    1.0461    2.2539    0.0000 H   0  0  0  0  0  0  0  0  0  0  0  0
    1.3480    1.1269    0.0000 H   0  0  0  0  0  0  0  0  0  0  0  0
    2.1047    0.6917    0.0000 H   0  0  0  0  0  0  0  0  0  0  0  0
    2.8453    0.6917    0.0000 H   0  0  0  0  0  0  0  0  0  0  0  0
    3.5597    2.5786    0.0000 H   0  0  0  0  0  0  0  0  0  0  0  0
    2.8192    2.5786    0.0000 H   0  0  0  0  0  0  0  0  0  0  0  0
    4.9887    2.5786    0.0000 H   0  0  0  0  0  0  0  0  0  0  0  0
    4.2482    2.5786    0.0000 H   0  0  0  0  0  0  0  0  0  0  0  0
    4.9626    0.6917    0.0000 H   0  0  0  0  0  0  0  0  0  0  0  0
    5.7032    0.6917    0.0000 H   0  0  0  0  0  0  0  0  0  0  0  0
    6.4599    1.1269    0.0000 H   0  0  0  0  0  0  0  0  0  0  0  0
    6.7618    2.2539    0.0000 H   0  0  0  0  0  0  0  0  0  0  0  0
    5.6349    2.5559    0.0000 H   0  0  0  0  0  0  0  0  0  0  0  0
  1  2  1  0  0  0  0
  2  3  1  0  0  0  0
  3  4  1  0  0  0  0
  4  5  1  0  0  0  0
  5  6  1  0  0  0  0
  6  7  1  0  0  0  0
  1  8  1  0  0  0  0
  1  9  1  0  0  0  0
  1 10  1  0  0  0  0
  2 11  1  0  0  0  0
  2 12  1  0  0  0  0
  3 13  1  0  0  0  0
  3 14  1  0  0  0  0
  5 15  1  0  0  0  0
  5 16  1  0  0  0  0
  6 17  1  0  0  0  0
  6 18  1  0  0  0  0
  7 19  1  0  0  0  0
  7 20  1  0  0  0  0
  7 21  1  0  0  0  0
M  END
>  <InChIKey>
InChI=1S/C6H14O/c1-3-5-7-6-4-2/h3-6H2,1-2H3

>  <CASRN>
111-43-3

> <Outcome>
1

>  <Index>
2522

>  <StandardizerResult>
Clear Stereo (ID: ClearStereo)
Wedge Clean (ID: WedgeClean)
Mesomerize (ID: Mesomerize)
Tautomerize (ID: Tautomerize)
Add Explicit Hydrogens (ID: AddExplicitH)
Neutralize (ID: Neutralize)
Clean 2D (ID: Clean2D)

> <knn Distance>


> <CpId>
2522

$$$$
2526
  Mrv1532301301811342D          

 18 18  0  0  0  0            999 V2000
   -0.0000    2.4750    0.0000 O   0  0  0  0  0  0  0  0  0  0  0  0
    0.7145    2.0625    0.0000 C   0  0  0  0  0  0  0  0  0  0  0  0
    1.4289    2.4750    0.0000 O   0  0  0  0  0  0  0  0  0  0  0  0
    0.7145    1.2375    0.0000 C   0  0  0  0  0  0  0  0  0  0  0  0
    1.4289    0.8250    0.0000 C   0  0  0  0  0  0  0  0  0  0  0  0
    1.4289   -0.0000    0.0000 C   0  0  0  0  0  0  0  0  0  0  0  0
    0.7145   -0.4125    0.0000 C   0  0  0  0  0  0  0  0  0  0  0  0
   -0.0000   -0.0000    0.0000 C   0  0  0  0  0  0  0  0  0  0  0  0
   -0.0000    0.8250    0.0000 C   0  0  0  0  0  0  0  0  0  0  0  0
   -0.7145    1.2375    0.0000 O   0  0  0  0  0  0  0  0  0  0  0  0
    2.1434   -0.4125    0.0000 N   0  0  0  0  0  0  0  0  0  0  0  0
    2.8579   -0.0000    0.0000 O   0  0  0  0  0  0  0  0  0  0  0  0
    2.1434   -1.2375    0.0000 O   0  0  0  0  0  0  0  0  0  0  0  0
   -0.0000    3.3000    0.0000 H   0  0  0  0  0  0  0  0  0  0  0  0
    2.1434    1.2375    0.0000 H   0  0  0  0  0  0  0  0  0  0  0  0
    0.7145   -1.2375    0.0000 H   0  0  0  0  0  0  0  0  0  0  0  0
   -0.7145   -0.4125    0.0000 H   0  0  0  0  0  0  0  0  0  0  0  0
   -0.7145    2.0625    0.0000 H   0  0  0  0  0  0  0  0  0  0  0  0
  1  2  1  0  0  0  0
  2  3  2  0  0  0  0
  2  4  1  0  0  0  0
  4  5  4  0  0  0  0
  5  6  4  0  0  0  0
  6  7  4  0  0  0  0
  7  8  4  0  0  0  0
  8  9  4  0  0  0  0
  4  9  4  0  0  0  0
  9 10  1  0  0  0  0
  6 11  1  0  0  0  0
 11 12  2  0  0  0  0
 11 13  2  0  0  0  0
  1 14  1  0  0  0  0
  5 15  1  0  0  0  0
  7 16  1  0  0  0  0
  8 17  1  0  0  0  0
 10 18  1  0  0  0  0
M  END
>  <InChIKey>
InChI=1S/C7H5NO5/c9-6-2-1-4(8(12)13)3-5(6)7(10)11/h1-3,9H,(H,10,11)

>  <CASRN>
96-97-9

> <Outcome>
1

>  <Index>
2526

>  <StandardizerResult>
Dearomatize (ID: Dearomatize)
Clear Stereo (ID: ClearStereo)
Wedge Clean (ID: WedgeClean)
Mesomerize (ID: Mesomerize)
Tautomerize (ID: Tautomerize)
Aromatize (ID: Aromatize)
Add Explicit Hydrogens (ID: AddExplicitH)
Neutralize (ID: Neutralize)
Clean 2D (ID: Clean2D)

> <knn Distance>


> <CpId>
2526

$$$$
2527
  Mrv1532301301811342D          

 18 18  0  0  0  0            999 V2000
    0.7153    2.0620    0.0000 O   0  0  0  0  0  0  0  0  0  0  0  0
    0.7153    1.2370    0.0000 C   0  0  0  0  0  0  0  0  0  0  0  0
    1.4298    0.8245    0.0000 C   0  0  0  0  0  0  0  0  0  0  0  0
    1.4298   -0.0005    0.0000 C   0  0  0  0  0  0  0  0  0  0  0  0
    0.7153   -0.4130    0.0000 C   0  0  0  0  0  0  0  0  0  0  0  0
    0.0008   -0.0005    0.0000 C   0  0  0  0  0  0  0  0  0  0  0  0
    0.0008    0.8245    0.0000 C   0  0  0  0  0  0  0  0  0  0  0  0
    0.7153   -1.2380    0.0000 C   0  0  0  0  0  0  0  0  0  0  0  0
    1.4298   -1.6505    0.0000 O   0  0  0  0  0  0  0  0  0  0  0  0
    0.0008   -1.6505    0.0000 C   0  0  0  0  0  0  0  0  0  0  0  0
    0.0008   -2.4755    0.0000 Cl  0  0  0  0  0  0  0  0  0  0  0  0
    1.4298    2.4745    0.0000 H   0  0  0  0  0  0  0  0  0  0  0  0
    2.1443    1.2370    0.0000 H   0  0  0  0  0  0  0  0  0  0  0  0
    2.1443   -0.4130    0.0000 H   0  0  0  0  0  0  0  0  0  0  0  0
   -0.7136   -0.4130    0.0000 H   0  0  0  0  0  0  0  0  0  0  0  0
   -0.7136    1.2370    0.0000 H   0  0  0  0  0  0  0  0  0  0  0  0
   -0.4525   -0.9612    0.0000 H   0  0  0  0  0  0  0  0  0  0  0  0
   -0.8228   -1.6025    0.0000 H   0  0  0  0  0  0  0  0  0  0  0  0
  1  2  1  0  0  0  0
  2  3  4  0  0  0  0
  3  4  4  0  0  0  0
  4  5  4  0  0  0  0
  5  6  4  0  0  0  0
  6  7  4  0  0  0  0
  2  7  4  0  0  0  0
  5  8  1  0  0  0  0
  8  9  2  0  0  0  0
  8 10  1  0  0  0  0
 10 11  1  0  0  0  0
  1 12  1  0  0  0  0
  3 13  1  0  0  0  0
  4 14  1  0  0  0  0
  6 15  1  0  0  0  0
  7 16  1  0  0  0  0
 10 17  1  0  0  0  0
 10 18  1  0  0  0  0
M  END
>  <InChIKey>
InChI=1S/C8H7ClO2/c9-5-8(11)6-1-3-7(10)4-2-6/h1-4,10H,5H2

>  <UN GHS>
1

>  <CASRN>
6305-04-0

> <Outcome>
1

>  <Index>
2527

>  <StandardizerResult>
Dearomatize (ID: Dearomatize)
Clear Stereo (ID: ClearStereo)
Wedge Clean (ID: WedgeClean)
Mesomerize (ID: Mesomerize)
Tautomerize (ID: Tautomerize)
Aromatize (ID: Aromatize)
Add Explicit Hydrogens (ID: AddExplicitH)
Neutralize (ID: Neutralize)
Clean 2D (ID: Clean2D)

> <knn Distance>


> <CpId>
2527

$$$$
2528
  Mrv1532301301811342D          

 37 41  0  0  0  0            999 V2000
    0.0654    0.5745    0.0000 C   0  0  0  0  0  0  0  0  0  0  0  0
    0.8353    0.8708    0.0000 C   0  0  0  0  0  0  0  0  0  0  0  0
    0.9638    1.6857    0.0000 C   0  0  0  0  0  0  0  0  0  0  0  0
    1.7338    1.9819    0.0000 C   0  0  0  0  0  0  0  0  0  0  0  0
    2.3753    1.4632    0.0000 C   0  0  0  0  0  0  0  0  0  0  0  0
    3.3567    1.5484    0.0000 C   0  0  0  0  0  0  0  0  0  0  0  0
    3.8763    0.9076    0.0000 C   0  0  0  0  0  0  0  0  0  0  0  0
    3.5813    0.1372    0.0000 C   0  0  0  0  0  0  0  0  0  0  0  0
    4.1010   -0.5035    0.0000 C   0  0  0  0  0  0  0  0  0  0  0  0
    4.9157   -0.3739    0.0000 C   0  0  0  0  0  0  0  0  0  0  0  0
    5.2108    0.3966    0.0000 C   0  0  0  0  0  0  0  0  0  0  0  0
    6.0255    0.5262    0.0000 C   0  0  0  0  0  0  0  0  0  0  0  0
    6.3206    1.2967    0.0000 C   0  0  0  0  0  0  0  0  0  0  0  0
    5.8009    1.9374    0.0000 C   0  0  0  0  0  0  0  0  0  0  0  0
    4.9862    1.8077    0.0000 C   0  0  0  0  0  0  0  0  0  0  0  0
    4.6911    1.0373    0.0000 C   0  0  0  0  0  0  0  0  0  0  0  0
    2.7665    0.0075    0.0000 C   0  0  0  0  0  0  0  0  0  0  0  0
    2.3177   -0.6847    0.0000 C   0  0  0  0  0  0  0  0  0  0  0  0
    1.5207   -0.4718    0.0000 C   0  0  0  0  0  0  0  0  0  0  0  0
    1.4769    0.3521    0.0000 C   0  0  0  0  0  0  0  0  0  0  0  0
    2.2469    0.6483    0.0000 C   0  0  0  0  0  0  0  0  0  0  0  0
   -0.2309    1.3445    0.0000 H   0  0  0  0  0  0  0  0  0  0  0  0
   -0.7046    0.2783    0.0000 H   0  0  0  0  0  0  0  0  0  0  0  0
    0.3616   -0.1955    0.0000 H   0  0  0  0  0  0  0  0  0  0  0  0
    0.3222    2.2044    0.0000 H   0  0  0  0  0  0  0  0  0  0  0  0
    1.8622    2.7969    0.0000 H   0  0  0  0  0  0  0  0  0  0  0  0
    3.6790    2.3078    0.0000 H   0  0  0  0  0  0  0  0  0  0  0  0
    3.8059   -1.2740    0.0000 H   0  0  0  0  0  0  0  0  0  0  0  0
    5.4354   -1.0146    0.0000 H   0  0  0  0  0  0  0  0  0  0  0  0
    6.5452   -0.1145    0.0000 H   0  0  0  0  0  0  0  0  0  0  0  0
    7.1353    1.4263    0.0000 H   0  0  0  0  0  0  0  0  0  0  0  0
    6.0960    2.7078    0.0000 H   0  0  0  0  0  0  0  0  0  0  0  0
    4.4665    2.4485    0.0000 H   0  0  0  0  0  0  0  0  0  0  0  0
    2.2178   -1.5036    0.0000 H   0  0  0  0  0  0  0  0  0  0  0  0
    2.9408   -1.2255    0.0000 H   0  0  0  0  0  0  0  0  0  0  0  0
    0.7110   -0.6298    0.0000 H   0  0  0  0  0  0  0  0  0  0  0  0
    1.1989   -1.2314    0.0000 H   0  0  0  0  0  0  0  0  0  0  0  0
  1  2  1  0  0  0  0
  2  3  4  0  0  0  0
  3  4  4  0  0  0  0
  4  5  4  0  0  0  0
  5  6  4  0  0  0  0
  6  7  4  0  0  0  0
  7  8  4  0  0  0  0
  8  9  4  0  0  0  0
  9 10  4  0  0  0  0
 10 11  4  0  0  0  0
 11 12  4  0  0  0  0
 12 13  4  0  0  0  0
 13 14  4  0  0  0  0
 14 15  4  0  0  0  0
 15 16  4  0  0  0  0
  7 16  4  0  0  0  0
 11 16  4  0  0  0  0
  8 17  4  0  0  0  0
 17 18  1  0  0  0  0
 18 19  1  0  0  0  0
 19 20  1  0  0  0  0
  2 20  4  0  0  0  0
 20 21  4  0  0  0  0
  5 21  4  0  0  0  0
 17 21  4  0  0  0  0
  1 22  1  0  0  0  0
  1 23  1  0  0  0  0
  1 24  1  0  0  0  0
  3 25  1  0  0  0  0
  4 26  1  0  0  0  0
  6 27  1  0  0  0  0
  9 28  1  0  0  0  0
 10 29  1  0  0  0  0
 12 30  1  0  0  0  0
 13 31  1  0  0  0  0
 14 32  1  0  0  0  0
 15 33  1  0  0  0  0
 18 34  1  0  0  0  0
 18 35  1  0  0  0  0
 19 36  1  0  0  0  0
 19 37  1  0  0  0  0
M  END
>  <InChIKey>
InChI=1S/C21H16/c1-13-6-7-15-12-20-17-5-3-2-4-14(17)8-9-18(20)19-11-10-16(13)21(15)19/h2-9,12H,10-11H2,1H3

>  <CASRN>
56-49-5

> <Outcome>
1

>  <Index>
2528

>  <StandardizerResult>
Dearomatize (ID: Dearomatize)
Clear Stereo (ID: ClearStereo)
Wedge Clean (ID: WedgeClean)
Mesomerize (ID: Mesomerize)
Tautomerize (ID: Tautomerize)
Aromatize (ID: Aromatize)
Add Explicit Hydrogens (ID: AddExplicitH)
Neutralize (ID: Neutralize)
Clean 2D (ID: Clean2D)

> <knn Distance>


> <CpId>
2528

$$$$
2531
  Mrv1532301301811342D          

 14 13  0  0  0  0            999 V2000
   -0.1914    0.7146    0.0000 C   0  0  0  0  0  0  0  0  0  0  0  0
    0.5231    1.1271    0.0000 C   0  0  0  0  0  0  0  0  0  0  0  0
    1.2376    0.7146    0.0000 O   0  0  0  0  0  0  0  0  0  0  0  0
    1.9521    1.1271    0.0000 C   0  0  0  0  0  0  0  0  0  0  0  0
    1.9521    1.9521    0.0000 O   0  0  0  0  0  0  0  0  0  0  0  0
    2.6665    0.7146    0.0000 C   0  0  0  0  0  0  0  0  0  0  0  0
    3.3810    1.1271    0.0000 Br  0  0  0  0  0  0  0  0  0  0  0  0
   -0.6039    1.4290    0.0000 H   0  0  0  0  0  0  0  0  0  0  0  0
   -0.9058    0.3021    0.0000 H   0  0  0  0  0  0  0  0  0  0  0  0
    0.2211    0.0001    0.0000 H   0  0  0  0  0  0  0  0  0  0  0  0
    0.8934    1.8643    0.0000 H   0  0  0  0  0  0  0  0  0  0  0  0
    0.1529    1.8643    0.0000 H   0  0  0  0  0  0  0  0  0  0  0  0
    2.2963   -0.0227    0.0000 H   0  0  0  0  0  0  0  0  0  0  0  0
    3.0368   -0.0227    0.0000 H   0  0  0  0  0  0  0  0  0  0  0  0
  1  2  1  0  0  0  0
  2  3  1  0  0  0  0
  3  4  1  0  0  0  0
  4  5  2  0  0  0  0
  4  6  1  0  0  0  0
  6  7  1  0  0  0  0
  1  8  1  0  0  0  0
  1  9  1  0  0  0  0
  1 10  1  0  0  0  0
  2 11  1  0  0  0  0
  2 12  1  0  0  0  0
  6 13  1  0  0  0  0
  6 14  1  0  0  0  0
M  END
>  <InChIKey>
InChI=1S/C4H7BrO2/c1-2-7-4(6)3-5/h2-3H2,1H3

>  <CASRN>
105-36-2

> <Outcome>
1

>  <Index>
2531

>  <StandardizerResult>
Clear Stereo (ID: ClearStereo)
Wedge Clean (ID: WedgeClean)
Mesomerize (ID: Mesomerize)
Tautomerize (ID: Tautomerize)
Add Explicit Hydrogens (ID: AddExplicitH)
Neutralize (ID: Neutralize)
Clean 2D (ID: Clean2D)

> <knn Distance>


> <CpId>
2531

$$$$
2532
  Mrv1532301301811342D          

 41 43  0  0  0  0            999 V2000
   -0.2699   -8.1342    0.0000 C   0  0  0  0  0  0  0  0  0  0  0  0
    0.4446   -7.7217    0.0000 C   0  0  0  0  0  0  0  0  0  0  0  0
    1.1590   -8.1342    0.0000 O   0  0  0  0  0  0  0  0  0  0  0  0
    1.8735   -7.7217    0.0000 C   0  0  0  0  0  0  0  0  0  0  0  0
    1.8735   -6.8967    0.0000 O   0  0  0  0  0  0  0  0  0  0  0  0
    2.5880   -8.1342    0.0000 C   0  0  0  0  0  0  0  0  0  0  0  0
    2.5880   -8.9592    0.0000 C   0  0  0  0  0  0  0  0  0  0  0  0
    3.3025   -7.7217    0.0000 O   0  0  0  0  0  0  0  0  0  0  0  0
    4.0169   -8.1342    0.0000 C   0  0  0  0  0  0  0  0  0  0  0  0
    4.7314   -7.7217    0.0000 C   0  0  0  0  0  0  0  0  0  0  0  0
    5.4459   -8.1342    0.0000 C   0  0  0  0  0  0  0  0  0  0  0  0
    5.4459   -8.9592    0.0000 C   0  0  0  0  0  0  0  0  0  0  0  0
    6.1603   -9.3717    0.0000 O   0  0  0  0  0  0  0  0  0  0  0  0
    6.8748   -8.9592    0.0000 C   0  0  0  0  0  0  0  0  0  0  0  0
    6.9610   -8.1388    0.0000 N   0  0  0  0  0  0  0  0  0  0  0  0
    7.7680   -7.9672    0.0000 C   0  0  0  0  0  0  0  0  0  0  0  0
    8.1805   -7.2528    0.0000 C   0  0  0  0  0  0  0  0  0  0  0  0
    9.0055   -7.2528    0.0000 C   0  0  0  0  0  0  0  0  0  0  0  0
    9.4180   -7.9672    0.0000 C   0  0  0  0  0  0  0  0  0  0  0  0
   10.2430   -7.9672    0.0000 Cl  0  0  0  0  0  0  0  0  0  0  0  0
    9.0055   -8.6817    0.0000 C   0  0  0  0  0  0  0  0  0  0  0  0
    8.1805   -8.6817    0.0000 C   0  0  0  0  0  0  0  0  0  0  0  0
    7.6285   -9.2948    0.0000 O   0  0  0  0  0  0  0  0  0  0  0  0
    4.7314   -9.3717    0.0000 C   0  0  0  0  0  0  0  0  0  0  0  0
    4.0169   -8.9592    0.0000 C   0  0  0  0  0  0  0  0  0  0  0  0
   -0.6824   -7.4198    0.0000 H   0  0  0  0  0  0  0  0  0  0  0  0
   -0.9844   -8.5467    0.0000 H   0  0  0  0  0  0  0  0  0  0  0  0
    0.1426   -8.8487    0.0000 H   0  0  0  0  0  0  0  0  0  0  0  0
    0.8148   -6.9845    0.0000 H   0  0  0  0  0  0  0  0  0  0  0  0
    0.0743   -6.9845    0.0000 H   0  0  0  0  0  0  0  0  0  0  0  0
    1.8735   -8.5467    0.0000 H   0  0  0  0  0  0  0  0  0  0  0  0
    2.0046   -9.5426    0.0000 H   0  0  0  0  0  0  0  0  0  0  0  0
    3.0005   -9.6737    0.0000 H   0  0  0  0  0  0  0  0  0  0  0  0
    3.3849   -8.7457    0.0000 H   0  0  0  0  0  0  0  0  0  0  0  0
    4.7314   -6.8967    0.0000 H   0  0  0  0  0  0  0  0  0  0  0  0
    6.1603   -7.7217    0.0000 H   0  0  0  0  0  0  0  0  0  0  0  0
    7.7680   -6.5383    0.0000 H   0  0  0  0  0  0  0  0  0  0  0  0
    9.4180   -6.5383    0.0000 H   0  0  0  0  0  0  0  0  0  0  0  0
    9.4180   -9.3962    0.0000 H   0  0  0  0  0  0  0  0  0  0  0  0
    4.7314  -10.1967    0.0000 H   0  0  0  0  0  0  0  0  0  0  0  0
    3.6770   -9.7110    0.0000 H   0  0  0  0  0  0  0  0  0  0  0  0
  1  2  1  0  0  0  0
  2  3  1  0  0  0  0
  3  4  1  0  0  0  0
  4  5  2  0  0  0  0
  4  6  1  0  0  0  0
  6  7  1  0  0  0  0
  6  8  1  0  0  0  0
  8  9  1  0  0  0  0
  9 10  4  0  0  0  0
 10 11  4  0  0  0  0
 11 12  4  0  0  0  0
 12 13  1  0  0  0  0
 13 14  1  0  0  0  0
 14 15  4  0  0  0  0
 15 16  4  0  0  0  0
 16 17  4  0  0  0  0
 17 18  4  0  0  0  0
 18 19  4  0  0  0  0
 19 20  1  0  0  0  0
 19 21  4  0  0  0  0
 21 22  4  0  0  0  0
 16 22  4  0  0  0  0
 22 23  4  0  0  0  0
 14 23  4  0  0  0  0
 12 24  4  0  0  0  0
 24 25  4  0  0  0  0
  9 25  4  0  0  0  0
  1 26  1  0  0  0  0
  1 27  1  0  0  0  0
  1 28  1  0  0  0  0
  2 29  1  0  0  0  0
  2 30  1  0  0  0  0
  6 31  1  0  0  0  0
  7 32  1  0  0  0  0
  7 33  1  0  0  0  0
  7 34  1  0  0  0  0
 10 35  1  0  0  0  0
 11 36  1  0  0  0  0
 17 37  1  0  0  0  0
 18 38  1  0  0  0  0
 21 39  1  0  0  0  0
 24 40  1  0  0  0  0
 25 41  1  0  0  0  0
M  END
>  <InChIKey>
InChI=1S/C18H16ClNO5/c1-3-22-17(21)11(2)23-13-5-7-14(8-6-13)24-18-20-15-9-4-12(19)10-16(15)25-18/h4-11H,3H2,1-2H3

>  <CASRN>
66441-23-4

> <Outcome>
1

>  <Index>
2532

>  <StandardizerResult>
Dearomatize (ID: Dearomatize)
Clear Stereo (ID: ClearStereo)
Wedge Clean (ID: WedgeClean)
Mesomerize (ID: Mesomerize)
Tautomerize (ID: Tautomerize)
Aromatize (ID: Aromatize)
Add Explicit Hydrogens (ID: AddExplicitH)
Neutralize (ID: Neutralize)
Clean 2D (ID: Clean2D)

> <knn Distance>


> <CpId>
2532

$$$$
2535
  Mrv1532301301811342D          

 35 34  0  0  0  0            999 V2000
   -3.9324    0.6260    0.0000 Br  0  0  0  0  0  0  0  0  0  0  0  0
   -3.1074    0.6260    0.0000 C   0  0  0  0  0  0  0  0  0  0  0  0
   -2.6949   -0.0885    0.0000 C   0  0  0  0  0  0  0  0  0  0  0  0
   -3.1074   -0.8030    0.0000 Br  0  0  0  0  0  0  0  0  0  0  0  0
   -1.8699   -0.0885    0.0000 C   0  0  0  0  0  0  0  0  0  0  0  0
   -1.4574   -0.8030    0.0000 O   0  0  0  0  0  0  0  0  0  0  0  0
   -0.6324   -0.8030    0.0000 P   0  0  0  0  0  0  0  0  0  0  0  0
   -0.6324   -1.6280    0.0000 O   0  0  0  0  0  0  0  0  0  0  0  0
    0.1926   -0.8030    0.0000 O   0  0  0  0  0  0  0  0  0  0  0  0
    0.6051   -1.5174    0.0000 C   0  0  0  0  0  0  0  0  0  0  0  0
    1.4301   -1.5174    0.0000 C   0  0  0  0  0  0  0  0  0  0  0  0
    1.8426   -0.8030    0.0000 Br  0  0  0  0  0  0  0  0  0  0  0  0
    1.8426   -2.2319    0.0000 C   0  0  0  0  0  0  0  0  0  0  0  0
    2.6676   -2.2319    0.0000 Br  0  0  0  0  0  0  0  0  0  0  0  0
   -0.6324    0.0220    0.0000 O   0  0  0  0  0  0  0  0  0  0  0  0
    0.0821    0.4345    0.0000 C   0  0  0  0  0  0  0  0  0  0  0  0
    0.7966    0.0220    0.0000 C   0  0  0  0  0  0  0  0  0  0  0  0
    0.7966   -0.8030    0.0000 Br  0  0  0  0  0  0  0  0  0  0  0  0
    1.5110    0.4345    0.0000 C   0  0  0  0  0  0  0  0  0  0  0  0
    2.2255    0.0220    0.0000 Br  0  0  0  0  0  0  0  0  0  0  0  0
   -2.4181    1.0793    0.0000 H   0  0  0  0  0  0  0  0  0  0  0  0
   -3.0594    1.4496    0.0000 H   0  0  0  0  0  0  0  0  0  0  0  0
   -3.5199   -0.0885    0.0000 H   0  0  0  0  0  0  0  0  0  0  0  0
   -1.1806    0.3649    0.0000 H   0  0  0  0  0  0  0  0  0  0  0  0
   -1.8219    0.7351    0.0000 H   0  0  0  0  0  0  0  0  0  0  0  0
   -0.0842   -1.9708    0.0000 H   0  0  0  0  0  0  0  0  0  0  0  0
    0.5571   -2.3410    0.0000 H   0  0  0  0  0  0  0  0  0  0  0  0
    2.2551   -1.5174    0.0000 H   0  0  0  0  0  0  0  0  0  0  0  0
    1.1533   -2.6852    0.0000 H   0  0  0  0  0  0  0  0  0  0  0  0
    1.7946   -3.0555    0.0000 H   0  0  0  0  0  0  0  0  0  0  0  0
    0.4523    1.1718    0.0000 H   0  0  0  0  0  0  0  0  0  0  0  0
   -0.2882    1.1718    0.0000 H   0  0  0  0  0  0  0  0  0  0  0  0
    0.0821   -0.3905    0.0000 H   0  0  0  0  0  0  0  0  0  0  0  0
    1.8813    1.1718    0.0000 H   0  0  0  0  0  0  0  0  0  0  0  0
    1.1408    1.1718    0.0000 H   0  0  0  0  0  0  0  0  0  0  0  0
  1  2  1  0  0  0  0
  2  3  1  0  0  0  0
  3  4  1  0  0  0  0
  3  5  1  0  0  0  0
  5  6  1  0  0  0  0
  6  7  1  0  0  0  0
  7  8  2  0  0  0  0
  7  9  1  0  0  0  0
  9 10  1  0  0  0  0
 10 11  1  0  0  0  0
 11 12  1  0  0  0  0
 11 13  1  0  0  0  0
 13 14  1  0  0  0  0
  7 15  1  0  0  0  0
 15 16  1  0  0  0  0
 16 17  1  0  0  0  0
 17 18  1  0  0  0  0
 17 19  1  0  0  0  0
 19 20  1  0  0  0  0
  2 21  1  0  0  0  0
  2 22  1  0  0  0  0
  3 23  1  0  0  0  0
  5 24  1  0  0  0  0
  5 25  1  0  0  0  0
 10 26  1  0  0  0  0
 10 27  1  0  0  0  0
 11 28  1  0  0  0  0
 13 29  1  0  0  0  0
 13 30  1  0  0  0  0
 16 31  1  0  0  0  0
 16 32  1  0  0  0  0
 17 33  1  0  0  0  0
 19 34  1  0  0  0  0
 19 35  1  0  0  0  0
M  END
>  <InChIKey>
InChI=1S/C9H15Br6O4P/c10-1-7(13)4-17-20(16,18-5-8(14)2-11)19-6-9(15)3-12/h7-9H,1-6H2

>  <CASRN>
126-72-7

> <Outcome>
1

>  <Index>
2535

>  <StandardizerResult>
Clear Stereo (ID: ClearStereo)
Wedge Clean (ID: WedgeClean)
Mesomerize (ID: Mesomerize)
Tautomerize (ID: Tautomerize)
Add Explicit Hydrogens (ID: AddExplicitH)
Neutralize (ID: Neutralize)
Clean 2D (ID: Clean2D)

> <knn Distance>


> <CpId>
2535

$$$$
2536
  Mrv1532301301811342D          

 44 45  0  0  0  0            999 V2000
    1.6867   -3.7053    0.0000 C   0  0  0  0  0  0  0  0  0  0  0  0
    0.9722   -3.2928    0.0000 C   0  0  0  0  0  0  0  0  0  0  0  0
    0.2578   -3.7053    0.0000 C   0  0  0  0  0  0  0  0  0  0  0  0
    0.9722   -2.4678    0.0000 N   0  0  0  0  0  0  0  0  0  0  0  0
    0.2578   -2.0553    0.0000 C   0  0  0  0  0  0  0  0  0  0  0  0
    0.2578   -1.2303    0.0000 S   0  0  0  0  0  0  0  0  0  0  0  0
    0.9722   -0.8178    0.0000 C   0  0  0  0  0  0  0  0  0  0  0  0
    1.6867   -1.2303    0.0000 N   0  0  0  0  0  0  0  0  0  0  0  0
    1.6867   -2.0553    0.0000 C   0  0  0  0  0  0  0  0  0  0  0  0
    2.4012   -2.4678    0.0000 O   0  0  0  0  0  0  0  0  0  0  0  0
    2.4012   -0.8178    0.0000 C   0  0  0  0  0  0  0  0  0  0  0  0
    2.4012    0.0072    0.0000 C   0  0  0  0  0  0  0  0  0  0  0  0
    3.1157    0.4197    0.0000 C   0  0  0  0  0  0  0  0  0  0  0  0
    3.8301    0.0072    0.0000 C   0  0  0  0  0  0  0  0  0  0  0  0
    3.8301   -0.8178    0.0000 C   0  0  0  0  0  0  0  0  0  0  0  0
    3.1157   -1.2303    0.0000 C   0  0  0  0  0  0  0  0  0  0  0  0
   -0.4567   -2.4678    0.0000 N   0  0  0  0  0  0  0  0  0  0  0  0
   -1.1712   -2.0553    0.0000 C   0  0  0  0  0  0  0  0  0  0  0  0
   -1.8856   -1.6428    0.0000 C   0  0  0  0  0  0  0  0  0  0  0  0
   -0.7587   -1.3408    0.0000 C   0  0  0  0  0  0  0  0  0  0  0  0
   -1.5837   -2.7697    0.0000 C   0  0  0  0  0  0  0  0  0  0  0  0
    1.2742   -4.4197    0.0000 H   0  0  0  0  0  0  0  0  0  0  0  0
    2.4012   -4.1178    0.0000 H   0  0  0  0  0  0  0  0  0  0  0  0
    2.0992   -2.9908    0.0000 H   0  0  0  0  0  0  0  0  0  0  0  0
    0.9722   -4.1178    0.0000 H   0  0  0  0  0  0  0  0  0  0  0  0
    0.0442   -2.9084    0.0000 H   0  0  0  0  0  0  0  0  0  0  0  0
   -0.5672   -3.7053    0.0000 H   0  0  0  0  0  0  0  0  0  0  0  0
    0.0442   -4.5021    0.0000 H   0  0  0  0  0  0  0  0  0  0  0  0
    1.3425   -0.0805    0.0000 H   0  0  0  0  0  0  0  0  0  0  0  0
    0.6020   -0.0805    0.0000 H   0  0  0  0  0  0  0  0  0  0  0  0
    1.6867    0.4197    0.0000 H   0  0  0  0  0  0  0  0  0  0  0  0
    3.1157    1.2447    0.0000 H   0  0  0  0  0  0  0  0  0  0  0  0
    4.5446    0.4197    0.0000 H   0  0  0  0  0  0  0  0  0  0  0  0
    4.5446   -1.2303    0.0000 H   0  0  0  0  0  0  0  0  0  0  0  0
    3.1157   -2.0553    0.0000 H   0  0  0  0  0  0  0  0  0  0  0  0
   -1.4731   -0.9283    0.0000 H   0  0  0  0  0  0  0  0  0  0  0  0
   -2.6001   -1.2303    0.0000 H   0  0  0  0  0  0  0  0  0  0  0  0
   -2.2981   -2.3572    0.0000 H   0  0  0  0  0  0  0  0  0  0  0  0
   -0.2564   -1.9953    0.0000 H   0  0  0  0  0  0  0  0  0  0  0  0
    0.0382   -1.1273    0.0000 H   0  0  0  0  0  0  0  0  0  0  0  0
   -0.6510   -0.5228    0.0000 H   0  0  0  0  0  0  0  0  0  0  0  0
   -2.2382   -3.2720    0.0000 H   0  0  0  0  0  0  0  0  0  0  0  0
   -1.3701   -3.5666    0.0000 H   0  0  0  0  0  0  0  0  0  0  0  0
   -0.7657   -2.8774    0.0000 H   0  0  0  0  0  0  0  0  0  0  0  0
  1  2  1  0  0  0  0
  2  3  1  0  0  0  0
  2  4  1  0  0  0  0
  4  5  1  0  0  0  0
  5  6  1  0  0  0  0
  6  7  1  0  0  0  0
  7  8  1  0  0  0  0
  8  9  1  0  0  0  0
  4  9  1  0  0  0  0
  9 10  2  0  0  0  0
  8 11  1  0  0  0  0
 11 12  4  0  0  0  0
 12 13  4  0  0  0  0
 13 14  4  0  0  0  0
 14 15  4  0  0  0  0
 15 16  4  0  0  0  0
 11 16  4  0  0  0  0
  5 17  2  0  0  0  0
 17 18  1  4  0  0  0
 18 19  1  0  0  0  0
 18 20  1  0  0  0  0
 18 21  1  0  0  0  0
  1 22  1  0  0  0  0
  1 23  1  0  0  0  0
  1 24  1  0  0  0  0
  2 25  1  0  0  0  0
  3 26  1  0  0  0  0
  3 27  1  0  0  0  0
  3 28  1  0  0  0  0
  7 29  1  0  0  0  0
  7 30  1  0  0  0  0
 12 31  1  0  0  0  0
 13 32  1  0  0  0  0
 14 33  1  0  0  0  0
 15 34  1  0  0  0  0
 16 35  1  0  0  0  0
 19 36  1  0  0  0  0
 19 37  1  0  0  0  0
 19 38  1  0  0  0  0
 20 39  1  0  0  0  0
 20 40  1  0  0  0  0
 20 41  1  0  0  0  0
 21 42  1  0  0  0  0
 21 43  1  0  0  0  0
 21 44  1  0  0  0  0
M  END
>  <InChIKey>
InChI=1S/C16H23N3OS/c1-12(2)19-14(17-16(3,4)5)21-11-18(15(19)20)13-9-7-6-8-10-13/h6-10,12H,11H2,1-5H3

>  <CASRN>
69327-76-0

> <Outcome>
1

>  <Index>
2536

>  <StandardizerResult>
Dearomatize (ID: Dearomatize)
Clear Stereo (ID: ClearStereo)
Wedge Clean (ID: WedgeClean)
Mesomerize (ID: Mesomerize)
Tautomerize (ID: Tautomerize)
Aromatize (ID: Aromatize)
Add Explicit Hydrogens (ID: AddExplicitH)
Neutralize (ID: Neutralize)
Clean 2D (ID: Clean2D)

> <knn Distance>


> <CpId>
2536

$$$$
2537
  Mrv1532301301811342D          

 24 25  0  0  0  0            999 V2000
    0.7138   -3.7121    0.0000 O   0  0  0  0  0  0  0  0  0  0  0  0
    0.7138   -2.8871    0.0000 C   0  0  0  0  0  0  0  0  0  0  0  0
   -0.0006   -2.4746    0.0000 O   0  0  0  0  0  0  0  0  0  0  0  0
    1.4283   -2.4746    0.0000 C   0  0  0  0  0  0  0  0  0  0  0  0
    1.4283   -1.6496    0.0000 C   0  0  0  0  0  0  0  0  0  0  0  0
    0.7138   -1.2371    0.0000 C   0  0  0  0  0  0  0  0  0  0  0  0
    0.7138   -0.4121    0.0000 C   0  0  0  0  0  0  0  0  0  0  0  0
    1.4283    0.0004    0.0000 C   0  0  0  0  0  0  0  0  0  0  0  0
    2.1428   -0.4121    0.0000 C   0  0  0  0  0  0  0  0  0  0  0  0
    2.8573    0.0004    0.0000 C   0  0  0  0  0  0  0  0  0  0  0  0
    3.5717   -0.4121    0.0000 C   0  0  0  0  0  0  0  0  0  0  0  0
    3.5717   -1.2371    0.0000 C   0  0  0  0  0  0  0  0  0  0  0  0
    2.8573   -1.6496    0.0000 C   0  0  0  0  0  0  0  0  0  0  0  0
    2.1428   -1.2371    0.0000 C   0  0  0  0  0  0  0  0  0  0  0  0
   -0.0006   -4.1246    0.0000 H   0  0  0  0  0  0  0  0  0  0  0  0
    1.8817   -3.1639    0.0000 H   0  0  0  0  0  0  0  0  0  0  0  0
    2.2519   -2.5226    0.0000 H   0  0  0  0  0  0  0  0  0  0  0  0
   -0.0006   -1.6496    0.0000 H   0  0  0  0  0  0  0  0  0  0  0  0
   -0.0006    0.0004    0.0000 H   0  0  0  0  0  0  0  0  0  0  0  0
    1.4283    0.8254    0.0000 H   0  0  0  0  0  0  0  0  0  0  0  0
    2.8573    0.8254    0.0000 H   0  0  0  0  0  0  0  0  0  0  0  0
    4.2862    0.0004    0.0000 H   0  0  0  0  0  0  0  0  0  0  0  0
    4.2862   -1.6496    0.0000 H   0  0  0  0  0  0  0  0  0  0  0  0
    2.8573   -2.4746    0.0000 H   0  0  0  0  0  0  0  0  0  0  0  0
  1  2  1  0  0  0  0
  2  3  2  0  0  0  0
  2  4  1  0  0  0  0
  4  5  1  0  0  0  0
  5  6  4  0  0  0  0
  6  7  4  0  0  0  0
  7  8  4  0  0  0  0
  8  9  4  0  0  0  0
  9 10  4  0  0  0  0
 10 11  4  0  0  0  0
 11 12  4  0  0  0  0
 12 13  4  0  0  0  0
 13 14  4  0  0  0  0
  5 14  4  0  0  0  0
  9 14  4  0  0  0  0
  1 15  1  0  0  0  0
  4 16  1  0  0  0  0
  4 17  1  0  0  0  0
  6 18  1  0  0  0  0
  7 19  1  0  0  0  0
  8 20  1  0  0  0  0
 10 21  1  0  0  0  0
 11 22  1  0  0  0  0
 12 23  1  0  0  0  0
 13 24  1  0  0  0  0
M  END
>  <InChIKey>
InChI=1S/C12H10O2/c13-12(14)8-10-6-3-5-9-4-1-2-7-11(9)10/h1-7H,8H2,(H,13,14)

>  <UN GHS>
1

>  <CASRN>
61-31-4

> <Outcome>
1

>  <Index>
2537

>  <StandardizerResult>
Dearomatize (ID: Dearomatize)
Clear Stereo (ID: ClearStereo)
Wedge Clean (ID: WedgeClean)
Mesomerize (ID: Mesomerize)
Tautomerize (ID: Tautomerize)
Aromatize (ID: Aromatize)
Add Explicit Hydrogens (ID: AddExplicitH)
Neutralize (ID: Neutralize)
Clean 2D (ID: Clean2D)

> <knn Distance>


> <CpId>
2537

$$$$
2540
  Mrv1532301301811342D          

 37 37  0  0  0  0            999 V2000
    1.3819   -2.4580    0.0000 C   0  0  0  0  0  0  0  0  0  0  0  0
    0.6674   -2.0455    0.0000 C   0  0  0  0  0  0  0  0  0  0  0  0
    0.6674   -1.2205    0.0000 N   0  0  0  0  0  0  0  0  0  0  0  0
    1.3819   -0.8080    0.0000 C   0  0  0  0  0  0  0  0  0  0  0  0
    2.0964   -1.2205    0.0000 C   0  0  0  0  0  0  0  0  0  0  0  0
    2.8108   -0.8080    0.0000 C   0  0  0  0  0  0  0  0  0  0  0  0
    2.0964   -2.0455    0.0000 C   0  0  0  0  0  0  0  0  0  0  0  0
   -0.0471   -0.8080    0.0000 C   0  0  0  0  0  0  0  0  0  0  0  0
   -0.7615   -1.2205    0.0000 C   0  0  0  0  0  0  0  0  0  0  0  0
   -1.4760   -0.8080    0.0000 C   0  0  0  0  0  0  0  0  0  0  0  0
   -1.4760    0.0170    0.0000 C   0  0  0  0  0  0  0  0  0  0  0  0
   -0.7615    0.4295    0.0000 C   0  0  0  0  0  0  0  0  0  0  0  0
   -0.0471    0.0170    0.0000 C   0  0  0  0  0  0  0  0  0  0  0  0
    0.6674    0.4295    0.0000 N   0  0  0  0  0  0  0  0  0  0  0  0
    1.3819    0.0170    0.0000 O   0  0  0  0  0  0  0  0  0  0  0  0
    0.6674    1.2545    0.0000 O   0  0  0  0  0  0  0  0  0  0  0  0
   -2.1905    0.4295    0.0000 C   0  0  0  0  0  0  0  0  0  0  0  0
   -2.9049    0.8420    0.0000 F   0  0  0  0  0  0  0  0  0  0  0  0
   -1.7780    1.1440    0.0000 F   0  0  0  0  0  0  0  0  0  0  0  0
   -2.6030   -0.2850    0.0000 F   0  0  0  0  0  0  0  0  0  0  0  0
   -0.7615   -2.0455    0.0000 N   0  0  0  0  0  0  0  0  0  0  0  0
   -1.4760   -2.4580    0.0000 O   0  0  0  0  0  0  0  0  0  0  0  0
   -0.0471   -2.4580    0.0000 O   0  0  0  0  0  0  0  0  0  0  0  0
    0.6674   -2.8705    0.0000 H   0  0  0  0  0  0  0  0  0  0  0  0
    1.3819   -3.2830    0.0000 H   0  0  0  0  0  0  0  0  0  0  0  0
    2.0964   -2.8705    0.0000 H   0  0  0  0  0  0  0  0  0  0  0  0
    1.3819   -1.6330    0.0000 H   0  0  0  0  0  0  0  0  0  0  0  0
   -0.0471   -1.6330    0.0000 H   0  0  0  0  0  0  0  0  0  0  0  0
    0.6674   -0.3955    0.0000 H   0  0  0  0  0  0  0  0  0  0  0  0
    2.0964   -0.3955    0.0000 H   0  0  0  0  0  0  0  0  0  0  0  0
    3.0244   -1.6049    0.0000 H   0  0  0  0  0  0  0  0  0  0  0  0
    3.6358   -0.8080    0.0000 H   0  0  0  0  0  0  0  0  0  0  0  0
    3.0244   -0.0111    0.0000 H   0  0  0  0  0  0  0  0  0  0  0  0
    2.8716   -2.3277    0.0000 H   0  0  0  0  0  0  0  0  0  0  0  0
    2.8716   -1.7633    0.0000 H   0  0  0  0  0  0  0  0  0  0  0  0
   -2.1905   -1.2205    0.0000 H   0  0  0  0  0  0  0  0  0  0  0  0
   -0.7615    1.2545    0.0000 H   0  0  0  0  0  0  0  0  0  0  0  0
  1  2  1  0  0  0  0
  2  3  1  0  0  0  0
  3  4  1  0  0  0  0
  4  5  1  0  0  0  0
  5  6  1  0  0  0  0
  5  7  2  0  0  0  0
  3  8  1  0  0  0  0
  8  9  4  0  0  0  0
  9 10  4  0  0  0  0
 10 11  4  0  0  0  0
 11 12  4  0  0  0  0
 12 13  4  0  0  0  0
  8 13  4  0  0  0  0
 13 14  1  0  0  0  0
 14 15  2  0  0  0  0
 14 16  2  0  0  0  0
 11 17  1  0  0  0  0
 17 18  1  0  0  0  0
 17 19  1  0  0  0  0
 17 20  1  0  0  0  0
  9 21  1  0  0  0  0
 21 22  2  0  0  0  0
 21 23  2  0  0  0  0
  1 24  1  0  0  0  0
  1 25  1  0  0  0  0
  1 26  1  0  0  0  0
  2 27  1  0  0  0  0
  2 28  1  0  0  0  0
  4 29  1  0  0  0  0
  4 30  1  0  0  0  0
  6 31  1  0  0  0  0
  6 32  1  0  0  0  0
  6 33  1  0  0  0  0
  7 34  1  0  0  0  0
  7 35  1  0  0  0  0
 10 36  1  0  0  0  0
 12 37  1  0  0  0  0
M  END
>  <InChIKey>
InChI=1S/C13H14F3N3O4/c1-4-17(7-8(2)3)12-10(18(20)21)5-9(13(14,15)16)6-11(12)19(22)23/h5-6H,2,4,7H2,1,3H3

>  <CASRN>
55283-68-6

> <Outcome>
1

>  <Index>
2540

>  <StandardizerResult>
Dearomatize (ID: Dearomatize)
Clear Stereo (ID: ClearStereo)
Wedge Clean (ID: WedgeClean)
Mesomerize (ID: Mesomerize)
Tautomerize (ID: Tautomerize)
Aromatize (ID: Aromatize)
Add Explicit Hydrogens (ID: AddExplicitH)
Neutralize (ID: Neutralize)
Clean 2D (ID: Clean2D)

> <knn Distance>


> <CpId>
2540

$$$$
2547
  Mrv1532301301811342D          

 16 15  0  0  0  0            999 V2000
    2.5266   -1.4805    0.0000 C   0  0  0  0  0  0  0  0  0  0  0  0
    2.1141   -0.7660    0.0000 C   0  0  0  0  0  0  0  0  0  0  0  0
    2.5266   -0.0516    0.0000 O   0  0  0  0  0  0  0  0  0  0  0  0
    1.2891   -0.7660    0.0000 C   0  0  0  0  0  0  0  0  0  0  0  0
    0.8766   -0.0516    0.0000 C   0  0  0  0  0  0  0  0  0  0  0  0
    0.0516   -0.0516    0.0000 O   0  0  0  0  0  0  0  0  0  0  0  0
    1.8121   -1.8930    0.0000 H   0  0  0  0  0  0  0  0  0  0  0  0
    2.9391   -2.1950    0.0000 H   0  0  0  0  0  0  0  0  0  0  0  0
    3.2410   -1.0680    0.0000 H   0  0  0  0  0  0  0  0  0  0  0  0
    2.9391   -0.7660    0.0000 H   0  0  0  0  0  0  0  0  0  0  0  0
    2.5266    0.7734    0.0000 H   0  0  0  0  0  0  0  0  0  0  0  0
    0.5998   -1.2194    0.0000 H   0  0  0  0  0  0  0  0  0  0  0  0
    1.2411   -1.5896    0.0000 H   0  0  0  0  0  0  0  0  0  0  0  0
    1.5658    0.4018    0.0000 H   0  0  0  0  0  0  0  0  0  0  0  0
    0.9245    0.7720    0.0000 H   0  0  0  0  0  0  0  0  0  0  0  0
   -0.3609    0.6629    0.0000 H   0  0  0  0  0  0  0  0  0  0  0  0
  1  2  1  0  0  0  0
  2  3  1  0  0  0  0
  2  4  1  0  0  0  0
  4  5  1  0  0  0  0
  5  6  1  0  0  0  0
  1  7  1  0  0  0  0
  1  8  1  0  0  0  0
  1  9  1  0  0  0  0
  2 10  1  0  0  0  0
  3 11  1  0  0  0  0
  4 12  1  0  0  0  0
  4 13  1  0  0  0  0
  5 14  1  0  0  0  0
  5 15  1  0  0  0  0
  6 16  1  0  0  0  0
M  END
>  <InChIKey>
InChI=1S/C4H10O2/c1-4(6)2-3-5/h4-6H,2-3H2,1H3

>  <CASRN>
107-88-0

> <Outcome>
1

>  <Index>
2547

>  <StandardizerResult>
Clear Stereo (ID: ClearStereo)
Wedge Clean (ID: WedgeClean)
Mesomerize (ID: Mesomerize)
Tautomerize (ID: Tautomerize)
Add Explicit Hydrogens (ID: AddExplicitH)
Neutralize (ID: Neutralize)
Clean 2D (ID: Clean2D)

> <knn Distance>


> <CpId>
2547

$$$$
2548
  Mrv1532301301811342D          

 15 14  0  0  0  0            999 V2000
   -0.1913    0.7146    0.0000 C   0  0  0  0  0  0  0  0  0  0  0  0
    0.5231    1.1271    0.0000 C   0  0  0  0  0  0  0  0  0  0  0  0
    1.2376    0.7146    0.0000 O   0  0  0  0  0  0  0  0  0  0  0  0
    1.9521    1.1271    0.0000 C   0  0  0  0  0  0  0  0  0  0  0  0
    1.9521    1.9521    0.0000 O   0  0  0  0  0  0  0  0  0  0  0  0
    2.6665    0.7146    0.0000 C   0  0  0  0  0  0  0  0  0  0  0  0
    3.3810    1.1271    0.0000 S   0  0  0  0  0  0  0  0  0  0  0  0
   -0.6038    1.4290    0.0000 H   0  0  0  0  0  0  0  0  0  0  0  0
   -0.9058    0.3021    0.0000 H   0  0  0  0  0  0  0  0  0  0  0  0
    0.2212    0.0001    0.0000 H   0  0  0  0  0  0  0  0  0  0  0  0
    0.8934    1.8643    0.0000 H   0  0  0  0  0  0  0  0  0  0  0  0
    0.1529    1.8643    0.0000 H   0  0  0  0  0  0  0  0  0  0  0  0
    2.2963   -0.0227    0.0000 H   0  0  0  0  0  0  0  0  0  0  0  0
    3.0368   -0.0227    0.0000 H   0  0  0  0  0  0  0  0  0  0  0  0
    4.0955    0.7146    0.0000 H   0  0  0  0  0  0  0  0  0  0  0  0
  1  2  1  0  0  0  0
  2  3  1  0  0  0  0
  3  4  1  0  0  0  0
  4  5  2  0  0  0  0
  4  6  1  0  0  0  0
  6  7  1  0  0  0  0
  1  8  1  0  0  0  0
  1  9  1  0  0  0  0
  1 10  1  0  0  0  0
  2 11  1  0  0  0  0
  2 12  1  0  0  0  0
  6 13  1  0  0  0  0
  6 14  1  0  0  0  0
  7 15  1  0  0  0  0
M  END
>  <InChIKey>
InChI=1S/C4H8O2S/c1-2-6-4(5)3-7/h7H,2-3H2,1H3

>  <CASRN>
623-51-8  623-51-8

> <Outcome>
1

>  <Index>
2548

>  <StandardizerResult>
Clear Stereo (ID: ClearStereo)
Wedge Clean (ID: WedgeClean)
Mesomerize (ID: Mesomerize)
Tautomerize (ID: Tautomerize)
Add Explicit Hydrogens (ID: AddExplicitH)
Neutralize (ID: Neutralize)
Clean 2D (ID: Clean2D)

> <knn Distance>


> <CpId>
2548

$$$$
2554
  Mrv1532301301811342D          

 40 42  0  0  0  0            999 V2000
    0.7302    2.1311    0.0000 C   0  0  0  0  0  0  0  0  0  0  0  0
    1.4447    2.5436    0.0000 C   0  0  0  0  0  0  0  0  0  0  0  0
    2.1591    2.1311    0.0000 C   0  0  0  0  0  0  0  0  0  0  0  0
    2.1591    1.3061    0.0000 N   0  0  0  0  0  0  0  0  0  0  0  0
    2.8736    0.8936    0.0000 C   0  0  0  0  0  0  0  0  0  0  0  0
    3.5881    1.3061    0.0000 C   0  0  0  0  0  0  0  0  0  0  0  0
    4.3025    0.8936    0.0000 C   0  0  0  0  0  0  0  0  0  0  0  0
    4.3025    0.0686    0.0000 C   0  0  0  0  0  0  0  0  0  0  0  0
    3.5881   -0.3439    0.0000 C   0  0  0  0  0  0  0  0  0  0  0  0
    2.8736    0.0686    0.0000 C   0  0  0  0  0  0  0  0  0  0  0  0
    2.1591   -0.3439    0.0000 S   0  0  0  0  0  0  0  0  0  0  0  0
    1.4447    0.0686    0.0000 C   0  0  0  0  0  0  0  0  0  0  0  0
    0.7302   -0.3439    0.0000 C   0  0  0  0  0  0  0  0  0  0  0  0
    0.0157    0.0686    0.0000 C   0  0  0  0  0  0  0  0  0  0  0  0
    0.0157    0.8936    0.0000 C   0  0  0  0  0  0  0  0  0  0  0  0
    0.7302    1.3061    0.0000 C   0  0  0  0  0  0  0  0  0  0  0  0
    1.4447    0.8936    0.0000 C   0  0  0  0  0  0  0  0  0  0  0  0
    1.4447    3.3686    0.0000 N   0  0  0  0  0  0  0  0  0  0  0  0
    0.7302    3.7811    0.0000 C   0  0  0  0  0  0  0  0  0  0  0  0
    2.1591    3.7811    0.0000 C   0  0  0  0  0  0  0  0  0  0  0  0
    0.7302    2.9561    0.0000 H   0  0  0  0  0  0  0  0  0  0  0  0
    0.0157    2.5436    0.0000 H   0  0  0  0  0  0  0  0  0  0  0  0
    0.0157    1.7186    0.0000 H   0  0  0  0  0  0  0  0  0  0  0  0
    1.4447    1.7186    0.0000 H   0  0  0  0  0  0  0  0  0  0  0  0
    2.9827    2.1790    0.0000 H   0  0  0  0  0  0  0  0  0  0  0  0
    2.6125    2.8204    0.0000 H   0  0  0  0  0  0  0  0  0  0  0  0
    3.5881    2.1311    0.0000 H   0  0  0  0  0  0  0  0  0  0  0  0
    5.0170    1.3061    0.0000 H   0  0  0  0  0  0  0  0  0  0  0  0
    5.0170   -0.3439    0.0000 H   0  0  0  0  0  0  0  0  0  0  0  0
    3.5881   -1.1689    0.0000 H   0  0  0  0  0  0  0  0  0  0  0  0
    0.7302   -1.1689    0.0000 H   0  0  0  0  0  0  0  0  0  0  0  0
   -0.6987   -0.3439    0.0000 H   0  0  0  0  0  0  0  0  0  0  0  0
   -0.8093    0.8936    0.0000 H   0  0  0  0  0  0  0  0  0  0  0  0
    0.7302    0.4811    0.0000 H   0  0  0  0  0  0  0  0  0  0  0  0
    1.3136    4.3644    0.0000 H   0  0  0  0  0  0  0  0  0  0  0  0
    0.3177    4.4956    0.0000 H   0  0  0  0  0  0  0  0  0  0  0  0
   -0.0667    3.5676    0.0000 H   0  0  0  0  0  0  0  0  0  0  0  0
    2.5716    3.0666    0.0000 H   0  0  0  0  0  0  0  0  0  0  0  0
    2.8736    4.1936    0.0000 H   0  0  0  0  0  0  0  0  0  0  0  0
    1.7466    4.4956    0.0000 H   0  0  0  0  0  0  0  0  0  0  0  0
  1  2  1  0  0  0  0
  2  3  1  0  0  0  0
  3  4  1  0  0  0  0
  4  5  1  0  0  0  0
  5  6  4  0  0  0  0
  6  7  4  0  0  0  0
  7  8  4  0  0  0  0
  8  9  4  0  0  0  0
  9 10  4  0  0  0  0
  5 10  4  0  0  0  0
 10 11  1  0  0  0  0
 11 12  1  0  0  0  0
 12 13  4  0  0  0  0
 13 14  4  0  0  0  0
 14 15  4  0  0  0  0
 15 16  4  0  0  0  0
 16 17  4  0  0  0  0
  4 17  1  0  0  0  0
 12 17  4  0  0  0  0
  2 18  1  0  0  0  0
 18 19  1  0  0  0  0
 18 20  1  0  0  0  0
  1 21  1  0  0  0  0
  1 22  1  0  0  0  0
  1 23  1  0  0  0  0
  2 24  1  0  0  0  0
  3 25  1  0  0  0  0
  3 26  1  0  0  0  0
  6 27  1  0  0  0  0
  7 28  1  0  0  0  0
  8 29  1  0  0  0  0
  9 30  1  0  0  0  0
 13 31  1  0  0  0  0
 14 32  1  0  0  0  0
 15 33  1  0  0  0  0
 16 34  1  0  0  0  0
 19 35  1  0  0  0  0
 19 36  1  0  0  0  0
 19 37  1  0  0  0  0
 20 38  1  0  0  0  0
 20 39  1  0  0  0  0
 20 40  1  0  0  0  0
M  END
>  <InChIKey>
InChI=1S/C17H20N2S/c1-13(18(2)3)12-19-14-8-4-6-10-16(14)20-17-11-7-5-9-15(17)19/h4-11,13H,12H2,1-3H3

>  <UN GHS>
1

>  <CASRN>
60-87-7 58-33-3

> <Outcome>
1

>  <Index>
2554

>  <StandardizerResult>
Dearomatize (ID: Dearomatize)
Clear Stereo (ID: ClearStereo)
Wedge Clean (ID: WedgeClean)
Mesomerize (ID: Mesomerize)
Tautomerize (ID: Tautomerize)
Aromatize (ID: Aromatize)
Add Explicit Hydrogens (ID: AddExplicitH)
Neutralize (ID: Neutralize)
Clean 2D (ID: Clean2D)

> <knn Distance>


> <CpId>
2554

$$$$
2558
  Mrv1532301301811342D          

 23 22  0  0  0  0            999 V2000
    2.4507   -2.1259    0.0000 C   0  0  0  0  0  0  0  0  0  0  0  0
    2.4507   -1.3009    0.0000 C   0  0  0  0  0  0  0  0  0  0  0  0
    1.7362   -0.8884    0.0000 C   0  0  0  0  0  0  0  0  0  0  0  0
    1.7362   -0.0634    0.0000 C   0  0  0  0  0  0  0  0  0  0  0  0
    2.5612   -0.0634    0.0000 N   0  0  0  0  0  0  0  0  0  0  0  0
    1.7362    0.7616    0.0000 C   0  0  0  0  0  0  0  0  0  0  0  0
    1.0218    1.1741    0.0000 C   0  0  0  0  0  0  0  0  0  0  0  0
    0.9112   -0.0634    0.0000 C   0  0  0  0  0  0  0  0  0  0  0  0
    0.0862   -0.0634    0.0000 N   0  0  0  0  0  0  0  0  0  0  0  0
    1.6257   -2.1259    0.0000 H   0  0  0  0  0  0  0  0  0  0  0  0
    2.4507   -2.9509    0.0000 H   0  0  0  0  0  0  0  0  0  0  0  0
    3.2757   -2.1259    0.0000 H   0  0  0  0  0  0  0  0  0  0  0  0
    3.2743   -1.2529    0.0000 H   0  0  0  0  0  0  0  0  0  0  0  0
    2.9041   -0.6116    0.0000 H   0  0  0  0  0  0  0  0  0  0  0  0
    0.9126   -0.9363    0.0000 H   0  0  0  0  0  0  0  0  0  0  0  0
    1.2829   -1.5776    0.0000 H   0  0  0  0  0  0  0  0  0  0  0  0
    3.2406    0.4047    0.0000 H   0  0  0  0  0  0  0  0  0  0  0  0
    2.5979    0.7608    0.0000 H   0  0  0  0  0  0  0  0  0  0  0  0
    1.9501    1.5584    0.0000 H   0  0  0  0  0  0  0  0  0  0  0  0
    1.0218    0.3491    0.0000 H   0  0  0  0  0  0  0  0  0  0  0  0
    1.6051    1.7575    0.0000 H   0  0  0  0  0  0  0  0  0  0  0  0
    0.6093    1.8886    0.0000 H   0  0  0  0  0  0  0  0  0  0  0  0
    0.2249    0.9606    0.0000 H   0  0  0  0  0  0  0  0  0  0  0  0
  1  2  1  0  0  0  0
  2  3  1  0  0  0  0
  3  4  1  0  0  0  0
  4  5  1  0  0  0  0
  4  6  1  0  0  0  0
  6  7  1  0  0  0  0
  4  8  1  0  0  0  0
  8  9  3  0  0  0  0
  1 10  1  0  0  0  0
  1 11  1  0  0  0  0
  1 12  1  0  0  0  0
  2 13  1  0  0  0  0
  2 14  1  0  0  0  0
  3 15  1  0  0  0  0
  3 16  1  0  0  0  0
  5 17  1  0  0  0  0
  5 18  1  0  0  0  0
  6 19  1  0  0  0  0
  6 20  1  0  0  0  0
  7 21  1  0  0  0  0
  7 22  1  0  0  0  0
  7 23  1  0  0  0  0
M  END
>  <InChIKey>
InChI=1S/C7H14N2/c1-3-5-7(9,4-2)6-8/h3-5,9H2,1-2H3

> <Outcome>
1

>  <Index>
2558

>  <StandardizerResult>
Clear Stereo (ID: ClearStereo)
Wedge Clean (ID: WedgeClean)
Mesomerize (ID: Mesomerize)
Tautomerize (ID: Tautomerize)
Add Explicit Hydrogens (ID: AddExplicitH)
Neutralize (ID: Neutralize)
Clean 2D (ID: Clean2D)

> <knn Distance>


> <CpId>
2558

$$$$
2560
  Mrv1532301301811342D          

 48 54  0  0  0  0            999 V2000
    4.1415    1.5629    0.0000 C   0  0  0  0  0  0  0  0  0  0  0  0
    4.5540    0.8484    0.0000 C   0  0  0  0  0  0  0  0  0  0  0  0
    3.7290    0.8484    0.0000 N   0  0  0  0  0  0  0  0  0  0  0  0
    3.0145    0.4359    0.0000 P   0  0  0  0  0  0  0  0  0  0  0  0
    2.4842   -0.1961    0.0000 N   0  0  0  0  0  0  0  0  0  0  0  0
    1.6717   -0.0528    0.0000 P   0  0  0  0  0  0  0  0  0  0  0  0
    1.3896    0.7224    0.0000 N   0  0  0  0  0  0  0  0  0  0  0  0
    1.9199    1.3544    0.0000 P   0  0  0  0  0  0  0  0  0  0  0  0
    2.7323    1.2111    0.0000 N   0  0  0  0  0  0  0  0  0  0  0  0
    1.3068    1.9064    0.0000 N   0  0  0  0  0  0  0  0  0  0  0  0
    0.4998    2.0780    0.0000 C   0  0  0  0  0  0  0  0  0  0  0  0
    1.0518    2.6911    0.0000 C   0  0  0  0  0  0  0  0  0  0  0  0
    2.0347    2.1714    0.0000 N   0  0  0  0  0  0  0  0  0  0  0  0
    1.7256    2.9363    0.0000 C   0  0  0  0  0  0  0  0  0  0  0  0
    2.5426    2.8215    0.0000 C   0  0  0  0  0  0  0  0  0  0  0  0
    1.5002   -0.8598    0.0000 N   0  0  0  0  0  0  0  0  0  0  0  0
    1.7552   -1.6444    0.0000 C   0  0  0  0  0  0  0  0  0  0  0  0
    0.9482   -1.4729    0.0000 C   0  0  0  0  0  0  0  0  0  0  0  0
    0.9068   -0.3619    0.0000 N   0  0  0  0  0  0  0  0  0  0  0  0
    0.3989   -1.0120    0.0000 C   0  0  0  0  0  0  0  0  0  0  0  0
    0.0898   -0.2471    0.0000 C   0  0  0  0  0  0  0  0  0  0  0  0
    3.5448   -0.1961    0.0000 N   0  0  0  0  0  0  0  0  0  0  0  0
    4.3201   -0.4783    0.0000 C   0  0  0  0  0  0  0  0  0  0  0  0
    3.6881   -1.0086    0.0000 C   0  0  0  0  0  0  0  0  0  0  0  0
    4.5948    2.2522    0.0000 H   0  0  0  0  0  0  0  0  0  0  0  0
    3.6881    2.2522    0.0000 H   0  0  0  0  0  0  0  0  0  0  0  0
    4.9242    0.1112    0.0000 H   0  0  0  0  0  0  0  0  0  0  0  0
    5.3776    0.8964    0.0000 H   0  0  0  0  0  0  0  0  0  0  0  0
   -0.2958    2.2961    0.0000 H   0  0  0  0  0  0  0  0  0  0  0  0
   -0.0156    1.4338    0.0000 H   0  0  0  0  0  0  0  0  0  0  0  0
    0.8960    3.5012    0.0000 H   0  0  0  0  0  0  0  0  0  0  0  0
    0.3591    3.1390    0.0000 H   0  0  0  0  0  0  0  0  0  0  0  0
    1.9684    3.7248    0.0000 H   0  0  0  0  0  0  0  0  0  0  0  0
    1.3243    3.6571    0.0000 H   0  0  0  0  0  0  0  0  0  0  0  0
    3.3515    2.6594    0.0000 H   0  0  0  0  0  0  0  0  0  0  0  0
    3.0119    3.5000    0.0000 H   0  0  0  0  0  0  0  0  0  0  0  0
    1.9640   -2.4425    0.0000 H   0  0  0  0  0  0  0  0  0  0  0  0
    2.5707   -1.7687    0.0000 H   0  0  0  0  0  0  0  0  0  0  0  0
    0.3245   -2.0129    0.0000 H   0  0  0  0  0  0  0  0  0  0  0  0
    0.9066   -2.2968    0.0000 H   0  0  0  0  0  0  0  0  0  0  0  0
   -0.4053   -1.1960    0.0000 H   0  0  0  0  0  0  0  0  0  0  0  0
   -0.0246   -1.7200    0.0000 H   0  0  0  0  0  0  0  0  0  0  0  0
   -0.1742    0.5345    0.0000 H   0  0  0  0  0  0  0  0  0  0  0  0
   -0.7324   -0.1799    0.0000 H   0  0  0  0  0  0  0  0  0  0  0  0
    4.6247   -1.2450    0.0000 H   0  0  0  0  0  0  0  0  0  0  0  0
    5.0526   -0.8576    0.0000 H   0  0  0  0  0  0  0  0  0  0  0  0
    2.8935   -1.2304    0.0000 H   0  0  0  0  0  0  0  0  0  0  0  0
    3.4090   -1.7849    0.0000 H   0  0  0  0  0  0  0  0  0  0  0  0
  1  2  1  0  0  0  0
  2  3  1  0  0  0  0
  1  3  1  0  0  0  0
  3  4  1  0  0  0  0
  4  5  2  0  0  0  0
  5  6  1  0  0  0  0
  6  7  2  0  0  0  0
  7  8  1  0  0  0  0
  8  9  2  0  0  0  0
  4  9  1  0  0  0  0
  8 10  1  0  0  0  0
 10 11  1  0  0  0  0
 11 12  1  0  0  0  0
 10 12  1  0  0  0  0
  8 13  1  0  0  0  0
 13 14  1  0  0  0  0
 14 15  1  0  0  0  0
 13 15  1  0  0  0  0
  6 16  1  0  0  0  0
 16 17  1  0  0  0  0
 17 18  1  0  0  0  0
 16 18  1  0  0  0  0
  6 19  1  0  0  0  0
 19 20  1  0  0  0  0
 20 21  1  0  0  0  0
 19 21  1  0  0  0  0
  4 22  1  0  0  0  0
 22 23  1  0  0  0  0
 23 24  1  0  0  0  0
 22 24  1  0  0  0  0
  1 25  1  0  0  0  0
  1 26  1  0  0  0  0
  2 27  1  0  0  0  0
  2 28  1  0  0  0  0
 11 29  1  0  0  0  0
 11 30  1  0  0  0  0
 12 31  1  0  0  0  0
 12 32  1  0  0  0  0
 14 33  1  0  0  0  0
 14 34  1  0  0  0  0
 15 35  1  0  0  0  0
 15 36  1  0  0  0  0
 17 37  1  0  0  0  0
 17 38  1  0  0  0  0
 18 39  1  0  0  0  0
 18 40  1  0  0  0  0
 20 41  1  0  0  0  0
 20 42  1  0  0  0  0
 21 43  1  0  0  0  0
 21 44  1  0  0  0  0
 23 45  1  0  0  0  0
 23 46  1  0  0  0  0
 24 47  1  0  0  0  0
 24 48  1  0  0  0  0
M  END
>  <InChIKey>
InChI=1S/C12H24N9P3/c1-2-16(1)22(17-3-4-17)13-23(18-5-6-18,19-7-8-19)15-24(14-22,20-9-10-20)21-11-12-21/h1-12H2

>  <CASRN>
52-46-0

> <Outcome>
1

>  <Index>
2560

>  <StandardizerResult>
Clear Stereo (ID: ClearStereo)
Wedge Clean (ID: WedgeClean)
Mesomerize (ID: Mesomerize)
Tautomerize (ID: Tautomerize)
Add Explicit Hydrogens (ID: AddExplicitH)
Neutralize (ID: Neutralize)
Clean 2D (ID: Clean2D)

> <knn Distance>


> <CpId>
2560

$$$$
2561
  Mrv1532301301811342D          

 16 15  0  0  0  0            999 V2000
   -0.1914    0.7145    0.0000 C   0  0  0  0  0  0  0  0  0  0  0  0
    0.5230    1.1270    0.0000 C   0  0  0  0  0  0  0  0  0  0  0  0
    1.2375    0.7145    0.0000 C   0  0  0  0  0  0  0  0  0  0  0  0
    1.9520    1.1270    0.0000 C   0  0  0  0  0  0  0  0  0  0  0  0
    2.6664    0.7145    0.0000 C   0  0  0  0  0  0  0  0  0  0  0  0
    3.3809    1.1270    0.0000 C   0  0  0  0  0  0  0  0  0  0  0  0
   -0.9059    1.1270    0.0000 H   0  0  0  0  0  0  0  0  0  0  0  0
   -0.1914   -0.1105    0.0000 H   0  0  0  0  0  0  0  0  0  0  0  0
    0.5230    1.9520    0.0000 H   0  0  0  0  0  0  0  0  0  0  0  0
    0.8672   -0.0227    0.0000 H   0  0  0  0  0  0  0  0  0  0  0  0
    1.6078   -0.0227    0.0000 H   0  0  0  0  0  0  0  0  0  0  0  0
    2.3222    1.8642    0.0000 H   0  0  0  0  0  0  0  0  0  0  0  0
    1.5817    1.8642    0.0000 H   0  0  0  0  0  0  0  0  0  0  0  0
    2.6664   -0.1105    0.0000 H   0  0  0  0  0  0  0  0  0  0  0  0
    4.0954    0.7145    0.0000 H   0  0  0  0  0  0  0  0  0  0  0  0
    3.3809    1.9520    0.0000 H   0  0  0  0  0  0  0  0  0  0  0  0
  1  2  2  0  0  0  0
  2  3  1  0  0  0  0
  3  4  1  0  0  0  0
  4  5  1  0  0  0  0
  5  6  2  0  0  0  0
  1  7  1  0  0  0  0
  1  8  1  0  0  0  0
  2  9  1  0  0  0  0
  3 10  1  0  0  0  0
  3 11  1  0  0  0  0
  4 12  1  0  0  0  0
  4 13  1  0  0  0  0
  5 14  1  0  0  0  0
  6 15  1  0  0  0  0
  6 16  1  0  0  0  0
M  END
>  <InChIKey>
InChI=1S/C6H10/c1-3-5-6-4-2/h3-4H,1-2,5-6H2

>  <CASRN>
592-42-7  592-42-7

> <Outcome>
1

>  <Index>
2561

>  <StandardizerResult>
Clear Stereo (ID: ClearStereo)
Wedge Clean (ID: WedgeClean)
Mesomerize (ID: Mesomerize)
Tautomerize (ID: Tautomerize)
Add Explicit Hydrogens (ID: AddExplicitH)
Neutralize (ID: Neutralize)
Clean 2D (ID: Clean2D)

> <knn Distance>


> <CpId>
2561

$$$$
2563
  Mrv1532301301811342D          

 21 23  0  0  0  0            999 V2000
    0.9130   -0.8764    0.0000 Cl  0  0  0  0  0  0  0  0  0  0  0  0
    1.7200   -1.0480    0.0000 C   0  0  0  0  0  0  0  0  0  0  0  0
    2.2720   -0.4349    0.0000 C   0  0  0  0  0  0  0  0  0  0  0  0
    3.0790   -0.6064    0.0000 C   0  0  0  0  0  0  0  0  0  0  0  0
    3.7464   -0.1215    0.0000 O   0  0  0  0  0  0  0  0  0  0  0  0
    4.4139   -0.6064    0.0000 C   0  0  0  0  0  0  0  0  0  0  0  0
    5.2208   -0.4349    0.0000 C   0  0  0  0  0  0  0  0  0  0  0  0
    5.7729   -1.0480    0.0000 C   0  0  0  0  0  0  0  0  0  0  0  0
    6.5798   -0.8764    0.0000 Cl  0  0  0  0  0  0  0  0  0  0  0  0
    5.5179   -1.8326    0.0000 C   0  0  0  0  0  0  0  0  0  0  0  0
    6.0700   -2.4457    0.0000 Cl  0  0  0  0  0  0  0  0  0  0  0  0
    4.7109   -2.0041    0.0000 C   0  0  0  0  0  0  0  0  0  0  0  0
    4.4560   -2.7887    0.0000 Cl  0  0  0  0  0  0  0  0  0  0  0  0
    4.1589   -1.3910    0.0000 C   0  0  0  0  0  0  0  0  0  0  0  0
    3.3339   -1.3910    0.0000 C   0  0  0  0  0  0  0  0  0  0  0  0
    2.7819   -2.0041    0.0000 C   0  0  0  0  0  0  0  0  0  0  0  0
    3.0368   -2.7887    0.0000 Cl  0  0  0  0  0  0  0  0  0  0  0  0
    1.9749   -1.8326    0.0000 C   0  0  0  0  0  0  0  0  0  0  0  0
    1.4229   -2.4457    0.0000 Cl  0  0  0  0  0  0  0  0  0  0  0  0
    2.0171    0.3498    0.0000 H   0  0  0  0  0  0  0  0  0  0  0  0
    5.4758    0.3498    0.0000 H   0  0  0  0  0  0  0  0  0  0  0  0
  1  2  1  0  0  0  0
  2  3  4  0  0  0  0
  3  4  4  0  0  0  0
  4  5  4  0  0  0  0
  5  6  4  0  0  0  0
  6  7  4  0  0  0  0
  7  8  4  0  0  0  0
  8  9  1  0  0  0  0
  8 10  4  0  0  0  0
 10 11  1  0  0  0  0
 10 12  4  0  0  0  0
 12 13  1  0  0  0  0
 12 14  4  0  0  0  0
  6 14  4  0  0  0  0
 14 15  4  0  0  0  0
  4 15  4  0  0  0  0
 15 16  4  0  0  0  0
 16 17  1  0  0  0  0
 16 18  4  0  0  0  0
  2 18  4  0  0  0  0
 18 19  1  0  0  0  0
  3 20  1  0  0  0  0
  7 21  1  0  0  0  0
M  END
>  <InChIKey>
InChI=1S/C12H2Cl6O/c13-3-1-5-7(11(17)9(3)15)8-6(19-5)2-4(14)10(16)12(8)18/h1-2H

>  <CASRN>
72918-21-9

> <Outcome>
1

>  <Index>
2563

>  <StandardizerResult>
Dearomatize (ID: Dearomatize)
Clear Stereo (ID: ClearStereo)
Wedge Clean (ID: WedgeClean)
Mesomerize (ID: Mesomerize)
Tautomerize (ID: Tautomerize)
Aromatize (ID: Aromatize)
Add Explicit Hydrogens (ID: AddExplicitH)
Neutralize (ID: Neutralize)
Clean 2D (ID: Clean2D)

> <knn Distance>


> <CpId>
2563

$$$$
2565
  Mrv1532301301811342D          

 24 26  0  0  0  0            999 V2000
    2.1434    2.0625    0.0000 O   0  0  0  0  0  0  0  0  0  0  0  0
    2.1434    1.2375    0.0000 C   0  0  0  0  0  0  0  0  0  0  0  0
    2.8579    0.8250    0.0000 C   0  0  0  0  0  0  0  0  0  0  0  0
    3.5724    1.2375    0.0000 C   0  0  0  0  0  0  0  0  0  0  0  0
    4.2868    0.8250    0.0000 C   0  0  0  0  0  0  0  0  0  0  0  0
    4.2868   -0.0000    0.0000 C   0  0  0  0  0  0  0  0  0  0  0  0
    3.5724   -0.4125    0.0000 C   0  0  0  0  0  0  0  0  0  0  0  0
    2.8579    0.0000    0.0000 C   0  0  0  0  0  0  0  0  0  0  0  0
    2.1434   -0.4125    0.0000 C   0  0  0  0  0  0  0  0  0  0  0  0
    2.1434   -1.2375    0.0000 O   0  0  0  0  0  0  0  0  0  0  0  0
    1.4289    0.0000    0.0000 C   0  0  0  0  0  0  0  0  0  0  0  0
    0.7145   -0.4125    0.0000 S   0  0  0  0  0  0  0  0  0  0  0  0
    0.0000   -0.0000    0.0000 C   0  0  0  0  0  0  0  0  0  0  0  0
   -0.7145   -0.4125    0.0000 C   0  0  0  0  0  0  0  0  0  0  0  0
   -1.4289   -0.8250    0.0000 N   0  0  0  0  0  0  0  0  0  0  0  0
    0.0000    0.8250    0.0000 C   0  0  0  0  0  0  0  0  0  0  0  0
    0.7145    1.2375    0.0000 S   0  0  0  0  0  0  0  0  0  0  0  0
    1.4289    0.8250    0.0000 C   0  0  0  0  0  0  0  0  0  0  0  0
   -0.7145    1.2375    0.0000 C   0  0  0  0  0  0  0  0  0  0  0  0
   -1.4289    1.6500    0.0000 N   0  0  0  0  0  0  0  0  0  0  0  0
    3.5724    2.0625    0.0000 H   0  0  0  0  0  0  0  0  0  0  0  0
    5.0013    1.2375    0.0000 H   0  0  0  0  0  0  0  0  0  0  0  0
    5.0013   -0.4125    0.0000 H   0  0  0  0  0  0  0  0  0  0  0  0
    3.5724   -1.2375    0.0000 H   0  0  0  0  0  0  0  0  0  0  0  0
  1  2  2  0  0  0  0
  2  3  1  0  0  0  0
  3  4  4  0  0  0  0
  4  5  4  0  0  0  0
  5  6  4  0  0  0  0
  6  7  4  0  0  0  0
  7  8  4  0  0  0  0
  3  8  4  0  0  0  0
  8  9  1  0  0  0  0
  9 10  2  0  0  0  0
  9 11  1  0  0  0  0
 11 12  1  0  0  0  0
 12 13  1  0  0  0  0
 13 14  1  0  0  0  0
 14 15  3  0  0  0  0
 13 16  2  0  0  0  0
 16 17  1  0  0  0  0
 17 18  1  0  0  0  0
  2 18  1  0  0  0  0
 11 18  2  0  0  0  0
 16 19  1  0  0  0  0
 19 20  3  0  0  0  0
  4 21  1  0  0  0  0
  5 22  1  0  0  0  0
  6 23  1  0  0  0  0
  7 24  1  0  0  0  0
M  END
>  <InChIKey>
InChI=1S/C14H4N2O2S2/c15-5-9-10(6-16)20-14-12(18)8-4-2-1-3-7(8)11(17)13(14)19-9/h1-4H

>  <CASRN>
3347-22-6

> <Outcome>
1

>  <Index>
2565

>  <StandardizerResult>
Dearomatize (ID: Dearomatize)
Clear Stereo (ID: ClearStereo)
Wedge Clean (ID: WedgeClean)
Mesomerize (ID: Mesomerize)
Tautomerize (ID: Tautomerize)
Aromatize (ID: Aromatize)
Add Explicit Hydrogens (ID: AddExplicitH)
Neutralize (ID: Neutralize)
Clean 2D (ID: Clean2D)

> <knn Distance>


> <CpId>
2565

$$$$
2568
  Mrv1532301301811342D          

 18 18  0  0  0  0            999 V2000
    0.7145    2.0625    0.0000 N   0  0  0  0  0  0  0  0  0  0  0  0
    0.7145    1.2375    0.0000 C   0  0  0  0  0  0  0  0  0  0  0  0
    1.4289    0.8250    0.0000 N   0  0  0  0  0  0  0  0  0  0  0  0
    1.4289    0.0000    0.0000 C   0  0  0  0  0  0  0  0  0  0  0  0
    2.1434   -0.4125    0.0000 N   0  0  0  0  0  0  0  0  0  0  0  0
    0.7145   -0.4125    0.0000 C   0  0  0  0  0  0  0  0  0  0  0  0
    0.7145   -1.2375    0.0000 N   0  0  0  0  0  0  0  0  0  0  0  0
    0.0000    0.0000    0.0000 C   0  0  0  0  0  0  0  0  0  0  0  0
   -0.7145   -0.4125    0.0000 N   0  0  0  0  0  0  0  0  0  0  0  0
    0.0000    0.8250    0.0000 N   0  0  0  0  0  0  0  0  0  0  0  0
    1.4289    2.4750    0.0000 H   0  0  0  0  0  0  0  0  0  0  0  0
    0.0000    2.4750    0.0000 H   0  0  0  0  0  0  0  0  0  0  0  0
    2.1434   -1.2375    0.0000 H   0  0  0  0  0  0  0  0  0  0  0  0
    2.8579    0.0000    0.0000 H   0  0  0  0  0  0  0  0  0  0  0  0
    0.0000   -1.6500    0.0000 H   0  0  0  0  0  0  0  0  0  0  0  0
    1.4289   -1.6500    0.0000 H   0  0  0  0  0  0  0  0  0  0  0  0
   -1.4289    0.0000    0.0000 H   0  0  0  0  0  0  0  0  0  0  0  0
   -0.7145   -1.2375    0.0000 H   0  0  0  0  0  0  0  0  0  0  0  0
  1  2  1  0  0  0  0
  2  3  4  0  0  0  0
  3  4  4  0  0  0  0
  4  5  1  0  0  0  0
  4  6  4  0  0  0  0
  6  7  1  0  0  0  0
  6  8  4  0  0  0  0
  8  9  1  0  0  0  0
  8 10  4  0  0  0  0
  2 10  4  0  0  0  0
  1 11  1  0  0  0  0
  1 12  1  0  0  0  0
  5 13  1  0  0  0  0
  5 14  1  0  0  0  0
  7 15  1  0  0  0  0
  7 16  1  0  0  0  0
  9 17  1  0  0  0  0
  9 18  1  0  0  0  0
M  END
>  <InChIKey>
InChI=1S/C4H8N6/c5-1-2(6)9-4(8)10-3(1)7/h5H2,(H6,6,7,8,9,10)

>  <CASRN>
1004-74-6 5392-28-9

> <Outcome>
1

>  <Index>
2568

>  <StandardizerResult>
Dearomatize (ID: Dearomatize)
Clear Stereo (ID: ClearStereo)
Wedge Clean (ID: WedgeClean)
Mesomerize (ID: Mesomerize)
Tautomerize (ID: Tautomerize)
Aromatize (ID: Aromatize)
Add Explicit Hydrogens (ID: AddExplicitH)
Neutralize (ID: Neutralize)
Clean 2D (ID: Clean2D)

> <knn Distance>


> <CpId>
2568

$$$$
2569
  Mrv1532301301811342D          

 11 10  0  0  0  0            999 V2000
    2.4742   -1.4303    0.0000 C   0  0  0  0  0  0  0  0  0  0  0  0
    2.0617   -0.7158    0.0000 O   0  0  0  0  0  0  0  0  0  0  0  0
    1.2367   -0.7158    0.0000 C   0  0  0  0  0  0  0  0  0  0  0  0
    0.8242   -1.4303    0.0000 O   0  0  0  0  0  0  0  0  0  0  0  0
    0.8242   -0.0014    0.0000 C   0  0  0  0  0  0  0  0  0  0  0  0
   -0.0008   -0.0014    0.0000 Cl  0  0  0  0  0  0  0  0  0  0  0  0
    1.7597   -1.8428    0.0000 H   0  0  0  0  0  0  0  0  0  0  0  0
    2.8867   -2.1448    0.0000 H   0  0  0  0  0  0  0  0  0  0  0  0
    3.1887   -1.0178    0.0000 H   0  0  0  0  0  0  0  0  0  0  0  0
    1.5135    0.4520    0.0000 H   0  0  0  0  0  0  0  0  0  0  0  0
    0.8722    0.8222    0.0000 H   0  0  0  0  0  0  0  0  0  0  0  0
  1  2  1  0  0  0  0
  2  3  1  0  0  0  0
  3  4  2  0  0  0  0
  3  5  1  0  0  0  0
  5  6  1  0  0  0  0
  1  7  1  0  0  0  0
  1  8  1  0  0  0  0
  1  9  1  0  0  0  0
  5 10  1  0  0  0  0
  5 11  1  0  0  0  0
M  END
>  <InChIKey>
InChI=1S/C3H5ClO2/c1-6-3(5)2-4/h2H2,1H3

>  <CASRN>
96-34-4

> <Outcome>
1

>  <Index>
2569

>  <StandardizerResult>
Clear Stereo (ID: ClearStereo)
Wedge Clean (ID: WedgeClean)
Mesomerize (ID: Mesomerize)
Tautomerize (ID: Tautomerize)
Add Explicit Hydrogens (ID: AddExplicitH)
Neutralize (ID: Neutralize)
Clean 2D (ID: Clean2D)

> <knn Distance>


> <CpId>
2569

$$$$
2572
  Mrv1532301301811342D          

 21 21  0  0  0  0            999 V2000
   -0.7145    3.7125    0.0000 O   0  0  0  0  0  0  0  0  0  0  0  0
   -0.0000    3.3000    0.0000 C   0  0  0  0  0  0  0  0  0  0  0  0
    0.7145    3.7125    0.0000 O   0  0  0  0  0  0  0  0  0  0  0  0
   -0.0000    2.4750    0.0000 C   0  0  0  0  0  0  0  0  0  0  0  0
    0.7145    2.0625    0.0000 C   0  0  0  0  0  0  0  0  0  0  0  0
    0.7145    1.2375    0.0000 C   0  0  0  0  0  0  0  0  0  0  0  0
    1.4289    0.8250    0.0000 C   0  0  0  0  0  0  0  0  0  0  0  0
    1.4289    0.0000    0.0000 C   0  0  0  0  0  0  0  0  0  0  0  0
    0.7145   -0.4125    0.0000 C   0  0  0  0  0  0  0  0  0  0  0  0
    0.7145   -1.2375    0.0000 O   0  0  0  0  0  0  0  0  0  0  0  0
   -0.0000    0.0000    0.0000 C   0  0  0  0  0  0  0  0  0  0  0  0
   -0.7145   -0.4125    0.0000 O   0  0  0  0  0  0  0  0  0  0  0  0
   -0.0000    0.8250    0.0000 C   0  0  0  0  0  0  0  0  0  0  0  0
   -0.7145    4.5375    0.0000 H   0  0  0  0  0  0  0  0  0  0  0  0
   -0.7145    2.0625    0.0000 H   0  0  0  0  0  0  0  0  0  0  0  0
    1.4289    2.4750    0.0000 H   0  0  0  0  0  0  0  0  0  0  0  0
    2.1434    1.2375    0.0000 H   0  0  0  0  0  0  0  0  0  0  0  0
    2.1434   -0.4125    0.0000 H   0  0  0  0  0  0  0  0  0  0  0  0
   -0.0000   -1.6500    0.0000 H   0  0  0  0  0  0  0  0  0  0  0  0
   -1.4289    0.0000    0.0000 H   0  0  0  0  0  0  0  0  0  0  0  0
   -0.7145    1.2375    0.0000 H   0  0  0  0  0  0  0  0  0  0  0  0
  1  2  1  0  0  0  0
  2  3  2  0  0  0  0
  4  2  1  4  0  0  0
  4  5  2  0  0  0  0
  5  6  1  0  0  0  0
  6  7  4  0  0  0  0
  7  8  4  0  0  0  0
  8  9  4  0  0  0  0
  9 10  1  0  0  0  0
  9 11  4  0  0  0  0
 11 12  1  0  0  0  0
 11 13  4  0  0  0  0
  6 13  4  0  0  0  0
  1 14  1  0  0  0  0
  4 15  1  0  0  0  0
  5 16  1  0  0  0  0
  7 17  1  0  0  0  0
  8 18  1  0  0  0  0
 10 19  1  0  0  0  0
 12 20  1  0  0  0  0
 13 21  1  0  0  0  0
M  END
>  <InChIKey>
InChI=1S/C9H8O4/c10-7-3-1-6(5-8(7)11)2-4-9(12)13/h1-5,10-11H,(H,12,13)

>  <CASRN>
331-39-5

> <Outcome>
1

>  <Index>
2572

>  <StandardizerResult>
Dearomatize (ID: Dearomatize)
Clear Stereo (ID: ClearStereo)
Wedge Clean (ID: WedgeClean)
Mesomerize (ID: Mesomerize)
Tautomerize (ID: Tautomerize)
Aromatize (ID: Aromatize)
Add Explicit Hydrogens (ID: AddExplicitH)
Neutralize (ID: Neutralize)
Clean 2D (ID: Clean2D)

> <knn Distance>


> <CpId>
2572

$$$$
2573
  Mrv1532301301811342D          

 12 12  0  0  0  0            999 V2000
    0.7145    2.0625    0.0000 Br  0  0  0  0  0  0  0  0  0  0  0  0
    0.7145    1.2375    0.0000 C   0  0  0  0  0  0  0  0  0  0  0  0
    1.4289    0.8250    0.0000 C   0  0  0  0  0  0  0  0  0  0  0  0
    1.4289    0.0000    0.0000 C   0  0  0  0  0  0  0  0  0  0  0  0
    0.7145   -0.4125    0.0000 C   0  0  0  0  0  0  0  0  0  0  0  0
   -0.0000    0.0000    0.0000 C   0  0  0  0  0  0  0  0  0  0  0  0
   -0.0000    0.8250    0.0000 C   0  0  0  0  0  0  0  0  0  0  0  0
    2.1434    1.2375    0.0000 H   0  0  0  0  0  0  0  0  0  0  0  0
    2.1434   -0.4125    0.0000 H   0  0  0  0  0  0  0  0  0  0  0  0
    0.7145   -1.2375    0.0000 H   0  0  0  0  0  0  0  0  0  0  0  0
   -0.7145   -0.4125    0.0000 H   0  0  0  0  0  0  0  0  0  0  0  0
   -0.7145    1.2375    0.0000 H   0  0  0  0  0  0  0  0  0  0  0  0
  1  2  1  0  0  0  0
  2  3  4  0  0  0  0
  3  4  4  0  0  0  0
  4  5  4  0  0  0  0
  5  6  4  0  0  0  0
  6  7  4  0  0  0  0
  2  7  4  0  0  0  0
  3  8  1  0  0  0  0
  4  9  1  0  0  0  0
  5 10  1  0  0  0  0
  6 11  1  0  0  0  0
  7 12  1  0  0  0  0
M  END
>  <InChIKey>
InChI=1S/C6H5Br/c7-6-4-2-1-3-5-6/h1-5H

>  <CASRN>
108-86-1

> <Outcome>
1

>  <Index>
2573

>  <StandardizerResult>
Dearomatize (ID: Dearomatize)
Clear Stereo (ID: ClearStereo)
Wedge Clean (ID: WedgeClean)
Mesomerize (ID: Mesomerize)
Tautomerize (ID: Tautomerize)
Aromatize (ID: Aromatize)
Add Explicit Hydrogens (ID: AddExplicitH)
Neutralize (ID: Neutralize)
Clean 2D (ID: Clean2D)

> <knn Distance>


> <CpId>
2573

$$$$
2574
  Mrv1532301301811342D          

 19 19  0  0  0  0            999 V2000
    1.7378    1.0800    0.0000 C   0  0  0  0  0  0  0  0  0  0  0  0
    1.0233    0.6675    0.0000 N   0  0  0  0  0  0  0  0  0  0  0  0
    1.0233   -0.1575    0.0000 C   0  0  0  0  0  0  0  0  0  0  0  0
    0.3088   -0.5700    0.0000 S   0  0  0  0  0  0  0  0  0  0  0  0
   -0.4056   -0.1575    0.0000 C   0  0  0  0  0  0  0  0  0  0  0  0
   -1.1201   -0.5700    0.0000 S   0  0  0  0  0  0  0  0  0  0  0  0
   -0.4056    0.6675    0.0000 N   0  0  0  0  0  0  0  0  0  0  0  0
   -1.1201    1.0800    0.0000 C   0  0  0  0  0  0  0  0  0  0  0  0
    0.3088    1.0800    0.0000 C   0  0  0  0  0  0  0  0  0  0  0  0
    2.1503    0.3655    0.0000 H   0  0  0  0  0  0  0  0  0  0  0  0
    2.4522    1.4925    0.0000 H   0  0  0  0  0  0  0  0  0  0  0  0
    1.3253    1.7945    0.0000 H   0  0  0  0  0  0  0  0  0  0  0  0
    1.4766   -0.8468    0.0000 H   0  0  0  0  0  0  0  0  0  0  0  0
    1.8469   -0.2055    0.0000 H   0  0  0  0  0  0  0  0  0  0  0  0
   -0.7076    1.7945    0.0000 H   0  0  0  0  0  0  0  0  0  0  0  0
   -1.8346    1.4925    0.0000 H   0  0  0  0  0  0  0  0  0  0  0  0
   -1.5326    0.3655    0.0000 H   0  0  0  0  0  0  0  0  0  0  0  0
    0.6791    1.8172    0.0000 H   0  0  0  0  0  0  0  0  0  0  0  0
   -0.0614    1.8172    0.0000 H   0  0  0  0  0  0  0  0  0  0  0  0
  1  2  1  0  0  0  0
  2  3  1  0  0  0  0
  3  4  1  0  0  0  0
  4  5  1  0  0  0  0
  5  6  2  0  0  0  0
  5  7  1  0  0  0  0
  7  8  1  0  0  0  0
  7  9  1  0  0  0  0
  2  9  1  0  0  0  0
  1 10  1  0  0  0  0
  1 11  1  0  0  0  0
  1 12  1  0  0  0  0
  3 13  1  0  0  0  0
  3 14  1  0  0  0  0
  8 15  1  0  0  0  0
  8 16  1  0  0  0  0
  8 17  1  0  0  0  0
  9 18  1  0  0  0  0
  9 19  1  0  0  0  0
M  END
>  <InChIKey>
InChI=1S/C5H10N2S2/c1-6-3-7(2)5(8)9-4-6/h3-4H2,1-2H3

>  <CASRN>
533-74-4

> <Outcome>
1

>  <Index>
2574

>  <StandardizerResult>
Clear Stereo (ID: ClearStereo)
Wedge Clean (ID: WedgeClean)
Mesomerize (ID: Mesomerize)
Tautomerize (ID: Tautomerize)
Add Explicit Hydrogens (ID: AddExplicitH)
Neutralize (ID: Neutralize)
Clean 2D (ID: Clean2D)

> <knn Distance>


> <CpId>
2574

$$$$
2575
  Mrv1532301301811342D          

 26 28  0  0  0  0            999 V2000
    2.1434   -3.7125    0.0000 O   0  0  0  0  0  0  0  0  0  0  0  0
    2.1434   -2.8875    0.0000 C   0  0  0  0  0  0  0  0  0  0  0  0
    1.4289   -2.4750    0.0000 C   0  0  0  0  0  0  0  0  0  0  0  0
    1.4289   -1.6500    0.0000 C   0  0  0  0  0  0  0  0  0  0  0  0
    2.1434   -1.2375    0.0000 C   0  0  0  0  0  0  0  0  0  0  0  0
    2.8579   -1.6500    0.0000 C   0  0  0  0  0  0  0  0  0  0  0  0
    3.5724   -1.2375    0.0000 C   0  0  0  0  0  0  0  0  0  0  0  0
    3.5724   -0.4125    0.0000 O   0  0  0  0  0  0  0  0  0  0  0  0
    4.2868   -1.6500    0.0000 C   0  0  0  0  0  0  0  0  0  0  0  0
    5.0013   -1.2375    0.0000 C   0  0  0  0  0  0  0  0  0  0  0  0
    5.7158   -1.6500    0.0000 C   0  0  0  0  0  0  0  0  0  0  0  0
    5.7158   -2.4750    0.0000 C   0  0  0  0  0  0  0  0  0  0  0  0
    5.0013   -2.8875    0.0000 C   0  0  0  0  0  0  0  0  0  0  0  0
    5.0013   -3.7125    0.0000 O   0  0  0  0  0  0  0  0  0  0  0  0
    4.2868   -2.4750    0.0000 C   0  0  0  0  0  0  0  0  0  0  0  0
    3.5724   -2.8875    0.0000 C   0  0  0  0  0  0  0  0  0  0  0  0
    3.5724   -3.7125    0.0000 O   0  0  0  0  0  0  0  0  0  0  0  0
    2.8579   -2.4750    0.0000 C   0  0  0  0  0  0  0  0  0  0  0  0
    1.4289   -4.1250    0.0000 H   0  0  0  0  0  0  0  0  0  0  0  0
    0.7145   -2.8875    0.0000 H   0  0  0  0  0  0  0  0  0  0  0  0
    0.7145   -1.2375    0.0000 H   0  0  0  0  0  0  0  0  0  0  0  0
    2.1434   -0.4125    0.0000 H   0  0  0  0  0  0  0  0  0  0  0  0
    5.0013   -0.4125    0.0000 H   0  0  0  0  0  0  0  0  0  0  0  0
    6.4302   -1.2375    0.0000 H   0  0  0  0  0  0  0  0  0  0  0  0
    6.4302   -2.8875    0.0000 H   0  0  0  0  0  0  0  0  0  0  0  0
    4.2868   -4.1250    0.0000 H   0  0  0  0  0  0  0  0  0  0  0  0
  1  2  1  0  0  0  0
  2  3  4  0  0  0  0
  3  4  4  0  0  0  0
  4  5  4  0  0  0  0
  5  6  4  0  0  0  0
  6  7  1  0  0  0  0
  7  8  2  0  0  0  0
  7  9  1  0  0  0  0
  9 10  4  0  0  0  0
 10 11  4  0  0  0  0
 11 12  4  0  0  0  0
 12 13  4  0  0  0  0
 13 14  1  0  0  0  0
 13 15  4  0  0  0  0
  9 15  4  0  0  0  0
 15 16  1  0  0  0  0
 16 17  2  0  0  0  0
 16 18  1  0  0  0  0
  2 18  4  0  0  0  0
  6 18  4  0  0  0  0
  1 19  1  0  0  0  0
  3 20  1  0  0  0  0
  4 21  1  0  0  0  0
  5 22  1  0  0  0  0
 10 23  1  0  0  0  0
 11 24  1  0  0  0  0
 12 25  1  0  0  0  0
 14 26  1  0  0  0  0
M  END
>  <InChIKey>
InChI=1S/C14H8O4/c15-9-5-1-3-7-11(9)14(18)12-8(13(7)17)4-2-6-10(12)16/h1-6,15-16H

>  <CASRN>
117-10-2

> <Outcome>
1

>  <Index>
2575

>  <StandardizerResult>
Dearomatize (ID: Dearomatize)
Clear Stereo (ID: ClearStereo)
Wedge Clean (ID: WedgeClean)
Mesomerize (ID: Mesomerize)
Tautomerize (ID: Tautomerize)
Aromatize (ID: Aromatize)
Add Explicit Hydrogens (ID: AddExplicitH)
Neutralize (ID: Neutralize)
Clean 2D (ID: Clean2D)

> <knn Distance>


> <CpId>
2575

$$$$
2576
  Mrv1532301301811342D          

 26 29  0  0  0  0            999 V2000
   -1.9851    1.6344    0.0000 Cl  0  0  0  0  0  0  0  0  0  0  0  0
   -1.4381    0.9032    0.0000 C   0  0  0  0  0  0  0  0  0  0  0  0
   -1.4381   -0.0868    0.0000 C   0  0  0  0  0  0  0  0  0  0  0  0
   -1.9850   -0.8180    0.0000 Cl  0  0  0  0  0  0  0  0  0  0  0  0
   -0.8061   -0.4168    0.0000 C   0  0  0  0  0  0  0  0  0  0  0  0
   -0.7143   -1.3017    0.0000 Cl  0  0  0  0  0  0  0  0  0  0  0  0
   -0.0916   -0.0043    0.0000 C   0  0  0  0  0  0  0  0  0  0  0  0
    0.6228   -0.4168    0.0000 C   0  0  0  0  0  0  0  0  0  0  0  0
    0.4166    0.4082    0.0000 C   0  0  0  0  0  0  0  0  0  0  0  0
    0.6228    1.2332    0.0000 C   0  0  0  0  0  0  0  0  0  0  0  0
    1.3373    0.8207    0.0000 C   0  0  0  0  0  0  0  0  0  0  0  0
    1.3373   -0.0043    0.0000 C   0  0  0  0  0  0  0  0  0  0  0  0
   -0.0916    0.8207    0.0000 C   0  0  0  0  0  0  0  0  0  0  0  0
   -0.8061    1.2332    0.0000 C   0  0  0  0  0  0  0  0  0  0  0  0
   -0.7144    2.1182    0.0000 Cl  0  0  0  0  0  0  0  0  0  0  0  0
   -1.0123    0.4082    0.0000 C   0  0  0  0  0  0  0  0  0  0  0  0
   -1.9890    0.7185    0.0000 Cl  0  0  0  0  0  0  0  0  0  0  0  0
   -1.9890    0.0980    0.0000 Cl  0  0  0  0  0  0  0  0  0  0  0  0
   -0.0916   -0.8293    0.0000 H   0  0  0  0  0  0  0  0  0  0  0  0
    1.0353   -1.1312    0.0000 H   0  0  0  0  0  0  0  0  0  0  0  0
    1.1623    0.0554    0.0000 H   0  0  0  0  0  0  0  0  0  0  0  0
    1.1623    0.7611    0.0000 H   0  0  0  0  0  0  0  0  0  0  0  0
    0.6228    2.0582    0.0000 H   0  0  0  0  0  0  0  0  0  0  0  0
    2.0518    1.2332    0.0000 H   0  0  0  0  0  0  0  0  0  0  0  0
    2.0518   -0.4168    0.0000 H   0  0  0  0  0  0  0  0  0  0  0  0
   -0.0916    1.6457    0.0000 H   0  0  0  0  0  0  0  0  0  0  0  0
  1  2  1  0  0  0  0
  2  3  2  0  0  0  0
  3  4  1  0  0  0  0
  3  5  1  0  0  0  0
  5  6  1  0  0  0  0
  5  7  1  0  0  0  0
  7  8  1  0  0  0  0
  8  9  1  0  0  0  0
  9 10  1  0  0  0  0
 10 11  1  0  0  0  0
 11 12  2  0  0  0  0
  8 12  1  0  0  0  0
 10 13  1  0  0  0  0
  7 13  1  0  0  0  0
 13 14  1  0  0  0  0
  2 14  1  0  0  0  0
 14 15  1  0  0  0  0
 14 16  1  0  0  0  0
  5 16  1  0  0  0  0
 16 17  1  0  0  0  0
 16 18  1  0  0  0  0
  7 19  1  0  0  0  0
  8 20  1  0  0  0  0
  9 21  1  0  0  0  0
  9 22  1  0  0  0  0
 10 23  1  0  0  0  0
 11 24  1  0  0  0  0
 12 25  1  0  0  0  0
 13 26  1  0  0  0  0
M  END
>  <InChIKey>
InChI=1S/C12H8Cl6/c13-8-9(14)11(16)7-5-2-1-4(3-5)6(7)10(8,15)12(11,17)18/h1-2,4-7H,3H2

>  <CASRN>
309-00-2

> <Outcome>
1

>  <Index>
2576

>  <StandardizerResult>
Clear Stereo (ID: ClearStereo)
Wedge Clean (ID: WedgeClean)
Mesomerize (ID: Mesomerize)
Tautomerize (ID: Tautomerize)
Add Explicit Hydrogens (ID: AddExplicitH)
Neutralize (ID: Neutralize)
Clean 2D (ID: Clean2D)

> <knn Distance>


> <CpId>
2576

$$$$
2579
  Mrv1532301301811342D          

 21 20  0  0  0  0            999 V2000
    3.1424    2.6705    0.0000 C   0  0  0  0  0  0  0  0  0  0  0  0
    3.1424    1.8455    0.0000 C   0  0  0  0  0  0  0  0  0  0  0  0
    2.4279    1.4330    0.0000 C   0  0  0  0  0  0  0  0  0  0  0  0
    1.7134    1.8455    0.0000 Cl  0  0  0  0  0  0  0  0  0  0  0  0
    3.8568    1.4330    0.0000 O   0  0  0  0  0  0  0  0  0  0  0  0
    4.5713    1.8455    0.0000 C   0  0  0  0  0  0  0  0  0  0  0  0
    4.5713    2.6705    0.0000 C   0  0  0  0  0  0  0  0  0  0  0  0
    5.2858    1.4330    0.0000 C   0  0  0  0  0  0  0  0  0  0  0  0
    6.0002    1.8455    0.0000 Cl  0  0  0  0  0  0  0  0  0  0  0  0
    3.9674    2.6705    0.0000 H   0  0  0  0  0  0  0  0  0  0  0  0
    3.1424    3.4955    0.0000 H   0  0  0  0  0  0  0  0  0  0  0  0
    2.3174    2.6705    0.0000 H   0  0  0  0  0  0  0  0  0  0  0  0
    2.4279    2.2580    0.0000 H   0  0  0  0  0  0  0  0  0  0  0  0
    2.0576    0.6957    0.0000 H   0  0  0  0  0  0  0  0  0  0  0  0
    2.7981    0.6957    0.0000 H   0  0  0  0  0  0  0  0  0  0  0  0
    3.8568    2.2580    0.0000 H   0  0  0  0  0  0  0  0  0  0  0  0
    5.3335    2.3548    0.0000 H   0  0  0  0  0  0  0  0  0  0  0  0
    5.1547    3.2538    0.0000 H   0  0  0  0  0  0  0  0  0  0  0  0
    4.2556    3.4327    0.0000 H   0  0  0  0  0  0  0  0  0  0  0  0
    4.9155    0.6957    0.0000 H   0  0  0  0  0  0  0  0  0  0  0  0
    5.6560    0.6957    0.0000 H   0  0  0  0  0  0  0  0  0  0  0  0
  1  2  1  0  0  0  0
  2  3  1  0  0  0  0
  3  4  1  0  0  0  0
  2  5  1  0  0  0  0
  5  6  1  0  0  0  0
  6  7  1  0  0  0  0
  6  8  1  0  0  0  0
  8  9  1  0  0  0  0
  1 10  1  0  0  0  0
  1 11  1  0  0  0  0
  1 12  1  0  0  0  0
  2 13  1  0  0  0  0
  3 14  1  0  0  0  0
  3 15  1  0  0  0  0
  6 16  1  0  0  0  0
  7 17  1  0  0  0  0
  7 18  1  0  0  0  0
  7 19  1  0  0  0  0
  8 20  1  0  0  0  0
  8 21  1  0  0  0  0
M  END
>  <InChIKey>
InChI=1S/C6H12Cl2O/c1-5(3-7)9-6(2)4-8/h5-6H,3-4H2,1-2H3

>  <CASRN>
108-60-1

> <Outcome>
1

>  <Index>
2579

>  <StandardizerResult>
Clear Stereo (ID: ClearStereo)
Wedge Clean (ID: WedgeClean)
Mesomerize (ID: Mesomerize)
Tautomerize (ID: Tautomerize)
Add Explicit Hydrogens (ID: AddExplicitH)
Neutralize (ID: Neutralize)
Clean 2D (ID: Clean2D)

> <knn Distance>


> <CpId>
2579

$$$$
2588
  Mrv1532301301811342D          

 54 57  0  0  0  0            999 V2000
    2.5661   -3.2560    0.0000 C   0  0  0  0  0  0  0  0  0  0  0  0
    2.0022   -2.6538    0.0000 C   0  0  0  0  0  0  0  0  0  0  0  0
    1.1987   -2.8410    0.0000 C   0  0  0  0  0  0  0  0  0  0  0  0
    0.9591   -3.6304    0.0000 O   0  0  0  0  0  0  0  0  0  0  0  0
    0.6349   -2.2387    0.0000 C   0  0  0  0  0  0  0  0  0  0  0  0
    0.0326   -2.8026    0.0000 O   0  0  0  0  0  0  0  0  0  0  0  0
    0.8745   -1.4493    0.0000 C   0  0  0  0  0  0  0  0  0  0  0  0
    1.6780   -1.2621    0.0000 C   0  0  0  0  0  0  0  0  0  0  0  0
    1.7973   -0.4458    0.0000 C   0  0  0  0  0  0  0  0  0  0  0  0
    2.5099   -0.0300    0.0000 C   0  0  0  0  0  0  0  0  0  0  0  0
    2.4445    0.7924    0.0000 C   0  0  0  0  0  0  0  0  0  0  0  0
    1.6996    1.1470    0.0000 O   0  0  0  0  0  0  0  0  0  0  0  0
    3.2792   -0.3280    0.0000 C   0  0  0  0  0  0  0  0  0  0  0  0
    3.5259   -1.1152    0.0000 C   0  0  0  0  0  0  0  0  0  0  0  0
    4.1022   -0.5249    0.0000 O   0  0  0  0  0  0  0  0  0  0  0  0
    3.0642   -1.7990    0.0000 C   0  0  0  0  0  0  0  0  0  0  0  0
    3.5718   -2.4493    0.0000 C   0  0  0  0  0  0  0  0  0  0  0  0
    4.3472   -2.1675    0.0000 C   0  0  0  0  0  0  0  0  0  0  0  0
    5.0310   -2.6292    0.0000 C   0  0  0  0  0  0  0  0  0  0  0  0
    4.3188   -1.3430    0.0000 C   0  0  0  0  0  0  0  0  0  0  0  0
    4.9692   -0.8354    0.0000 O   0  0  0  0  0  0  0  0  0  0  0  0
    2.2418   -1.8643    0.0000 C   0  0  0  0  0  0  0  0  0  0  0  0
    2.7591   -2.5070    0.0000 O   0  0  0  0  0  0  0  0  0  0  0  0
    0.0710   -1.6365    0.0000 C   0  0  0  0  0  0  0  0  0  0  0  0
   -0.4382   -0.9874    0.0000 C   0  0  0  0  0  0  0  0  0  0  0  0
   -0.7131   -1.8930    0.0000 C   0  0  0  0  0  0  0  0  0  0  0  0
    1.8426   -3.6525    0.0000 H   0  0  0  0  0  0  0  0  0  0  0  0
    2.7703   -4.0553    0.0000 H   0  0  0  0  0  0  0  0  0  0  0  0
    3.3911   -3.2569    0.0000 H   0  0  0  0  0  0  0  0  0  0  0  0
    1.7626   -3.4432    0.0000 H   0  0  0  0  0  0  0  0  0  0  0  0
    0.3952   -3.0281    0.0000 H   0  0  0  0  0  0  0  0  0  0  0  0
    0.6215   -4.3831    0.0000 H   0  0  0  0  0  0  0  0  0  0  0  0
   -0.7884   -2.8833    0.0000 H   0  0  0  0  0  0  0  0  0  0  0  0
    0.6873   -0.6458    0.0000 H   0  0  0  0  0  0  0  0  0  0  0  0
    2.4652   -1.0154    0.0000 H   0  0  0  0  0  0  0  0  0  0  0  0
    1.1135    0.0159    0.0000 H   0  0  0  0  0  0  0  0  0  0  0  0
    3.2617    0.9054    0.0000 H   0  0  0  0  0  0  0  0  0  0  0  0
    2.8418    1.5154    0.0000 H   0  0  0  0  0  0  0  0  0  0  0  0
    1.6343    1.9694    0.0000 H   0  0  0  0  0  0  0  0  0  0  0  0
    3.5247    0.4596    0.0000 H   0  0  0  0  0  0  0  0  0  0  0  0
    2.6770   -0.8919    0.0000 H   0  0  0  0  0  0  0  0  0  0  0  0
    4.3377    0.2658    0.0000 H   0  0  0  0  0  0  0  0  0  0  0  0
    2.6485   -1.0864    0.0000 H   0  0  0  0  0  0  0  0  0  0  0  0
    4.1914   -2.9941    0.0000 H   0  0  0  0  0  0  0  0  0  0  0  0
    5.1616   -3.4438    0.0000 H   0  0  0  0  0  0  0  0  0  0  0  0
    5.8525   -2.7050    0.0000 H   0  0  0  0  0  0  0  0  0  0  0  0
    5.3084   -1.8522    0.0000 H   0  0  0  0  0  0  0  0  0  0  0  0
    3.2872   -3.1408    0.0000 H   0  0  0  0  0  0  0  0  0  0  0  0
    0.3133   -0.6470    0.0000 H   0  0  0  0  0  0  0  0  0  0  0  0
   -0.5902   -0.1765    0.0000 H   0  0  0  0  0  0  0  0  0  0  0  0
   -1.2620   -0.9423    0.0000 H   0  0  0  0  0  0  0  0  0  0  0  0
   -1.4229   -1.4726    0.0000 H   0  0  0  0  0  0  0  0  0  0  0  0
   -1.2902   -2.4826    0.0000 H   0  0  0  0  0  0  0  0  0  0  0  0
   -0.2776   -2.5937    0.0000 H   0  0  0  0  0  0  0  0  0  0  0  0
  1  2  1  0  0  0  0
  2  3  1  0  0  0  0
  3  4  1  0  0  0  0
  3  5  1  0  0  0  0
  5  6  1  0  0  0  0
  5  7  1  0  0  0  0
  7  8  1  0  0  0  0
  8  9  1  0  0  0  0
  9 10  2  0  0  0  0
 10 11  1  0  0  0  0
 11 12  1  0  0  0  0
 10 13  1  0  0  0  0
 13 14  1  0  0  0  0
 14 15  1  0  0  0  0
 14 16  1  0  0  0  0
 16 17  1  0  0  0  0
 17 18  2  0  0  0  0
 18 19  1  0  0  0  0
 18 20  1  0  0  0  0
 14 20  1  0  0  0  0
 20 21  2  0  0  0  0
 16 22  1  0  0  0  0
  2 22  1  0  0  0  0
  8 22  1  0  0  0  0
 22 23  1  0  0  0  0
  7 24  1  0  0  0  0
  5 24  1  0  0  0  0
 24 25  1  0  0  0  0
 24 26  1  0  0  0  0
  1 27  1  0  0  0  0
  1 28  1  0  0  0  0
  1 29  1  0  0  0  0
  2 30  1  0  0  0  0
  3 31  1  0  0  0  0
  4 32  1  0  0  0  0
  6 33  1  0  0  0  0
  7 34  1  0  0  0  0
  8 35  1  0  0  0  0
  9 36  1  0  0  0  0
 11 37  1  0  0  0  0
 11 38  1  0  0  0  0
 12 39  1  0  0  0  0
 13 40  1  0  0  0  0
 13 41  1  0  0  0  0
 15 42  1  0  0  0  0
 16 43  1  0  0  0  0
 17 44  1  0  0  0  0
 19 45  1  0  0  0  0
 19 46  1  0  0  0  0
 19 47  1  0  0  0  0
 23 48  1  0  0  0  0
 25 49  1  0  0  0  0
 25 50  1  0  0  0  0
 25 51  1  0  0  0  0
 26 52  1  0  0  0  0
 26 53  1  0  0  0  0
 26 54  1  0  0  0  0
M  END
>  <InChIKey>
InChI=1S/C20H28O6/c1-9-5-13-18(24,15(9)22)7-11(8-21)6-12-14-17(3,4)20(14,26)16(23)10(2)19(12,13)25/h5-6,10,12-14,16,21,23-26H,7-8H2,1-4H3

>  <CASRN>
17673-25-5

> <Outcome>
1

>  <Index>
2588

>  <StandardizerResult>
Clear Stereo (ID: ClearStereo)
Wedge Clean (ID: WedgeClean)
Mesomerize (ID: Mesomerize)
Tautomerize (ID: Tautomerize)
Add Explicit Hydrogens (ID: AddExplicitH)
Neutralize (ID: Neutralize)
Clean 2D (ID: Clean2D)

> <knn Distance>


> <CpId>
2588

$$$$
2589
  Mrv1532301301811342D          

 25 25  0  0  0  0            999 V2000
    0.7792    3.0184    0.0000 C   0  0  0  0  0  0  0  0  0  0  0  0
    0.7792    2.1934    0.0000 C   0  0  0  0  0  0  0  0  0  0  0  0
   -0.0458    2.1934    0.0000 C   0  0  0  0  0  0  0  0  0  0  0  0
    1.6042    2.1934    0.0000 C   0  0  0  0  0  0  0  0  0  0  0  0
    0.7792    1.3684    0.0000 C   0  0  0  0  0  0  0  0  0  0  0  0
    1.4937    0.9559    0.0000 C   0  0  0  0  0  0  0  0  0  0  0  0
    1.4937    0.1309    0.0000 C   0  0  0  0  0  0  0  0  0  0  0  0
    0.7792   -0.2816    0.0000 C   0  0  0  0  0  0  0  0  0  0  0  0
    0.7792   -1.1066    0.0000 O   0  0  0  0  0  0  0  0  0  0  0  0
    0.0647    0.1309    0.0000 C   0  0  0  0  0  0  0  0  0  0  0  0
    0.0647    0.9559    0.0000 C   0  0  0  0  0  0  0  0  0  0  0  0
    1.6042    3.0184    0.0000 H   0  0  0  0  0  0  0  0  0  0  0  0
    0.7792    3.8434    0.0000 H   0  0  0  0  0  0  0  0  0  0  0  0
   -0.0458    3.0184    0.0000 H   0  0  0  0  0  0  0  0  0  0  0  0
   -0.8080    2.5091    0.0000 H   0  0  0  0  0  0  0  0  0  0  0  0
   -0.6292    1.6100    0.0000 H   0  0  0  0  0  0  0  0  0  0  0  0
    0.2699    1.4312    0.0000 H   0  0  0  0  0  0  0  0  0  0  0  0
    1.2885    1.4312    0.0000 H   0  0  0  0  0  0  0  0  0  0  0  0
    2.1876    1.6100    0.0000 H   0  0  0  0  0  0  0  0  0  0  0  0
    2.3664    2.5091    0.0000 H   0  0  0  0  0  0  0  0  0  0  0  0
    2.2511    0.6290    0.0000 H   0  0  0  0  0  0  0  0  0  0  0  0
    1.9267   -0.5713    0.0000 H   0  0  0  0  0  0  0  0  0  0  0  0
    0.0647   -1.5191    0.0000 H   0  0  0  0  0  0  0  0  0  0  0  0
   -0.6497   -0.2816    0.0000 H   0  0  0  0  0  0  0  0  0  0  0  0
   -0.6927    0.6290    0.0000 H   0  0  0  0  0  0  0  0  0  0  0  0
  1  2  1  0  0  0  0
  2  3  1  0  0  0  0
  2  4  1  0  0  0  0
  2  5  1  0  0  0  0
  5  6  4  0  0  0  0
  6  7  4  0  0  0  0
  7  8  4  0  0  0  0
  8  9  1  0  0  0  0
  8 10  4  0  0  0  0
 10 11  4  0  0  0  0
  5 11  4  0  0  0  0
  1 12  1  0  0  0  0
  1 13  1  0  0  0  0
  1 14  1  0  0  0  0
  3 15  1  0  0  0  0
  3 16  1  0  0  0  0
  3 17  1  0  0  0  0
  4 18  1  0  0  0  0
  4 19  1  0  0  0  0
  4 20  1  0  0  0  0
  6 21  1  0  0  0  0
  7 22  1  0  0  0  0
  9 23  1  0  0  0  0
 10 24  1  0  0  0  0
 11 25  1  0  0  0  0
M  END
>  <InChIKey>
InChI=1S/C10H14O/c1-10(2,3)8-4-6-9(11)7-5-8/h4-7,11H,1-3H3

>  <UN GHS>
1

>  <CASRN>
98-54-4

> <Outcome>
1

>  <Index>
2589

>  <StandardizerResult>
Dearomatize (ID: Dearomatize)
Clear Stereo (ID: ClearStereo)
Wedge Clean (ID: WedgeClean)
Mesomerize (ID: Mesomerize)
Tautomerize (ID: Tautomerize)
Aromatize (ID: Aromatize)
Add Explicit Hydrogens (ID: AddExplicitH)
Neutralize (ID: Neutralize)
Clean 2D (ID: Clean2D)

> <knn Distance>


> <CpId>
2589

$$$$
2590
  Mrv1532301301811342D          

 32 32  0  0  0  0            999 V2000
    2.0176   -1.0250    0.0000 C   0  0  0  0  0  0  0  0  0  0  0  0
    2.8426   -1.0250    0.0000 C   0  0  0  0  0  0  0  0  0  0  0  0
    3.2551   -1.7395    0.0000 N   0  0  0  0  0  0  0  0  0  0  0  0
    2.8426   -2.4539    0.0000 C   0  0  0  0  0  0  0  0  0  0  0  0
    2.0176   -2.4539    0.0000 C   0  0  0  0  0  0  0  0  0  0  0  0
    4.0801   -1.7395    0.0000 C   0  0  0  0  0  0  0  0  0  0  0  0
    4.4926   -1.0250    0.0000 O   0  0  0  0  0  0  0  0  0  0  0  0
    4.4926   -2.4539    0.0000 S   0  0  0  0  0  0  0  0  0  0  0  0
    5.3176   -2.4539    0.0000 C   0  0  0  0  0  0  0  0  0  0  0  0
    5.7301   -3.1684    0.0000 C   0  0  0  0  0  0  0  0  0  0  0  0
    6.5551   -3.1684    0.0000 C   0  0  0  0  0  0  0  0  0  0  0  0
    6.9676   -3.8829    0.0000 C   0  0  0  0  0  0  0  0  0  0  0  0
    6.5551   -4.5973    0.0000 C   0  0  0  0  0  0  0  0  0  0  0  0
    6.9676   -5.3118    0.0000 Cl  0  0  0  0  0  0  0  0  0  0  0  0
    5.7301   -4.5973    0.0000 C   0  0  0  0  0  0  0  0  0  0  0  0
    5.3176   -3.8829    0.0000 C   0  0  0  0  0  0  0  0  0  0  0  0
    2.0176   -0.2000    0.0000 H   0  0  0  0  0  0  0  0  0  0  0  0
    1.1926   -1.0250    0.0000 H   0  0  0  0  0  0  0  0  0  0  0  0
    2.0176   -1.8500    0.0000 H   0  0  0  0  0  0  0  0  0  0  0  0
    3.5319   -0.5716    0.0000 H   0  0  0  0  0  0  0  0  0  0  0  0
    2.8906   -0.2014    0.0000 H   0  0  0  0  0  0  0  0  0  0  0  0
    2.8906   -3.2775    0.0000 H   0  0  0  0  0  0  0  0  0  0  0  0
    3.5319   -2.9073    0.0000 H   0  0  0  0  0  0  0  0  0  0  0  0
    1.2554   -2.1382    0.0000 H   0  0  0  0  0  0  0  0  0  0  0  0
    1.4343   -3.0373    0.0000 H   0  0  0  0  0  0  0  0  0  0  0  0
    2.3333   -3.2161    0.0000 H   0  0  0  0  0  0  0  0  0  0  0  0
    6.0069   -2.0006    0.0000 H   0  0  0  0  0  0  0  0  0  0  0  0
    5.3656   -1.6303    0.0000 H   0  0  0  0  0  0  0  0  0  0  0  0
    6.9676   -2.4539    0.0000 H   0  0  0  0  0  0  0  0  0  0  0  0
    7.7926   -3.8829    0.0000 H   0  0  0  0  0  0  0  0  0  0  0  0
    5.3176   -5.3118    0.0000 H   0  0  0  0  0  0  0  0  0  0  0  0
    4.4926   -3.8829    0.0000 H   0  0  0  0  0  0  0  0  0  0  0  0
  1  2  1  0  0  0  0
  2  3  1  0  0  0  0
  3  4  1  0  0  0  0
  4  5  1  0  0  0  0
  3  6  1  0  0  0  0
  6  7  2  0  0  0  0
  6  8  1  0  0  0  0
  8  9  1  0  0  0  0
  9 10  1  0  0  0  0
 10 11  4  0  0  0  0
 11 12  4  0  0  0  0
 12 13  4  0  0  0  0
 13 14  1  0  0  0  0
 13 15  4  0  0  0  0
 15 16  4  0  0  0  0
 10 16  4  0  0  0  0
  1 17  1  0  0  0  0
  1 18  1  0  0  0  0
  1 19  1  0  0  0  0
  2 20  1  0  0  0  0
  2 21  1  0  0  0  0
  4 22  1  0  0  0  0
  4 23  1  0  0  0  0
  5 24  1  0  0  0  0
  5 25  1  0  0  0  0
  5 26  1  0  0  0  0
  9 27  1  0  0  0  0
  9 28  1  0  0  0  0
 11 29  1  0  0  0  0
 12 30  1  0  0  0  0
 15 31  1  0  0  0  0
 16 32  1  0  0  0  0
M  END
>  <InChIKey>
InChI=1S/C12H16ClNOS/c1-3-14(4-2)12(15)16-9-10-5-7-11(13)8-6-10/h5-8H,3-4,9H2,1-2H3

>  <CASRN>
28249-77-6

> <Outcome>
1

>  <Index>
2590

>  <StandardizerResult>
Dearomatize (ID: Dearomatize)
Clear Stereo (ID: ClearStereo)
Wedge Clean (ID: WedgeClean)
Mesomerize (ID: Mesomerize)
Tautomerize (ID: Tautomerize)
Aromatize (ID: Aromatize)
Add Explicit Hydrogens (ID: AddExplicitH)
Neutralize (ID: Neutralize)
Clean 2D (ID: Clean2D)

> <knn Distance>


> <CpId>
2590

$$$$
2591
  Mrv1532301301811342D          

 15 16  0  0  0  0            999 V2000
    0.7145   -1.2375    0.0000 Br  0  0  0  0  0  0  0  0  0  0  0  0
    0.7145   -0.4125    0.0000 C   0  0  0  0  0  0  0  0  0  0  0  0
    0.0000   -0.0000    0.0000 C   0  0  0  0  0  0  0  0  0  0  0  0
   -0.7846   -0.2549    0.0000 C   0  0  0  0  0  0  0  0  0  0  0  0
   -1.0396   -1.0396    0.0000 O   0  0  0  0  0  0  0  0  0  0  0  0
   -1.2695    0.4125    0.0000 O   0  0  0  0  0  0  0  0  0  0  0  0
   -0.7846    1.0799    0.0000 C   0  0  0  0  0  0  0  0  0  0  0  0
   -1.0396    1.8646    0.0000 O   0  0  0  0  0  0  0  0  0  0  0  0
    0.0000    0.8250    0.0000 C   0  0  0  0  0  0  0  0  0  0  0  0
    0.7145    1.2375    0.0000 C   0  0  0  0  0  0  0  0  0  0  0  0
    0.7145    2.0625    0.0000 Br  0  0  0  0  0  0  0  0  0  0  0  0
    1.4289    0.8250    0.0000 C   0  0  0  0  0  0  0  0  0  0  0  0
    2.1434    1.2375    0.0000 Br  0  0  0  0  0  0  0  0  0  0  0  0
    1.4289    0.0000    0.0000 C   0  0  0  0  0  0  0  0  0  0  0  0
    2.1434   -0.4125    0.0000 Br  0  0  0  0  0  0  0  0  0  0  0  0
  1  2  1  0  0  0  0
  2  3  4  0  0  0  0
  3  4  1  0  0  0  0
  4  5  2  0  0  0  0
  4  6  1  0  0  0  0
  6  7  1  0  0  0  0
  7  8  2  0  0  0  0
  7  9  1  0  0  0  0
  3  9  4  0  0  0  0
  9 10  4  0  0  0  0
 10 11  1  0  0  0  0
 10 12  4  0  0  0  0
 12 13  1  0  0  0  0
 12 14  4  0  0  0  0
  2 14  4  0  0  0  0
 14 15  1  0  0  0  0
M  END
>  <InChIKey>
InChI=1S/C8Br4O3/c9-3-1-2(8(14)15-7(1)13)4(10)6(12)5(3)11

>  <CASRN>
632-79-1

> <Outcome>
1

>  <Index>
2591

>  <StandardizerResult>
Dearomatize (ID: Dearomatize)
Clear Stereo (ID: ClearStereo)
Wedge Clean (ID: WedgeClean)
Mesomerize (ID: Mesomerize)
Tautomerize (ID: Tautomerize)
Aromatize (ID: Aromatize)
Clean 2D (ID: Clean2D)

> <knn Distance>


> <CpId>
2591

$$$$
2592
  Mrv1532301301811342D          

 14 14  0  0  0  0            999 V2000
    0.7145    2.0625    0.0000 O   0  0  0  0  0  0  0  0  0  0  0  0
    0.7145    1.2375    0.0000 C   0  0  0  0  0  0  0  0  0  0  0  0
    1.4289    0.8250    0.0000 C   0  0  0  0  0  0  0  0  0  0  0  0
    1.4289   -0.0000    0.0000 C   0  0  0  0  0  0  0  0  0  0  0  0
    0.7145   -0.4125    0.0000 C   0  0  0  0  0  0  0  0  0  0  0  0
    0.7145   -1.2375    0.0000 O   0  0  0  0  0  0  0  0  0  0  0  0
    0.0000    0.0000    0.0000 C   0  0  0  0  0  0  0  0  0  0  0  0
    0.0000    0.8250    0.0000 C   0  0  0  0  0  0  0  0  0  0  0  0
    1.4289    2.4750    0.0000 H   0  0  0  0  0  0  0  0  0  0  0  0
    2.1434    1.2375    0.0000 H   0  0  0  0  0  0  0  0  0  0  0  0
    2.1434   -0.4125    0.0000 H   0  0  0  0  0  0  0  0  0  0  0  0
    0.0000   -1.6500    0.0000 H   0  0  0  0  0  0  0  0  0  0  0  0
   -0.7145   -0.4125    0.0000 H   0  0  0  0  0  0  0  0  0  0  0  0
   -0.7145    1.2375    0.0000 H   0  0  0  0  0  0  0  0  0  0  0  0
  1  2  1  0  0  0  0
  2  3  4  0  0  0  0
  3  4  4  0  0  0  0
  4  5  4  0  0  0  0
  5  6  1  0  0  0  0
  5  7  4  0  0  0  0
  7  8  4  0  0  0  0
  2  8  4  0  0  0  0
  1  9  1  0  0  0  0
  3 10  1  0  0  0  0
  4 11  1  0  0  0  0
  6 12  1  0  0  0  0
  7 13  1  0  0  0  0
  8 14  1  0  0  0  0
M  END
>  <InChIKey>
InChI=1S/C6H6O2/c7-5-1-2-6(8)4-3-5/h1-4,7-8H

>  <CASRN>
123-31-9

> <Outcome>
1

>  <Index>
2592

>  <StandardizerResult>
Dearomatize (ID: Dearomatize)
Clear Stereo (ID: ClearStereo)
Wedge Clean (ID: WedgeClean)
Mesomerize (ID: Mesomerize)
Tautomerize (ID: Tautomerize)
Aromatize (ID: Aromatize)
Add Explicit Hydrogens (ID: AddExplicitH)
Neutralize (ID: Neutralize)
Clean 2D (ID: Clean2D)

> <knn Distance>


> <CpId>
2592

$$$$
2593
  Mrv1532301301811342D          

 21 22  0  0  0  0            999 V2000
    0.0000   -1.6500    0.0000 C   0  0  0  0  0  0  0  0  0  0  0  0
    0.7145   -1.2375    0.0000 C   0  0  0  0  0  0  0  0  0  0  0  0
    0.7145   -0.4125    0.0000 C   0  0  0  0  0  0  0  0  0  0  0  0
    1.4289   -0.0000    0.0000 C   0  0  0  0  0  0  0  0  0  0  0  0
    2.1434   -0.4125    0.0000 C   0  0  0  0  0  0  0  0  0  0  0  0
    2.8579   -0.0000    0.0000 C   0  0  0  0  0  0  0  0  0  0  0  0
    3.5724   -0.4125    0.0000 C   0  0  0  0  0  0  0  0  0  0  0  0
    3.5724   -1.2375    0.0000 C   0  0  0  0  0  0  0  0  0  0  0  0
    2.8579   -1.6500    0.0000 C   0  0  0  0  0  0  0  0  0  0  0  0
    2.1434   -1.2375    0.0000 C   0  0  0  0  0  0  0  0  0  0  0  0
    1.4289   -1.6500    0.0000 C   0  0  0  0  0  0  0  0  0  0  0  0
   -0.4125   -0.9355    0.0000 H   0  0  0  0  0  0  0  0  0  0  0  0
   -0.7145   -2.0625    0.0000 H   0  0  0  0  0  0  0  0  0  0  0  0
    0.4125   -2.3645    0.0000 H   0  0  0  0  0  0  0  0  0  0  0  0
    0.0000   -0.0000    0.0000 H   0  0  0  0  0  0  0  0  0  0  0  0
    1.4289    0.8250    0.0000 H   0  0  0  0  0  0  0  0  0  0  0  0
    2.8579    0.8250    0.0000 H   0  0  0  0  0  0  0  0  0  0  0  0
    4.2868   -0.0000    0.0000 H   0  0  0  0  0  0  0  0  0  0  0  0
    4.2868   -1.6500    0.0000 H   0  0  0  0  0  0  0  0  0  0  0  0
    2.8579   -2.4750    0.0000 H   0  0  0  0  0  0  0  0  0  0  0  0
    1.4289   -2.4750    0.0000 H   0  0  0  0  0  0  0  0  0  0  0  0
  1  2  1  0  0  0  0
  2  3  4  0  0  0  0
  3  4  4  0  0  0  0
  4  5  4  0  0  0  0
  5  6  4  0  0  0  0
  6  7  4  0  0  0  0
  7  8  4  0  0  0  0
  8  9  4  0  0  0  0
  9 10  4  0  0  0  0
  5 10  4  0  0  0  0
 10 11  4  0  0  0  0
  2 11  4  0  0  0  0
  1 12  1  0  0  0  0
  1 13  1  0  0  0  0
  1 14  1  0  0  0  0
  3 15  1  0  0  0  0
  4 16  1  0  0  0  0
  6 17  1  0  0  0  0
  7 18  1  0  0  0  0
  8 19  1  0  0  0  0
  9 20  1  0  0  0  0
 11 21  1  0  0  0  0
M  END
>  <InChIKey>
InChI=1S/C11H10/c1-9-6-7-10-4-2-3-5-11(10)8-9/h2-8H,1H3

>  <CASRN>
91-57-6

> <Outcome>
1

>  <Index>
2593

>  <StandardizerResult>
Dearomatize (ID: Dearomatize)
Clear Stereo (ID: ClearStereo)
Wedge Clean (ID: WedgeClean)
Mesomerize (ID: Mesomerize)
Tautomerize (ID: Tautomerize)
Aromatize (ID: Aromatize)
Add Explicit Hydrogens (ID: AddExplicitH)
Neutralize (ID: Neutralize)
Clean 2D (ID: Clean2D)

> <knn Distance>


> <CpId>
2593

$$$$
2598
  Mrv1532301301811342D          

 11 11  0  0  0  0            999 V2000
    0.5678    1.9393    0.0000 C   0  0  0  0  0  0  0  0  0  0  0  0
    0.5678    1.1143    0.0000 C   0  0  0  0  0  0  0  0  0  0  0  0
    1.2352    0.6294    0.0000 C   0  0  0  0  0  0  0  0  0  0  0  0
    0.9803   -0.1553    0.0000 S   0  0  0  0  0  0  0  0  0  0  0  0
    0.1553   -0.1553    0.0000 C   0  0  0  0  0  0  0  0  0  0  0  0
   -0.0997    0.6294    0.0000 N   0  0  0  0  0  0  0  0  0  0  0  0
    1.3928    1.9393    0.0000 H   0  0  0  0  0  0  0  0  0  0  0  0
    0.5678    2.7643    0.0000 H   0  0  0  0  0  0  0  0  0  0  0  0
   -0.2572    1.9393    0.0000 H   0  0  0  0  0  0  0  0  0  0  0  0
    2.0198    0.8843    0.0000 H   0  0  0  0  0  0  0  0  0  0  0  0
   -0.3296   -0.8227    0.0000 H   0  0  0  0  0  0  0  0  0  0  0  0
  1  2  1  0  0  0  0
  2  3  4  0  0  0  0
  3  4  4  0  0  0  0
  4  5  4  0  0  0  0
  5  6  4  0  0  0  0
  2  6  4  0  0  0  0
  1  7  1  0  0  0  0
  1  8  1  0  0  0  0
  1  9  1  0  0  0  0
  3 10  1  0  0  0  0
  5 11  1  0  0  0  0
M  END
>  <InChIKey>
InChI=1S/C4H5NS/c1-4-2-6-3-5-4/h2-3H,1H3

>  <CASRN>
693-95-8

> <Outcome>
1

>  <Index>
2598

>  <StandardizerResult>
Dearomatize (ID: Dearomatize)
Clear Stereo (ID: ClearStereo)
Wedge Clean (ID: WedgeClean)
Mesomerize (ID: Mesomerize)
Tautomerize (ID: Tautomerize)
Aromatize (ID: Aromatize)
Add Explicit Hydrogens (ID: AddExplicitH)
Neutralize (ID: Neutralize)
Clean 2D (ID: Clean2D)

> <knn Distance>


> <CpId>
2598

$$$$
2600
  Mrv1532301301811342D          

  9  8  0  0  0  0            999 V2000
    2.5936   -0.9862    0.0000 C   0  0  0  0  0  0  0  0  0  0  0  0
    2.1811   -0.2717    0.0000 S   0  0  0  0  0  0  0  0  0  0  0  0
    1.3561   -0.2717    0.0000 C   0  0  0  0  0  0  0  0  0  0  0  0
    1.8791   -1.3987    0.0000 H   0  0  0  0  0  0  0  0  0  0  0  0
    3.0061   -1.7007    0.0000 H   0  0  0  0  0  0  0  0  0  0  0  0
    3.3081   -0.5737    0.0000 H   0  0  0  0  0  0  0  0  0  0  0  0
    1.3561    0.5533    0.0000 H   0  0  0  0  0  0  0  0  0  0  0  0
    0.5311   -0.2717    0.0000 H   0  0  0  0  0  0  0  0  0  0  0  0
    1.3561   -1.0967    0.0000 H   0  0  0  0  0  0  0  0  0  0  0  0
  1  2  1  0  0  0  0
  2  3  1  0  0  0  0
  1  4  1  0  0  0  0
  1  5  1  0  0  0  0
  1  6  1  0  0  0  0
  3  7  1  0  0  0  0
  3  8  1  0  0  0  0
  3  9  1  0  0  0  0
M  END
>  <InChIKey>
InChI=1S/C2H6S/c1-3-2/h1-2H3

>  <CASRN>
75-18-3

> <Outcome>
1

>  <Index>
2600

>  <StandardizerResult>
Mesomerize (ID: Mesomerize)
Tautomerize (ID: Tautomerize)
Add Explicit Hydrogens (ID: AddExplicitH)
Neutralize (ID: Neutralize)
Clean 2D (ID: Clean2D)

> <knn Distance>


> <CpId>
2600

$$$$
2602
  Mrv1532301301811342D          

 22 23  0  0  0  0            999 V2000
    1.4024   -2.4110    0.0000 C   0  0  0  0  0  0  0  0  0  0  0  0
    1.4024   -1.5860    0.0000 C   0  0  0  0  0  0  0  0  0  0  0  0
    0.6880   -1.1735    0.0000 C   0  0  0  0  0  0  0  0  0  0  0  0
    0.6880   -0.3485    0.0000 C   0  0  0  0  0  0  0  0  0  0  0  0
   -0.0265    0.0640    0.0000 O   0  0  0  0  0  0  0  0  0  0  0  0
    1.4024    0.0640    0.0000 O   0  0  0  0  0  0  0  0  0  0  0  0
    2.1169   -0.3485    0.0000 C   0  0  0  0  0  0  0  0  0  0  0  0
    2.8314    0.0640    0.0000 C   0  0  0  0  0  0  0  0  0  0  0  0
    3.5458   -0.3485    0.0000 C   0  0  0  0  0  0  0  0  0  0  0  0
    4.2603    0.0640    0.0000 O   0  0  0  0  0  0  0  0  0  0  0  0
    3.5458   -1.1735    0.0000 C   0  0  0  0  0  0  0  0  0  0  0  0
    2.8314   -1.5860    0.0000 C   0  0  0  0  0  0  0  0  0  0  0  0
    2.8314   -2.4110    0.0000 O   0  0  0  0  0  0  0  0  0  0  0  0
    2.1169   -1.1735    0.0000 C   0  0  0  0  0  0  0  0  0  0  0  0
    0.5774   -2.4110    0.0000 H   0  0  0  0  0  0  0  0  0  0  0  0
    1.4024   -3.2360    0.0000 H   0  0  0  0  0  0  0  0  0  0  0  0
    2.2274   -2.4110    0.0000 H   0  0  0  0  0  0  0  0  0  0  0  0
   -0.0265   -1.5860    0.0000 H   0  0  0  0  0  0  0  0  0  0  0  0
    2.8314    0.8890    0.0000 H   0  0  0  0  0  0  0  0  0  0  0  0
    4.9748   -0.3485    0.0000 H   0  0  0  0  0  0  0  0  0  0  0  0
    4.2603   -1.5860    0.0000 H   0  0  0  0  0  0  0  0  0  0  0  0
    3.4147   -2.9943    0.0000 H   0  0  0  0  0  0  0  0  0  0  0  0
  1  2  1  0  0  0  0
  2  3  2  0  0  0  0
  3  4  1  0  0  0  0
  4  5  2  0  0  0  0
  4  6  1  0  0  0  0
  6  7  1  0  0  0  0
  7  8  4  0  0  0  0
  8  9  4  0  0  0  0
  9 10  1  0  0  0  0
  9 11  4  0  0  0  0
 11 12  4  0  0  0  0
 12 13  1  0  0  0  0
 12 14  4  0  0  0  0
  2 14  1  0  0  0  0
  7 14  4  0  0  0  0
  1 15  1  0  0  0  0
  1 16  1  0  0  0  0
  1 17  1  0  0  0  0
  3 18  1  0  0  0  0
  8 19  1  0  0  0  0
 10 20  1  0  0  0  0
 11 21  1  0  0  0  0
 13 22  1  0  0  0  0
M  END
>  <InChIKey>
InChI=1S/C10H8O4/c1-5-2-9(13)14-8-4-6(11)3-7(12)10(5)8/h2-4,11-12H,1H3

>  <CASRN>
2107-76-8

> <Outcome>
1

>  <Index>
2602

>  <StandardizerResult>
Dearomatize (ID: Dearomatize)
Clear Stereo (ID: ClearStereo)
Wedge Clean (ID: WedgeClean)
Mesomerize (ID: Mesomerize)
Tautomerize (ID: Tautomerize)
Aromatize (ID: Aromatize)
Add Explicit Hydrogens (ID: AddExplicitH)
Neutralize (ID: Neutralize)
Clean 2D (ID: Clean2D)

> <knn Distance>


> <CpId>
2602

$$$$
2605
  Mrv1532301301811342D          

  8  7  0  0  0  0            999 V2000
    0.8250    1.4289    0.0000 Cl  0  0  0  0  0  0  0  0  0  0  0  0
    1.2375    0.7145    0.0000 C   0  0  0  0  0  0  0  0  0  0  0  0
    2.0625    0.7145    0.0000 Cl  0  0  0  0  0  0  0  0  0  0  0  0
    0.8250    0.0000    0.0000 C   0  0  0  0  0  0  0  0  0  0  0  0
    1.2375   -0.7145    0.0000 Cl  0  0  0  0  0  0  0  0  0  0  0  0
   -0.0000    0.0000    0.0000 Cl  0  0  0  0  0  0  0  0  0  0  0  0
    1.6500    1.4289    0.0000 H   0  0  0  0  0  0  0  0  0  0  0  0
    1.6500    0.0000    0.0000 H   0  0  0  0  0  0  0  0  0  0  0  0
  1  2  1  0  0  0  0
  2  3  1  0  0  0  0
  2  4  1  0  0  0  0
  4  5  1  0  0  0  0
  4  6  1  0  0  0  0
  2  7  1  0  0  0  0
  4  8  1  0  0  0  0
M  END
>  <InChIKey>
InChI=1S/C2H2Cl4/c3-1(4)2(5)6/h1-2H

>  <CASRN>
79-34-5

> <Outcome>
1

>  <Index>
2605

>  <StandardizerResult>
Clear Stereo (ID: ClearStereo)
Wedge Clean (ID: WedgeClean)
Mesomerize (ID: Mesomerize)
Tautomerize (ID: Tautomerize)
Add Explicit Hydrogens (ID: AddExplicitH)
Neutralize (ID: Neutralize)
Clean 2D (ID: Clean2D)

> <knn Distance>


> <CpId>
2605

$$$$
2609
  Mrv1532301301811342D          

 39 42  0  0  0  0            999 V2000
   -3.0100    1.6413    0.0000 O   0  0  0  0  0  0  0  0  0  0  0  0
   -2.2955    1.2288    0.0000 C   0  0  0  0  0  0  0  0  0  0  0  0
   -1.5811    1.6413    0.0000 C   0  0  0  0  0  0  0  0  0  0  0  0
   -1.5811    2.4663    0.0000 Br  0  0  0  0  0  0  0  0  0  0  0  0
   -0.8666    1.2288    0.0000 C   0  0  0  0  0  0  0  0  0  0  0  0
   -0.8666    0.4038    0.0000 C   0  0  0  0  0  0  0  0  0  0  0  0
   -1.5811   -0.0087    0.0000 C   0  0  0  0  0  0  0  0  0  0  0  0
   -2.2955    0.4038    0.0000 C   0  0  0  0  0  0  0  0  0  0  0  0
   -3.0100   -0.0087    0.0000 Br  0  0  0  0  0  0  0  0  0  0  0  0
   -0.1521   -0.0087    0.0000 C   0  0  0  0  0  0  0  0  0  0  0  0
   -0.6371   -0.6762    0.0000 O   0  0  0  0  0  0  0  0  0  0  0  0
   -0.1521   -1.3436    0.0000 S   0  0  0  0  0  0  0  0  0  0  0  0
   -0.8666   -1.7561    0.0000 O   0  0  0  0  0  0  0  0  0  0  0  0
    0.1834   -2.0973    0.0000 O   0  0  0  0  0  0  0  0  0  0  0  0
    0.6325   -1.0887    0.0000 C   0  0  0  0  0  0  0  0  0  0  0  0
    0.6325   -0.2637    0.0000 C   0  0  0  0  0  0  0  0  0  0  0  0
    1.3470    0.1488    0.0000 C   0  0  0  0  0  0  0  0  0  0  0  0
    1.3470    0.9738    0.0000 Br  0  0  0  0  0  0  0  0  0  0  0  0
    2.0614   -0.2637    0.0000 C   0  0  0  0  0  0  0  0  0  0  0  0
    2.7759    0.1488    0.0000 Br  0  0  0  0  0  0  0  0  0  0  0  0
    2.0614   -1.0887    0.0000 C   0  0  0  0  0  0  0  0  0  0  0  0
    2.7759   -1.5012    0.0000 Br  0  0  0  0  0  0  0  0  0  0  0  0
    1.3470   -1.5012    0.0000 C   0  0  0  0  0  0  0  0  0  0  0  0
    1.3470   -2.3262    0.0000 Br  0  0  0  0  0  0  0  0  0  0  0  0
    0.1834    0.7449    0.0000 C   0  0  0  0  0  0  0  0  0  0  0  0
   -0.3015    1.4124    0.0000 C   0  0  0  0  0  0  0  0  0  0  0  0
    0.0341    2.1660    0.0000 C   0  0  0  0  0  0  0  0  0  0  0  0
   -0.4509    2.8335    0.0000 Br  0  0  0  0  0  0  0  0  0  0  0  0
    0.8545    2.2523    0.0000 C   0  0  0  0  0  0  0  0  0  0  0  0
    1.1901    3.0060    0.0000 O   0  0  0  0  0  0  0  0  0  0  0  0
    1.3395    1.5848    0.0000 C   0  0  0  0  0  0  0  0  0  0  0  0
    2.1599    1.6711    0.0000 Br  0  0  0  0  0  0  0  0  0  0  0  0
    1.0039    0.8312    0.0000 C   0  0  0  0  0  0  0  0  0  0  0  0
   -3.0100    2.4663    0.0000 H   0  0  0  0  0  0  0  0  0  0  0  0
   -0.7804    2.0492    0.0000 H   0  0  0  0  0  0  0  0  0  0  0  0
   -1.5811   -0.8337    0.0000 H   0  0  0  0  0  0  0  0  0  0  0  0
   -0.5564    0.6278    0.0000 H   0  0  0  0  0  0  0  0  0  0  0  0
    2.0106    3.0922    0.0000 H   0  0  0  0  0  0  0  0  0  0  0  0
    0.6083    0.1072    0.0000 H   0  0  0  0  0  0  0  0  0  0  0  0
  1  2  1  0  0  0  0
  2  3  4  0  0  0  0
  3  4  1  0  0  0  0
  3  5  4  0  0  0  0
  5  6  4  0  0  0  0
  6  7  4  0  0  0  0
  7  8  4  0  0  0  0
  2  8  4  0  0  0  0
  8  9  1  0  0  0  0
  6 10  1  0  0  0  0
 10 11  1  0  0  0  0
 11 12  1  0  0  0  0
 12 13  2  0  0  0  0
 12 14  2  0  0  0  0
 12 15  1  0  0  0  0
 15 16  4  0  0  0  0
 10 16  1  0  0  0  0
 16 17  4  0  0  0  0
 17 18  1  0  0  0  0
 17 19  4  0  0  0  0
 19 20  1  0  0  0  0
 19 21  4  0  0  0  0
 21 22  1  0  0  0  0
 21 23  4  0  0  0  0
 15 23  4  0  0  0  0
 23 24  1  0  0  0  0
 10 25  1  0  0  0  0
 25 26  4  0  0  0  0
 26 27  4  0  0  0  0
 27 28  1  0  0  0  0
 27 29  4  0  0  0  0
 29 30  1  0  0  0  0
 29 31  4  0  0  0  0
 31 32  1  0  0  0  0
 31 33  4  0  0  0  0
 25 33  4  0  0  0  0
  1 34  1  0  0  0  0
  5 35  1  0  0  0  0
  7 36  1  0  0  0  0
 26 37  1  0  0  0  0
 30 38  1  0  0  0  0
 33 39  1  0  0  0  0
M  END
>  <InChIKey>
InChI=1S/C19H6Br8O5S/c20-7-1-5(2-8(21)16(7)28)19(6-3-9(22)17(29)10(23)4-6)11-12(24)13(25)14(26)15(27)18(11)33(30,31)32-19/h1-4,28-29H

>  <UN GHS>
1

>  <CASRN>
4430-25-5

> <Outcome>
1

>  <Index>
2609

>  <StandardizerResult>
Dearomatize (ID: Dearomatize)
Clear Stereo (ID: ClearStereo)
Wedge Clean (ID: WedgeClean)
Mesomerize (ID: Mesomerize)
Tautomerize (ID: Tautomerize)
Aromatize (ID: Aromatize)
Add Explicit Hydrogens (ID: AddExplicitH)
Neutralize (ID: Neutralize)
Clean 2D (ID: Clean2D)

> <knn Distance>


> <CpId>
2609

$$$$
2612
  Mrv1532301301811342D          

 18 17  0  0  0  0            999 V2000
    2.5160   -1.4346    0.0000 C   0  0  0  0  0  0  0  0  0  0  0  0
    2.1035   -0.7201    0.0000 C   0  0  0  0  0  0  0  0  0  0  0  0
    1.2785   -0.7201    0.0000 C   0  0  0  0  0  0  0  0  0  0  0  0
    0.8660   -1.4346    0.0000 C   0  0  0  0  0  0  0  0  0  0  0  0
    0.8660   -0.0056    0.0000 C   0  0  0  0  0  0  0  0  0  0  0  0
    0.0410   -0.0056    0.0000 O   0  0  0  0  0  0  0  0  0  0  0  0
    1.8015   -1.8471    0.0000 H   0  0  0  0  0  0  0  0  0  0  0  0
    2.9285   -2.1491    0.0000 H   0  0  0  0  0  0  0  0  0  0  0  0
    3.2305   -1.0221    0.0000 H   0  0  0  0  0  0  0  0  0  0  0  0
    2.7928   -0.2668    0.0000 H   0  0  0  0  0  0  0  0  0  0  0  0
    2.1515    0.1035    0.0000 H   0  0  0  0  0  0  0  0  0  0  0  0
    1.6910   -1.4346    0.0000 H   0  0  0  0  0  0  0  0  0  0  0  0
    0.2826   -0.8512    0.0000 H   0  0  0  0  0  0  0  0  0  0  0  0
    0.1515   -1.8471    0.0000 H   0  0  0  0  0  0  0  0  0  0  0  0
    1.0795   -2.2315    0.0000 H   0  0  0  0  0  0  0  0  0  0  0  0
    1.5553    0.4477    0.0000 H   0  0  0  0  0  0  0  0  0  0  0  0
    0.9140    0.8180    0.0000 H   0  0  0  0  0  0  0  0  0  0  0  0
   -0.6177    0.4911    0.0000 H   0  0  0  0  0  0  0  0  0  0  0  0
  1  2  1  0  0  0  0
  2  3  1  0  0  0  0
  3  4  1  0  0  0  0
  3  5  1  0  0  0  0
  5  6  1  0  0  0  0
  1  7  1  0  0  0  0
  1  8  1  0  0  0  0
  1  9  1  0  0  0  0
  2 10  1  0  0  0  0
  2 11  1  0  0  0  0
  3 12  1  0  0  0  0
  4 13  1  0  0  0  0
  4 14  1  0  0  0  0
  4 15  1  0  0  0  0
  5 16  1  0  0  0  0
  5 17  1  0  0  0  0
  6 18  1  0  0  0  0
M  END
>  <InChIKey>
InChI=1S/C5H12O/c1-3-5(2)4-6/h5-6H,3-4H2,1-2H3

>  <CASRN>
137-32-6

> <Outcome>
1

>  <Index>
2612

>  <StandardizerResult>
Clear Stereo (ID: ClearStereo)
Wedge Clean (ID: WedgeClean)
Mesomerize (ID: Mesomerize)
Tautomerize (ID: Tautomerize)
Add Explicit Hydrogens (ID: AddExplicitH)
Neutralize (ID: Neutralize)
Clean 2D (ID: Clean2D)

> <knn Distance>


> <CpId>
2612

$$$$
2614
  Mrv1532301301811342D          

 10  9  0  0  0  0            999 V2000
    2.4743   -1.4305    0.0000 C   0  0  0  0  0  0  0  0  0  0  0  0
    2.0618   -0.7161    0.0000 C   0  0  0  0  0  0  0  0  0  0  0  0
    1.2368   -0.7161    0.0000 O   0  0  0  0  0  0  0  0  0  0  0  0
    0.8243   -0.0016    0.0000 N   0  0  0  0  0  0  0  0  0  0  0  0
   -0.0007   -0.0016    0.0000 O   0  0  0  0  0  0  0  0  0  0  0  0
    1.7598   -1.8430    0.0000 H   0  0  0  0  0  0  0  0  0  0  0  0
    2.8868   -2.1450    0.0000 H   0  0  0  0  0  0  0  0  0  0  0  0
    3.1887   -1.0180    0.0000 H   0  0  0  0  0  0  0  0  0  0  0  0
    2.7510   -0.2627    0.0000 H   0  0  0  0  0  0  0  0  0  0  0  0
    2.1097    0.1076    0.0000 H   0  0  0  0  0  0  0  0  0  0  0  0
  1  2  1  0  0  0  0
  2  3  1  0  0  0  0
  3  4  1  0  0  0  0
  4  5  2  0  0  0  0
  1  6  1  0  0  0  0
  1  7  1  0  0  0  0
  1  8  1  0  0  0  0
  2  9  1  0  0  0  0
  2 10  1  0  0  0  0
M  END
>  <InChIKey>
InChI=1S/C2H5NO2/c1-2-5-3-4/h2H2,1H3

>  <CASRN>
109-95-5

> <Outcome>
1

>  <Index>
2614

>  <StandardizerResult>
Clear Stereo (ID: ClearStereo)
Wedge Clean (ID: WedgeClean)
Mesomerize (ID: Mesomerize)
Tautomerize (ID: Tautomerize)
Add Explicit Hydrogens (ID: AddExplicitH)
Neutralize (ID: Neutralize)
Clean 2D (ID: Clean2D)

> <knn Distance>


> <CpId>
2614

$$$$
2618
  Mrv1532301301811342D          

 29 31  0  0  0  0            999 V2000
   -2.6462   -0.6979    0.0000 C   0  0  0  0  0  0  0  0  0  0  0  0
   -1.8212   -0.6979    0.0000 C   0  0  0  0  0  0  0  0  0  0  0  0
   -1.4087   -1.4124    0.0000 N   0  0  0  0  0  0  0  0  0  0  0  0
   -1.8212   -2.1269    0.0000 C   0  0  0  0  0  0  0  0  0  0  0  0
   -2.6462   -2.1269    0.0000 C   0  0  0  0  0  0  0  0  0  0  0  0
   -3.0587   -1.4124    0.0000 O   0  0  0  0  0  0  0  0  0  0  0  0
   -0.5837   -1.4124    0.0000 S   0  0  0  0  0  0  0  0  0  0  0  0
   -0.1712   -0.6979    0.0000 S   0  0  0  0  0  0  0  0  0  0  0  0
    0.6538   -0.6979    0.0000 C   0  0  0  0  0  0  0  0  0  0  0  0
    1.1387   -0.0305    0.0000 N   0  0  0  0  0  0  0  0  0  0  0  0
    1.9233   -0.2854    0.0000 C   0  0  0  0  0  0  0  0  0  0  0  0
    2.6378    0.1271    0.0000 C   0  0  0  0  0  0  0  0  0  0  0  0
    3.3523   -0.2854    0.0000 C   0  0  0  0  0  0  0  0  0  0  0  0
    3.3523   -1.1104    0.0000 C   0  0  0  0  0  0  0  0  0  0  0  0
    2.6378   -1.5229    0.0000 C   0  0  0  0  0  0  0  0  0  0  0  0
    1.9233   -1.1104    0.0000 C   0  0  0  0  0  0  0  0  0  0  0  0
    1.1387   -1.3654    0.0000 S   0  0  0  0  0  0  0  0  0  0  0  0
   -2.6942    0.1257    0.0000 H   0  0  0  0  0  0  0  0  0  0  0  0
   -3.3355   -0.2446    0.0000 H   0  0  0  0  0  0  0  0  0  0  0  0
   -1.1319   -0.2446    0.0000 H   0  0  0  0  0  0  0  0  0  0  0  0
   -1.7732    0.1257    0.0000 H   0  0  0  0  0  0  0  0  0  0  0  0
   -1.7732   -2.9505    0.0000 H   0  0  0  0  0  0  0  0  0  0  0  0
   -1.1319   -2.5802    0.0000 H   0  0  0  0  0  0  0  0  0  0  0  0
   -3.3355   -2.5802    0.0000 H   0  0  0  0  0  0  0  0  0  0  0  0
   -2.6942   -2.9505    0.0000 H   0  0  0  0  0  0  0  0  0  0  0  0
    2.6378    0.9521    0.0000 H   0  0  0  0  0  0  0  0  0  0  0  0
    4.0668    0.1271    0.0000 H   0  0  0  0  0  0  0  0  0  0  0  0
    4.0668   -1.5229    0.0000 H   0  0  0  0  0  0  0  0  0  0  0  0
    2.6378   -2.3479    0.0000 H   0  0  0  0  0  0  0  0  0  0  0  0
  1  2  1  0  0  0  0
  2  3  1  0  0  0  0
  3  4  1  0  0  0  0
  4  5  1  0  0  0  0
  5  6  1  0  0  0  0
  1  6  1  0  0  0  0
  3  7  1  0  0  0  0
  7  8  1  0  0  0  0
  8  9  1  0  0  0  0
  9 10  4  0  0  0  0
 10 11  4  0  0  0  0
 11 12  4  0  0  0  0
 12 13  4  0  0  0  0
 13 14  4  0  0  0  0
 14 15  4  0  0  0  0
 15 16  4  0  0  0  0
 11 16  4  0  0  0  0
 16 17  4  0  0  0  0
  9 17  4  0  0  0  0
  1 18  1  0  0  0  0
  1 19  1  0  0  0  0
  2 20  1  0  0  0  0
  2 21  1  0  0  0  0
  4 22  1  0  0  0  0
  4 23  1  0  0  0  0
  5 24  1  0  0  0  0
  5 25  1  0  0  0  0
 12 26  1  0  0  0  0
 13 27  1  0  0  0  0
 14 28  1  0  0  0  0
 15 29  1  0  0  0  0
M  END
>  <InChIKey>
InChI=1S/C11H12N2OS3/c1-2-4-10-9(3-1)12-11(15-10)16-17-13-5-7-14-8-6-13/h1-4H,5-8H2

>  <CASRN>
95-32-9

> <Outcome>
1

>  <Index>
2618

>  <StandardizerResult>
Dearomatize (ID: Dearomatize)
Clear Stereo (ID: ClearStereo)
Wedge Clean (ID: WedgeClean)
Mesomerize (ID: Mesomerize)
Tautomerize (ID: Tautomerize)
Aromatize (ID: Aromatize)
Add Explicit Hydrogens (ID: AddExplicitH)
Neutralize (ID: Neutralize)
Clean 2D (ID: Clean2D)

> <knn Distance>


> <CpId>
2618

$$$$
2621
  Mrv1532301301811342D          

 12 11  0  0  0  0            999 V2000
    0.8250    1.4289    0.0000 C   0  0  0  0  0  0  0  0  0  0  0  0
    1.2375    0.7145    0.0000 C   0  0  0  0  0  0  0  0  0  0  0  0
    2.0625    0.7145    0.0000 O   0  0  0  0  0  0  0  0  0  0  0  0
    0.8250   -0.0000    0.0000 C   0  0  0  0  0  0  0  0  0  0  0  0
    1.2375   -0.7145    0.0000 C   0  0  0  0  0  0  0  0  0  0  0  0
   -0.0000   -0.0000    0.0000 O   0  0  0  0  0  0  0  0  0  0  0  0
    1.5395    1.8414    0.0000 H   0  0  0  0  0  0  0  0  0  0  0  0
    0.4125    2.1434    0.0000 H   0  0  0  0  0  0  0  0  0  0  0  0
    0.1105    1.0164    0.0000 H   0  0  0  0  0  0  0  0  0  0  0  0
    0.5230   -1.1270    0.0000 H   0  0  0  0  0  0  0  0  0  0  0  0
    1.6500   -1.4290    0.0000 H   0  0  0  0  0  0  0  0  0  0  0  0
    1.9520   -0.3020    0.0000 H   0  0  0  0  0  0  0  0  0  0  0  0
  1  2  1  0  0  0  0
  2  3  2  0  0  0  0
  2  4  1  0  0  0  0
  4  5  1  0  0  0  0
  4  6  2  0  0  0  0
  1  7  1  0  0  0  0
  1  8  1  0  0  0  0
  1  9  1  0  0  0  0
  5 10  1  0  0  0  0
  5 11  1  0  0  0  0
  5 12  1  0  0  0  0
M  END
>  <InChIKey>
InChI=1S/C4H6O2/c1-3(5)4(2)6/h1-2H3

>  <CASRN>
431-03-8

> <Outcome>
1

>  <Index>
2621

>  <StandardizerResult>
Clear Stereo (ID: ClearStereo)
Wedge Clean (ID: WedgeClean)
Mesomerize (ID: Mesomerize)
Tautomerize (ID: Tautomerize)
Add Explicit Hydrogens (ID: AddExplicitH)
Neutralize (ID: Neutralize)
Clean 2D (ID: Clean2D)

> <knn Distance>


> <CpId>
2621

$$$$
2625
  Mrv1532301301811342D          

 14 14  0  0  0  0            999 V2000
    0.7145    2.0625    0.0000 N   0  0  0  0  0  0  0  0  0  0  0  0
    0.7145    1.2375    0.0000 C   0  0  0  0  0  0  0  0  0  0  0  0
    1.4289    0.8250    0.0000 C   0  0  0  0  0  0  0  0  0  0  0  0
    1.4289   -0.0000    0.0000 C   0  0  0  0  0  0  0  0  0  0  0  0
    0.7145   -0.4125    0.0000 C   0  0  0  0  0  0  0  0  0  0  0  0
    0.7145   -1.2375    0.0000 Cl  0  0  0  0  0  0  0  0  0  0  0  0
    0.0000    0.0000    0.0000 C   0  0  0  0  0  0  0  0  0  0  0  0
    0.0000    0.8250    0.0000 C   0  0  0  0  0  0  0  0  0  0  0  0
    1.4289    2.4750    0.0000 H   0  0  0  0  0  0  0  0  0  0  0  0
    0.0000    2.4750    0.0000 H   0  0  0  0  0  0  0  0  0  0  0  0
    2.1434    1.2375    0.0000 H   0  0  0  0  0  0  0  0  0  0  0  0
    2.1434   -0.4125    0.0000 H   0  0  0  0  0  0  0  0  0  0  0  0
   -0.7145   -0.4125    0.0000 H   0  0  0  0  0  0  0  0  0  0  0  0
   -0.7145    1.2375    0.0000 H   0  0  0  0  0  0  0  0  0  0  0  0
  1  2  1  0  0  0  0
  2  3  4  0  0  0  0
  3  4  4  0  0  0  0
  4  5  4  0  0  0  0
  5  6  1  0  0  0  0
  5  7  4  0  0  0  0
  7  8  4  0  0  0  0
  2  8  4  0  0  0  0
  1  9  1  0  0  0  0
  1 10  1  0  0  0  0
  3 11  1  0  0  0  0
  4 12  1  0  0  0  0
  7 13  1  0  0  0  0
  8 14  1  0  0  0  0
M  END
>  <InChIKey>
InChI=1S/C6H6ClN/c7-5-1-3-6(8)4-2-5/h1-4H,8H2

>  <CASRN>
106-47-8

> <Outcome>
1

>  <Index>
2625

>  <StandardizerResult>
Dearomatize (ID: Dearomatize)
Clear Stereo (ID: ClearStereo)
Wedge Clean (ID: WedgeClean)
Mesomerize (ID: Mesomerize)
Tautomerize (ID: Tautomerize)
Aromatize (ID: Aromatize)
Add Explicit Hydrogens (ID: AddExplicitH)
Neutralize (ID: Neutralize)
Clean 2D (ID: Clean2D)

> <knn Distance>


> <CpId>
2625

$$$$
2630
  Mrv1532301301811342D          

 21 21  0  0  0  0            999 V2000
   -0.7152    3.7121    0.0000 C   0  0  0  0  0  0  0  0  0  0  0  0
   -0.0007    3.2996    0.0000 C   0  0  0  0  0  0  0  0  0  0  0  0
    0.7137    3.7121    0.0000 O   0  0  0  0  0  0  0  0  0  0  0  0
   -0.0007    2.4746    0.0000 O   0  0  0  0  0  0  0  0  0  0  0  0
    0.7137    2.0621    0.0000 C   0  0  0  0  0  0  0  0  0  0  0  0
    0.7137    1.2371    0.0000 C   0  0  0  0  0  0  0  0  0  0  0  0
    1.4282    0.8246    0.0000 C   0  0  0  0  0  0  0  0  0  0  0  0
    1.4282   -0.0004    0.0000 C   0  0  0  0  0  0  0  0  0  0  0  0
    0.7137   -0.4129    0.0000 C   0  0  0  0  0  0  0  0  0  0  0  0
   -0.0007   -0.0004    0.0000 C   0  0  0  0  0  0  0  0  0  0  0  0
   -0.0007    0.8246    0.0000 C   0  0  0  0  0  0  0  0  0  0  0  0
   -0.3027    4.4266    0.0000 H   0  0  0  0  0  0  0  0  0  0  0  0
   -1.4297    4.1246    0.0000 H   0  0  0  0  0  0  0  0  0  0  0  0
   -1.1277    2.9976    0.0000 H   0  0  0  0  0  0  0  0  0  0  0  0
    1.5373    2.1100    0.0000 H   0  0  0  0  0  0  0  0  0  0  0  0
    1.1671    2.7514    0.0000 H   0  0  0  0  0  0  0  0  0  0  0  0
    2.1427    1.2371    0.0000 H   0  0  0  0  0  0  0  0  0  0  0  0
    2.1427   -0.4129    0.0000 H   0  0  0  0  0  0  0  0  0  0  0  0
    0.7137   -1.2379    0.0000 H   0  0  0  0  0  0  0  0  0  0  0  0
   -0.7152   -0.4129    0.0000 H   0  0  0  0  0  0  0  0  0  0  0  0
   -0.7152    1.2371    0.0000 H   0  0  0  0  0  0  0  0  0  0  0  0
  1  2  1  0  0  0  0
  2  3  2  0  0  0  0
  2  4  1  0  0  0  0
  4  5  1  0  0  0  0
  5  6  1  0  0  0  0
  6  7  4  0  0  0  0
  7  8  4  0  0  0  0
  8  9  4  0  0  0  0
  9 10  4  0  0  0  0
 10 11  4  0  0  0  0
  6 11  4  0  0  0  0
  1 12  1  0  0  0  0
  1 13  1  0  0  0  0
  1 14  1  0  0  0  0
  5 15  1  0  0  0  0
  5 16  1  0  0  0  0
  7 17  1  0  0  0  0
  8 18  1  0  0  0  0
  9 19  1  0  0  0  0
 10 20  1  0  0  0  0
 11 21  1  0  0  0  0
M  END
>  <InChIKey>
InChI=1S/C9H10O2/c1-8(10)11-7-9-5-3-2-4-6-9/h2-6H,7H2,1H3

>  <CASRN>
140-11-4

> <Outcome>
1

>  <Index>
2630

>  <StandardizerResult>
Dearomatize (ID: Dearomatize)
Clear Stereo (ID: ClearStereo)
Wedge Clean (ID: WedgeClean)
Mesomerize (ID: Mesomerize)
Tautomerize (ID: Tautomerize)
Aromatize (ID: Aromatize)
Add Explicit Hydrogens (ID: AddExplicitH)
Neutralize (ID: Neutralize)
Clean 2D (ID: Clean2D)

> <knn Distance>


> <CpId>
2630

$$$$
2631
  Mrv1532301301811342D          

 10  9  0  0  0  0            999 V2000
    2.3430   -1.3864    0.0000 C   0  0  0  0  0  0  0  0  0  0  0  0
    1.9305   -0.6719    0.0000 C   0  0  0  0  0  0  0  0  0  0  0  0
    1.1055   -0.6719    0.0000 N   0  0  0  0  0  0  0  0  0  0  0  0
    1.6286   -1.7989    0.0000 H   0  0  0  0  0  0  0  0  0  0  0  0
    2.7555   -2.1008    0.0000 H   0  0  0  0  0  0  0  0  0  0  0  0
    3.0575   -0.9739    0.0000 H   0  0  0  0  0  0  0  0  0  0  0  0
    2.6198   -0.2185    0.0000 H   0  0  0  0  0  0  0  0  0  0  0  0
    1.9785    0.1517    0.0000 H   0  0  0  0  0  0  0  0  0  0  0  0
    0.6930    0.0426    0.0000 H   0  0  0  0  0  0  0  0  0  0  0  0
    0.6930   -1.3864    0.0000 H   0  0  0  0  0  0  0  0  0  0  0  0
  1  2  1  0  0  0  0
  2  3  1  0  0  0  0
  1  4  1  0  0  0  0
  1  5  1  0  0  0  0
  1  6  1  0  0  0  0
  2  7  1  0  0  0  0
  2  8  1  0  0  0  0
  3  9  1  0  0  0  0
  3 10  1  0  0  0  0
M  END
>  <InChIKey>
InChI=1S/C2H7N/c1-2-3/h2-3H2,1H3

>  <CASRN>
75-04-7

> <Outcome>
1

>  <Index>
2631

>  <StandardizerResult>
Mesomerize (ID: Mesomerize)
Tautomerize (ID: Tautomerize)
Add Explicit Hydrogens (ID: AddExplicitH)
Neutralize (ID: Neutralize)
Clean 2D (ID: Clean2D)

> <knn Distance>


> <CpId>
2631

$$$$
2632
  Mrv1532301301811342D          

 18 18  0  0  0  0            999 V2000
    0.7145    2.0625    0.0000 N   0  0  0  0  0  0  0  0  0  0  0  0
    0.7145    1.2375    0.0000 C   0  0  0  0  0  0  0  0  0  0  0  0
    1.4289    0.8250    0.0000 C   0  0  0  0  0  0  0  0  0  0  0  0
    1.4289   -0.0000    0.0000 C   0  0  0  0  0  0  0  0  0  0  0  0
    0.7145   -0.4125    0.0000 C   0  0  0  0  0  0  0  0  0  0  0  0
    0.7145   -1.2375    0.0000 S   0  0  0  0  0  0  0  0  0  0  0  0
    1.4289   -1.6500    0.0000 C   0  0  0  0  0  0  0  0  0  0  0  0
    2.1434   -2.0625    0.0000 N   0  0  0  0  0  0  0  0  0  0  0  0
   -0.0000   -0.0000    0.0000 C   0  0  0  0  0  0  0  0  0  0  0  0
   -0.0000    0.8250    0.0000 C   0  0  0  0  0  0  0  0  0  0  0  0
   -0.7145    1.2375    0.0000 N   0  0  0  0  0  0  0  0  0  0  0  0
   -0.7145    2.0625    0.0000 O   0  0  0  0  0  0  0  0  0  0  0  0
   -1.4289    0.8250    0.0000 O   0  0  0  0  0  0  0  0  0  0  0  0
    1.4289    2.4750    0.0000 H   0  0  0  0  0  0  0  0  0  0  0  0
   -0.0000    2.4750    0.0000 H   0  0  0  0  0  0  0  0  0  0  0  0
    2.1434    1.2375    0.0000 H   0  0  0  0  0  0  0  0  0  0  0  0
    2.1434   -0.4125    0.0000 H   0  0  0  0  0  0  0  0  0  0  0  0
   -0.7145   -0.4125    0.0000 H   0  0  0  0  0  0  0  0  0  0  0  0
  1  2  1  0  0  0  0
  2  3  4  0  0  0  0
  3  4  4  0  0  0  0
  4  5  4  0  0  0  0
  5  6  1  0  0  0  0
  6  7  1  0  0  0  0
  7  8  3  0  0  0  0
  5  9  4  0  0  0  0
  9 10  4  0  0  0  0
  2 10  4  0  0  0  0
 10 11  1  0  0  0  0
 11 12  2  0  0  0  0
 11 13  2  0  0  0  0
  1 14  1  0  0  0  0
  1 15  1  0  0  0  0
  3 16  1  0  0  0  0
  4 17  1  0  0  0  0
  9 18  1  0  0  0  0
M  END
>  <InChIKey>
InChI=1S/C7H5N3O2S/c8-4-13-5-1-2-6(9)7(3-5)10(11)12/h1-3H,9H2

>  <UN GHS>
1

>  <CASRN>
54029-45-7

> <Outcome>
1

>  <Index>
2632

>  <StandardizerResult>
Dearomatize (ID: Dearomatize)
Clear Stereo (ID: ClearStereo)
Wedge Clean (ID: WedgeClean)
Mesomerize (ID: Mesomerize)
Tautomerize (ID: Tautomerize)
Aromatize (ID: Aromatize)
Add Explicit Hydrogens (ID: AddExplicitH)
Neutralize (ID: Neutralize)
Clean 2D (ID: Clean2D)

> <knn Distance>


> <CpId>
2632

$$$$
2633
  Mrv1532301301811342D          

  8  7  0  0  0  0            999 V2000
    0.1086   -1.2364    0.0000 Cl  0  0  0  0  0  0  0  0  0  0  0  0
    0.8231   -0.8239    0.0000 C   0  0  0  0  0  0  0  0  0  0  0  0
    0.8231    0.0011    0.0000 C   0  0  0  0  0  0  0  0  0  0  0  0
    0.8231    0.8261    0.0000 Cl  0  0  0  0  0  0  0  0  0  0  0  0
    1.6481    0.0011    0.0000 Cl  0  0  0  0  0  0  0  0  0  0  0  0
   -0.0019    0.0011    0.0000 Cl  0  0  0  0  0  0  0  0  0  0  0  0
    1.2764   -1.5132    0.0000 H   0  0  0  0  0  0  0  0  0  0  0  0
    1.6467   -0.8719    0.0000 H   0  0  0  0  0  0  0  0  0  0  0  0
  1  2  1  0  0  0  0
  2  3  1  0  0  0  0
  3  4  1  0  0  0  0
  3  5  1  0  0  0  0
  3  6  1  0  0  0  0
  2  7  1  0  0  0  0
  2  8  1  0  0  0  0
M  END
>  <InChIKey>
InChI=1S/C2H2Cl4/c3-1-2(4,5)6/h1H2

>  <CASRN>
630-20-6

> <Outcome>
1

>  <Index>
2633

>  <StandardizerResult>
Clear Stereo (ID: ClearStereo)
Wedge Clean (ID: WedgeClean)
Mesomerize (ID: Mesomerize)
Tautomerize (ID: Tautomerize)
Add Explicit Hydrogens (ID: AddExplicitH)
Neutralize (ID: Neutralize)
Clean 2D (ID: Clean2D)

> <knn Distance>


> <CpId>
2633

$$$$
2639
  Mrv1532301301811342D          

 17 16  0  0  0  0            999 V2000
    0.8332    1.4582    0.0000 C   0  0  0  0  0  0  0  0  0  0  0  0
    1.2457    0.7437    0.0000 C   0  0  0  0  0  0  0  0  0  0  0  0
    0.8332    0.0292    0.0000 C   0  0  0  0  0  0  0  0  0  0  0  0
    1.2457   -0.6852    0.0000 C   0  0  0  0  0  0  0  0  0  0  0  0
    0.0082    0.0292    0.0000 C   0  0  0  0  0  0  0  0  0  0  0  0
    1.5477    1.8707    0.0000 H   0  0  0  0  0  0  0  0  0  0  0  0
    0.4207    2.1726    0.0000 H   0  0  0  0  0  0  0  0  0  0  0  0
    0.1188    1.0457    0.0000 H   0  0  0  0  0  0  0  0  0  0  0  0
    1.9830    0.3734    0.0000 H   0  0  0  0  0  0  0  0  0  0  0  0
    1.9830    1.1140    0.0000 H   0  0  0  0  0  0  0  0  0  0  0  0
    1.6582    0.0292    0.0000 H   0  0  0  0  0  0  0  0  0  0  0  0
    0.4488   -0.8988    0.0000 H   0  0  0  0  0  0  0  0  0  0  0  0
    1.2457   -1.5102    0.0000 H   0  0  0  0  0  0  0  0  0  0  0  0
    2.0426   -0.8988    0.0000 H   0  0  0  0  0  0  0  0  0  0  0  0
    0.0082    0.8542    0.0000 H   0  0  0  0  0  0  0  0  0  0  0  0
   -0.8168    0.0292    0.0000 H   0  0  0  0  0  0  0  0  0  0  0  0
    0.0082   -0.7958    0.0000 H   0  0  0  0  0  0  0  0  0  0  0  0
  1  2  1  0  0  0  0
  2  3  1  0  0  0  0
  3  4  1  0  0  0  0
  3  5  1  0  0  0  0
  1  6  1  0  0  0  0
  1  7  1  0  0  0  0
  1  8  1  0  0  0  0
  2  9  1  0  0  0  0
  2 10  1  0  0  0  0
  3 11  1  0  0  0  0
  4 12  1  0  0  0  0
  4 13  1  0  0  0  0
  4 14  1  0  0  0  0
  5 15  1  0  0  0  0
  5 16  1  0  0  0  0
  5 17  1  0  0  0  0
M  END
>  <InChIKey>
InChI=1S/C5H12/c1-4-5(2)3/h5H,4H2,1-3H3

>  <CASRN>
78-78-4

> <Outcome>
1

>  <Index>
2639

>  <StandardizerResult>
Clear Stereo (ID: ClearStereo)
Wedge Clean (ID: WedgeClean)
Mesomerize (ID: Mesomerize)
Tautomerize (ID: Tautomerize)
Add Explicit Hydrogens (ID: AddExplicitH)
Neutralize (ID: Neutralize)
Clean 2D (ID: Clean2D)

> <knn Distance>


> <CpId>
2639

$$$$
2640
  Mrv1532301301811342D          

 12 11  0  0  0  0            999 V2000
    2.4735   -1.4315    0.0000 O   0  0  0  0  0  0  0  0  0  0  0  0
    2.0610   -0.7170    0.0000 C   0  0  0  0  0  0  0  0  0  0  0  0
    1.2360   -0.7170    0.0000 C   0  0  0  0  0  0  0  0  0  0  0  0
    0.8235   -1.4315    0.0000 Br  0  0  0  0  0  0  0  0  0  0  0  0
    0.8235   -0.0025    0.0000 C   0  0  0  0  0  0  0  0  0  0  0  0
   -0.0015   -0.0025    0.0000 Br  0  0  0  0  0  0  0  0  0  0  0  0
    2.0610   -2.1460    0.0000 H   0  0  0  0  0  0  0  0  0  0  0  0
    2.7503   -0.2637    0.0000 H   0  0  0  0  0  0  0  0  0  0  0  0
    2.1090    0.1066    0.0000 H   0  0  0  0  0  0  0  0  0  0  0  0
    1.6485   -1.4315    0.0000 H   0  0  0  0  0  0  0  0  0  0  0  0
    1.5128    0.4508    0.0000 H   0  0  0  0  0  0  0  0  0  0  0  0
    0.8715    0.8211    0.0000 H   0  0  0  0  0  0  0  0  0  0  0  0
  1  2  1  0  0  0  0
  2  3  1  0  0  0  0
  3  4  1  0  0  0  0
  3  5  1  0  0  0  0
  5  6  1  0  0  0  0
  1  7  1  0  0  0  0
  2  8  1  0  0  0  0
  2  9  1  0  0  0  0
  3 10  1  0  0  0  0
  5 11  1  0  0  0  0
  5 12  1  0  0  0  0
M  END
>  <InChIKey>
InChI=1S/C3H6Br2O/c4-1-3(5)2-6/h3,6H,1-2H2

>  <CASRN>
96-13-9

> <Outcome>
1

>  <Index>
2640

>  <StandardizerResult>
Clear Stereo (ID: ClearStereo)
Wedge Clean (ID: WedgeClean)
Mesomerize (ID: Mesomerize)
Tautomerize (ID: Tautomerize)
Add Explicit Hydrogens (ID: AddExplicitH)
Neutralize (ID: Neutralize)
Clean 2D (ID: Clean2D)

> <knn Distance>


> <CpId>
2640

$$$$
2644
  Mrv1532301301811342D          

  8  7  0  0  0  0            999 V2000
    0.8250    1.4289    0.0000 Br  0  0  0  0  0  0  0  0  0  0  0  0
    1.2375    0.7145    0.0000 C   0  0  0  0  0  0  0  0  0  0  0  0
    2.0625    0.7145    0.0000 Br  0  0  0  0  0  0  0  0  0  0  0  0
    0.8250    0.0000    0.0000 C   0  0  0  0  0  0  0  0  0  0  0  0
    1.2375   -0.7145    0.0000 Br  0  0  0  0  0  0  0  0  0  0  0  0
   -0.0000    0.0000    0.0000 Br  0  0  0  0  0  0  0  0  0  0  0  0
    1.6500    1.4289    0.0000 H   0  0  0  0  0  0  0  0  0  0  0  0
    1.6500    0.0000    0.0000 H   0  0  0  0  0  0  0  0  0  0  0  0
  1  2  1  0  0  0  0
  2  3  1  0  0  0  0
  2  4  1  0  0  0  0
  4  5  1  0  0  0  0
  4  6  1  0  0  0  0
  2  7  1  0  0  0  0
  4  8  1  0  0  0  0
M  END
>  <InChIKey>
InChI=1S/C2H2Br4/c3-1(4)2(5)6/h1-2H

>  <CASRN>
79-27-6

> <Outcome>
1

>  <Index>
2644

>  <StandardizerResult>
Clear Stereo (ID: ClearStereo)
Wedge Clean (ID: WedgeClean)
Mesomerize (ID: Mesomerize)
Tautomerize (ID: Tautomerize)
Add Explicit Hydrogens (ID: AddExplicitH)
Neutralize (ID: Neutralize)
Clean 2D (ID: Clean2D)

> <knn Distance>


> <CpId>
2644

$$$$
2667
  Mrv1532301301811342D          

  8  7  0  0  0  0            999 V2000
    1.7604   -1.4273    0.0000 C   0  0  0  0  0  0  0  0  0  0  0  0
    1.3479   -0.7128    0.0000 C   0  0  0  0  0  0  0  0  0  0  0  0
    0.5229   -0.7128    0.0000 Br  0  0  0  0  0  0  0  0  0  0  0  0
    1.0459   -1.8398    0.0000 H   0  0  0  0  0  0  0  0  0  0  0  0
    2.1729   -2.1418    0.0000 H   0  0  0  0  0  0  0  0  0  0  0  0
    2.4749   -1.0148    0.0000 H   0  0  0  0  0  0  0  0  0  0  0  0
    2.0372   -0.2595    0.0000 H   0  0  0  0  0  0  0  0  0  0  0  0
    1.3959    0.1108    0.0000 H   0  0  0  0  0  0  0  0  0  0  0  0
  1  2  1  0  0  0  0
  2  3  1  0  0  0  0
  1  4  1  0  0  0  0
  1  5  1  0  0  0  0
  1  6  1  0  0  0  0
  2  7  1  0  0  0  0
  2  8  1  0  0  0  0
M  END
>  <InChIKey>
InChI=1S/C2H5Br/c1-2-3/h2H2,1H3

>  <CASRN>
74-96-4

> <Outcome>
1

>  <Index>
2667

>  <StandardizerResult>
Mesomerize (ID: Mesomerize)
Tautomerize (ID: Tautomerize)
Add Explicit Hydrogens (ID: AddExplicitH)
Neutralize (ID: Neutralize)
Clean 2D (ID: Clean2D)

> <knn Distance>


> <CpId>
2667

$$$$
2673
  Mrv1532301301811342D          

 12 12  0  0  0  0            999 V2000
    0.7145    2.0625    0.0000 Cl  0  0  0  0  0  0  0  0  0  0  0  0
    0.7145    1.2375    0.0000 C   0  0  0  0  0  0  0  0  0  0  0  0
    1.4289    0.8250    0.0000 C   0  0  0  0  0  0  0  0  0  0  0  0
    1.4289    0.0000    0.0000 C   0  0  0  0  0  0  0  0  0  0  0  0
    0.7145   -0.4125    0.0000 C   0  0  0  0  0  0  0  0  0  0  0  0
   -0.0000    0.0000    0.0000 C   0  0  0  0  0  0  0  0  0  0  0  0
   -0.7145   -0.4125    0.0000 Cl  0  0  0  0  0  0  0  0  0  0  0  0
   -0.0000    0.8250    0.0000 C   0  0  0  0  0  0  0  0  0  0  0  0
   -0.7145    1.2375    0.0000 Cl  0  0  0  0  0  0  0  0  0  0  0  0
    2.1434    1.2375    0.0000 H   0  0  0  0  0  0  0  0  0  0  0  0
    2.1434   -0.4125    0.0000 H   0  0  0  0  0  0  0  0  0  0  0  0
    0.7145   -1.2375    0.0000 H   0  0  0  0  0  0  0  0  0  0  0  0
  1  2  1  0  0  0  0
  2  3  4  0  0  0  0
  3  4  4  0  0  0  0
  4  5  4  0  0  0  0
  5  6  4  0  0  0  0
  6  7  1  0  0  0  0
  6  8  4  0  0  0  0
  2  8  4  0  0  0  0
  8  9  1  0  0  0  0
  3 10  1  0  0  0  0
  4 11  1  0  0  0  0
  5 12  1  0  0  0  0
M  END
>  <InChIKey>
InChI=1S/C6H3Cl3/c7-4-2-1-3-5(8)6(4)9/h1-3H

>  <CASRN>
87-61-6 12002-48-1

> <Outcome>
1

>  <Index>
2673

>  <StandardizerResult>
Dearomatize (ID: Dearomatize)
Clear Stereo (ID: ClearStereo)
Wedge Clean (ID: WedgeClean)
Mesomerize (ID: Mesomerize)
Tautomerize (ID: Tautomerize)
Aromatize (ID: Aromatize)
Add Explicit Hydrogens (ID: AddExplicitH)
Neutralize (ID: Neutralize)
Clean 2D (ID: Clean2D)

> <knn Distance>


> <CpId>
2673

$$$$
2674
  Mrv1532301301811342D          

  6  5  0  0  0  0            999 V2000
    2.0610   -0.7170    0.0000 Cl  0  0  0  0  0  0  0  0  0  0  0  0
    1.6485   -0.0026    0.0000 C   0  0  0  0  0  0  0  0  0  0  0  0
    0.8235   -0.0026    0.0000 C   0  0  0  0  0  0  0  0  0  0  0  0
   -0.0015   -0.0026    0.0000 N   0  0  0  0  0  0  0  0  0  0  0  0
    2.3378    0.4508    0.0000 H   0  0  0  0  0  0  0  0  0  0  0  0
    1.6965    0.8211    0.0000 H   0  0  0  0  0  0  0  0  0  0  0  0
  1  2  1  0  0  0  0
  2  3  1  0  0  0  0
  3  4  3  0  0  0  0
  2  5  1  0  0  0  0
  2  6  1  0  0  0  0
M  END
>  <InChIKey>
InChI=1S/C2H2ClN/c3-1-2-4/h1H2

>  <CASRN>
107-14-2

> <Outcome>
1

>  <Index>
2674

>  <StandardizerResult>
Clear Stereo (ID: ClearStereo)
Wedge Clean (ID: WedgeClean)
Mesomerize (ID: Mesomerize)
Tautomerize (ID: Tautomerize)
Add Explicit Hydrogens (ID: AddExplicitH)
Neutralize (ID: Neutralize)
Clean 2D (ID: Clean2D)

> <knn Distance>


> <CpId>
2674

$$$$
2675
  Mrv1532301301811342D          

 41 43  0  0  0  0            999 V2000
    2.1378   -6.1937    0.0000 C   0  0  0  0  0  0  0  0  0  0  0  0
    2.1378   -5.3687    0.0000 C   0  0  0  0  0  0  0  0  0  0  0  0
    1.4233   -4.9562    0.0000 C   0  0  0  0  0  0  0  0  0  0  0  0
    1.4233   -4.1312    0.0000 C   0  0  0  0  0  0  0  0  0  0  0  0
    2.1378   -3.7187    0.0000 C   0  0  0  0  0  0  0  0  0  0  0  0
    2.1378   -2.8937    0.0000 N   0  0  0  0  0  0  0  0  0  0  0  0
    1.4233   -2.4812    0.0000 N   0  0  0  0  0  0  0  0  0  0  0  0
    1.4233   -1.6562    0.0000 C   0  0  0  0  0  0  0  0  0  0  0  0
    0.7089   -1.2437    0.0000 C   0  0  0  0  0  0  0  0  0  0  0  0
   -0.0056   -1.6562    0.0000 O   0  0  0  0  0  0  0  0  0  0  0  0
    0.7089   -0.4187    0.0000 C   0  0  0  0  0  0  0  0  0  0  0  0
    1.4233   -0.0062    0.0000 C   0  0  0  0  0  0  0  0  0  0  0  0
    2.1378   -0.4187    0.0000 C   0  0  0  0  0  0  0  0  0  0  0  0
    2.8523   -0.0062    0.0000 C   0  0  0  0  0  0  0  0  0  0  0  0
    3.5668   -0.4187    0.0000 C   0  0  0  0  0  0  0  0  0  0  0  0
    3.5668   -1.2437    0.0000 C   0  0  0  0  0  0  0  0  0  0  0  0
    2.8523   -1.6562    0.0000 C   0  0  0  0  0  0  0  0  0  0  0  0
    2.1378   -1.2437    0.0000 C   0  0  0  0  0  0  0  0  0  0  0  0
   -0.0056   -0.0062    0.0000 C   0  0  0  0  0  0  0  0  0  0  0  0
   -0.0056    0.8188    0.0000 O   0  0  0  0  0  0  0  0  0  0  0  0
   -0.7201   -0.4187    0.0000 O   0  0  0  0  0  0  0  0  0  0  0  0
    2.8523   -4.1312    0.0000 C   0  0  0  0  0  0  0  0  0  0  0  0
    2.8523   -4.9562    0.0000 C   0  0  0  0  0  0  0  0  0  0  0  0
    3.5668   -3.7187    0.0000 S   0  0  0  0  0  0  0  0  0  0  0  0
    4.2812   -3.3062    0.0000 O   0  0  0  0  0  0  0  0  0  0  0  0
    3.9793   -4.4332    0.0000 O   0  0  0  0  0  0  0  0  0  0  0  0
    3.1543   -3.0042    0.0000 O   0  0  0  0  0  0  0  0  0  0  0  0
    1.3128   -6.1937    0.0000 H   0  0  0  0  0  0  0  0  0  0  0  0
    2.1378   -7.0187    0.0000 H   0  0  0  0  0  0  0  0  0  0  0  0
    2.9628   -6.1937    0.0000 H   0  0  0  0  0  0  0  0  0  0  0  0
    0.7089   -5.3687    0.0000 H   0  0  0  0  0  0  0  0  0  0  0  0
    0.7089   -3.7187    0.0000 H   0  0  0  0  0  0  0  0  0  0  0  0
    2.8523   -2.4812    0.0000 H   0  0  0  0  0  0  0  0  0  0  0  0
    1.4233    0.8188    0.0000 H   0  0  0  0  0  0  0  0  0  0  0  0
    2.8523    0.8188    0.0000 H   0  0  0  0  0  0  0  0  0  0  0  0
    4.2812   -0.0062    0.0000 H   0  0  0  0  0  0  0  0  0  0  0  0
    4.2812   -1.6562    0.0000 H   0  0  0  0  0  0  0  0  0  0  0  0
    2.1378   -2.0687    0.0000 H   0  0  0  0  0  0  0  0  0  0  0  0
    0.7089    1.2313    0.0000 H   0  0  0  0  0  0  0  0  0  0  0  0
    3.5668   -5.3687    0.0000 H   0  0  0  0  0  0  0  0  0  0  0  0
    4.9957   -3.7187    0.0000 H   0  0  0  0  0  0  0  0  0  0  0  0
  1  2  1  0  0  0  0
  2  3  4  0  0  0  0
  3  4  4  0  0  0  0
  4  5  4  0  0  0  0
  5  6  1  0  0  0  0
  7  6  1  4  0  0  0
  7  8  2  0  0  0  0
  8  9  1  0  0  0  0
  9 10  2  0  0  0  0
  9 11  1  0  0  0  0
 11 12  2  0  0  0  0
 12 13  1  0  0  0  0
 13 14  4  0  0  0  0
 14 15  4  0  0  0  0
 15 16  4  0  0  0  0
 16 17  4  0  0  0  0
 17 18  4  0  0  0  0
  8 18  1  0  0  0  0
 13 18  4  0  0  0  0
 11 19  1  0  0  0  0
 19 20  1  0  0  0  0
 19 21  2  0  0  0  0
  5 22  4  0  0  0  0
 22 23  4  0  0  0  0
  2 23  4  0  0  0  0
 22 24  1  0  0  0  0
 24 25  1  0  0  0  0
 24 26  2  0  0  0  0
 24 27  2  0  0  0  0
  1 28  1  0  0  0  0
  1 29  1  0  0  0  0
  1 30  1  0  0  0  0
  3 31  1  0  0  0  0
  4 32  1  0  0  0  0
  6 33  1  0  0  0  0
 12 34  1  0  0  0  0
 14 35  1  0  0  0  0
 15 36  1  0  0  0  0
 16 37  1  0  0  0  0
 17 38  1  0  0  0  0
 20 39  1  0  0  0  0
 23 40  1  0  0  0  0
 25 41  1  0  0  0  0
M  END
>  <InChIKey>
InChI=1S/C18H14N2O6S/c1-10-6-7-14(15(8-10)27(24,25)26)19-20-16-12-5-3-2-4-11(12)9-13(17(16)21)18(22)23/h2-9,19H,1H3,(H,22,23)(H,24,25,26)

>  <CASRN>
5858-81-1

> <Outcome>
1

>  <Index>
2675

>  <StandardizerResult>
Dearomatize (ID: Dearomatize)
Clear Stereo (ID: ClearStereo)
Wedge Clean (ID: WedgeClean)
Mesomerize (ID: Mesomerize)
Tautomerize (ID: Tautomerize)
Aromatize (ID: Aromatize)
Add Explicit Hydrogens (ID: AddExplicitH)
Neutralize (ID: Neutralize)
Clean 2D (ID: Clean2D)

> <knn Distance>


> <CpId>
2675

$$$$
2679
  Mrv1532301301811342D          

 12 12  0  0  0  0            999 V2000
    0.7145    2.0625    0.0000 Cl  0  0  0  0  0  0  0  0  0  0  0  0
    0.7145    1.2375    0.0000 C   0  0  0  0  0  0  0  0  0  0  0  0
    1.4289    0.8250    0.0000 C   0  0  0  0  0  0  0  0  0  0  0  0
    1.4289   -0.0000    0.0000 C   0  0  0  0  0  0  0  0  0  0  0  0
    0.7145   -0.4125    0.0000 C   0  0  0  0  0  0  0  0  0  0  0  0
   -0.0000   -0.0000    0.0000 C   0  0  0  0  0  0  0  0  0  0  0  0
   -0.0000    0.8250    0.0000 C   0  0  0  0  0  0  0  0  0  0  0  0
   -0.7145    1.2375    0.0000 Cl  0  0  0  0  0  0  0  0  0  0  0  0
    2.1434    1.2375    0.0000 H   0  0  0  0  0  0  0  0  0  0  0  0
    2.1434   -0.4125    0.0000 H   0  0  0  0  0  0  0  0  0  0  0  0
    0.7145   -1.2375    0.0000 H   0  0  0  0  0  0  0  0  0  0  0  0
   -0.7145   -0.4125    0.0000 H   0  0  0  0  0  0  0  0  0  0  0  0
  1  2  1  0  0  0  0
  2  3  4  0  0  0  0
  3  4  4  0  0  0  0
  4  5  4  0  0  0  0
  5  6  4  0  0  0  0
  6  7  4  0  0  0  0
  2  7  4  0  0  0  0
  7  8  1  0  0  0  0
  3  9  1  0  0  0  0
  4 10  1  0  0  0  0
  5 11  1  0  0  0  0
  6 12  1  0  0  0  0
M  END
>  <InChIKey>
InChI=1S/C6H4Cl2/c7-5-3-1-2-4-6(5)8/h1-4H

>  <CASRN>
95-50-1

> <Outcome>
1

>  <Index>
2679

>  <StandardizerResult>
Dearomatize (ID: Dearomatize)
Clear Stereo (ID: ClearStereo)
Wedge Clean (ID: WedgeClean)
Mesomerize (ID: Mesomerize)
Tautomerize (ID: Tautomerize)
Aromatize (ID: Aromatize)
Add Explicit Hydrogens (ID: AddExplicitH)
Neutralize (ID: Neutralize)
Clean 2D (ID: Clean2D)

> <knn Distance>


> <CpId>
2679

$$$$
2687
  Mrv1532301301811342D          

102102  0  0  0  0            999 V2000
    6.2646   -0.0025    0.0000 C   0  0  0  0  0  0  0  0  0  0  0  0
    6.0664   -0.8033    0.0000 C   0  0  0  0  0  0  0  0  0  0  0  0
    6.6609   -1.3753    0.0000 C   0  0  0  0  0  0  0  0  0  0  0  0
    6.4628   -2.1762    0.0000 C   0  0  0  0  0  0  0  0  0  0  0  0
    7.0572   -2.7482    0.0000 C   0  0  0  0  0  0  0  0  0  0  0  0
    6.8591   -3.5491    0.0000 C   0  0  0  0  0  0  0  0  0  0  0  0
    7.4536   -4.1211    0.0000 C   0  0  0  0  0  0  0  0  0  0  0  0
    7.2554   -4.9220    0.0000 C   0  0  0  0  0  0  0  0  0  0  0  0
    7.8499   -5.4940    0.0000 C   0  0  0  0  0  0  0  0  0  0  0  0
    7.6517   -6.2948    0.0000 C   0  0  0  0  0  0  0  0  0  0  0  0
    8.2462   -6.8669    0.0000 C   0  0  0  0  0  0  0  0  0  0  0  0
    9.0388   -6.6381    0.0000 C   0  0  0  0  0  0  0  0  0  0  0  0
    9.6333   -7.2101    0.0000 C   0  0  0  0  0  0  0  0  0  0  0  0
   10.4259   -6.9813    0.0000 C   0  0  0  0  0  0  0  0  0  0  0  0
   11.0204   -7.5533    0.0000 C   0  0  0  0  0  0  0  0  0  0  0  0
   11.8130   -7.3245    0.0000 C   0  0  0  0  0  0  0  0  0  0  0  0
   12.4075   -7.8965    0.0000 C   0  0  0  0  0  0  0  0  0  0  0  0
   13.2002   -7.6677    0.0000 C   0  0  0  0  0  0  0  0  0  0  0  0
   13.3983   -6.8669    0.0000 O   0  0  0  0  0  0  0  0  0  0  0  0
   13.7946   -8.2398    0.0000 O   0  0  0  0  0  0  0  0  0  0  0  0
   14.5873   -8.0110    0.0000 C   0  0  0  0  0  0  0  0  0  0  0  0
   15.1817   -8.5830    0.0000 C   0  0  0  0  0  0  0  0  0  0  0  0
   15.9744   -8.3542    0.0000 O   0  0  0  0  0  0  0  0  0  0  0  0
   16.5689   -8.9262    0.0000 C   0  0  0  0  0  0  0  0  0  0  0  0
   17.3615   -8.6974    0.0000 C   0  0  0  0  0  0  0  0  0  0  0  0
   17.5596   -7.8965    0.0000 O   0  0  0  0  0  0  0  0  0  0  0  0
   18.3523   -7.6677    0.0000 C   0  0  0  0  0  0  0  0  0  0  0  0
   18.5504   -6.8669    0.0000 C   0  0  0  0  0  0  0  0  0  0  0  0
   19.3431   -6.6381    0.0000 O   0  0  0  0  0  0  0  0  0  0  0  0
   17.9560   -9.2694    0.0000 C   0  0  0  0  0  0  0  0  0  0  0  0
   18.7682   -9.1247    0.0000 O   0  0  0  0  0  0  0  0  0  0  0  0
   19.1568   -9.8525    0.0000 C   0  0  0  0  0  0  0  0  0  0  0  0
   18.5847  -10.4469    0.0000 C   0  0  0  0  0  0  0  0  0  0  0  0
   17.8426  -10.0866    0.0000 C   0  0  0  0  0  0  0  0  0  0  0  0
   17.1149  -10.4752    0.0000 O   0  0  0  0  0  0  0  0  0  0  0  0
   16.4144  -10.0393    0.0000 C   0  0  0  0  0  0  0  0  0  0  0  0
   15.6867  -10.4279    0.0000 C   0  0  0  0  0  0  0  0  0  0  0  0
   14.9863   -9.9920    0.0000 O   0  0  0  0  0  0  0  0  0  0  0  0
   19.9740   -9.9658    0.0000 O   0  0  0  0  0  0  0  0  0  0  0  0
   20.4807   -9.3148    0.0000 C   0  0  0  0  0  0  0  0  0  0  0  0
   21.2979   -9.4282    0.0000 C   0  0  0  0  0  0  0  0  0  0  0  0
   21.8047   -8.7772    0.0000 O   0  0  0  0  0  0  0  0  0  0  0  0
    7.0655   -0.2006    0.0000 H   0  0  0  0  0  0  0  0  0  0  0  0
    6.4628    0.7984    0.0000 H   0  0  0  0  0  0  0  0  0  0  0  0
    5.4638    0.1957    0.0000 H   0  0  0  0  0  0  0  0  0  0  0  0
    5.2554   -0.6521    0.0000 H   0  0  0  0  0  0  0  0  0  0  0  0
    5.4608   -1.3635    0.0000 H   0  0  0  0  0  0  0  0  0  0  0  0
    7.4719   -1.5266    0.0000 H   0  0  0  0  0  0  0  0  0  0  0  0
    7.2666   -0.8151    0.0000 H   0  0  0  0  0  0  0  0  0  0  0  0
    5.6517   -2.0249    0.0000 H   0  0  0  0  0  0  0  0  0  0  0  0
    5.8571   -2.7364    0.0000 H   0  0  0  0  0  0  0  0  0  0  0  0
    7.8683   -2.8995    0.0000 H   0  0  0  0  0  0  0  0  0  0  0  0
    7.6629   -2.1880    0.0000 H   0  0  0  0  0  0  0  0  0  0  0  0
    6.0481   -3.3978    0.0000 H   0  0  0  0  0  0  0  0  0  0  0  0
    6.2534   -4.1093    0.0000 H   0  0  0  0  0  0  0  0  0  0  0  0
    8.2646   -4.2724    0.0000 H   0  0  0  0  0  0  0  0  0  0  0  0
    8.0592   -3.5609    0.0000 H   0  0  0  0  0  0  0  0  0  0  0  0
    6.4444   -4.7707    0.0000 H   0  0  0  0  0  0  0  0  0  0  0  0
    6.6498   -5.4822    0.0000 H   0  0  0  0  0  0  0  0  0  0  0  0
    8.6425   -5.2652    0.0000 H   0  0  0  0  0  0  0  0  0  0  0  0
    6.8591   -6.5237    0.0000 H   0  0  0  0  0  0  0  0  0  0  0  0
    7.7097   -7.4936    0.0000 H   0  0  0  0  0  0  0  0  0  0  0  0
    8.4285   -7.6715    0.0000 H   0  0  0  0  0  0  0  0  0  0  0  0
    9.5753   -6.0113    0.0000 H   0  0  0  0  0  0  0  0  0  0  0  0
    8.8565   -5.8335    0.0000 H   0  0  0  0  0  0  0  0  0  0  0  0
    9.0968   -7.8368    0.0000 H   0  0  0  0  0  0  0  0  0  0  0  0
    9.8156   -8.0147    0.0000 H   0  0  0  0  0  0  0  0  0  0  0  0
   10.9624   -6.3546    0.0000 H   0  0  0  0  0  0  0  0  0  0  0  0
   10.2436   -6.1767    0.0000 H   0  0  0  0  0  0  0  0  0  0  0  0
   10.4839   -8.1801    0.0000 H   0  0  0  0  0  0  0  0  0  0  0  0
   11.2027   -8.3579    0.0000 H   0  0  0  0  0  0  0  0  0  0  0  0
   12.3495   -6.6978    0.0000 H   0  0  0  0  0  0  0  0  0  0  0  0
   11.6307   -6.5199    0.0000 H   0  0  0  0  0  0  0  0  0  0  0  0
   11.8710   -8.5233    0.0000 H   0  0  0  0  0  0  0  0  0  0  0  0
   12.5899   -8.7011    0.0000 H   0  0  0  0  0  0  0  0  0  0  0  0
   15.1238   -7.3842    0.0000 H   0  0  0  0  0  0  0  0  0  0  0  0
   14.4049   -7.2064    0.0000 H   0  0  0  0  0  0  0  0  0  0  0  0
   14.6452   -9.2097    0.0000 H   0  0  0  0  0  0  0  0  0  0  0  0
   15.3641   -9.3876    0.0000 H   0  0  0  0  0  0  0  0  0  0  0  0
   16.0324   -9.5529    0.0000 H   0  0  0  0  0  0  0  0  0  0  0  0
   16.7512   -9.7308    0.0000 H   0  0  0  0  0  0  0  0  0  0  0  0
   16.7670   -8.1254    0.0000 H   0  0  0  0  0  0  0  0  0  0  0  0
   18.6268   -8.4457    0.0000 H   0  0  0  0  0  0  0  0  0  0  0  0
   19.1403   -7.9121    0.0000 H   0  0  0  0  0  0  0  0  0  0  0  0
   18.2759   -6.0889    0.0000 H   0  0  0  0  0  0  0  0  0  0  0  0
   17.7625   -6.6225    0.0000 H   0  0  0  0  0  0  0  0  0  0  0  0
   19.9375   -7.2101    0.0000 H   0  0  0  0  0  0  0  0  0  0  0  0
   17.1764   -9.5394    0.0000 H   0  0  0  0  0  0  0  0  0  0  0  0
   19.4268  -10.6320    0.0000 H   0  0  0  0  0  0  0  0  0  0  0  0
   18.0473  -11.0729    0.0000 H   0  0  0  0  0  0  0  0  0  0  0  0
   18.6186  -11.2712    0.0000 H   0  0  0  0  0  0  0  0  0  0  0  0
   17.8585  -10.9114    0.0000 H   0  0  0  0  0  0  0  0  0  0  0  0
   16.3871  -10.8638    0.0000 H   0  0  0  0  0  0  0  0  0  0  0  0
   16.4817   -9.2170    0.0000 H   0  0  0  0  0  0  0  0  0  0  0  0
   15.0375  -10.9370    0.0000 H   0  0  0  0  0  0  0  0  0  0  0  0
   15.5166  -11.2352    0.0000 H   0  0  0  0  0  0  0  0  0  0  0  0
   14.1835  -10.1822    0.0000 H   0  0  0  0  0  0  0  0  0  0  0  0
   20.5464   -8.4924    0.0000 H   0  0  0  0  0  0  0  0  0  0  0  0
   19.8603   -8.7711    0.0000 H   0  0  0  0  0  0  0  0  0  0  0  0
   21.2322  -10.2506    0.0000 H   0  0  0  0  0  0  0  0  0  0  0  0
   21.9183   -9.9719    0.0000 H   0  0  0  0  0  0  0  0  0  0  0  0
   22.6218   -8.8905    0.0000 H   0  0  0  0  0  0  0  0  0  0  0  0
  1  2  1  0  0  0  0
  2  3  1  0  0  0  0
  3  4  1  0  0  0  0
  4  5  1  0  0  0  0
  5  6  1  0  0  0  0
  6  7  1  0  0  0  0
  7  8  1  0  0  0  0
  9  8  1  0  0  0  0
  9 10  2  0  0  0  0
 10 11  1  0  0  0  0
 11 12  1  0  0  0  0
 12 13  1  0  0  0  0
 13 14  1  0  0  0  0
 14 15  1  0  0  0  0
 15 16  1  0  0  0  0
 16 17  1  0  0  0  0
 17 18  1  0  0  0  0
 18 19  2  0  0  0  0
 18 20  1  0  0  0  0
 20 21  1  0  0  0  0
 21 22  1  0  0  0  0
 22 23  1  0  0  0  0
 23 24  1  0  0  0  0
 24 25  1  0  0  0  0
 25 26  1  0  0  0  0
 26 27  1  0  0  0  0
 27 28  1  0  0  0  0
 28 29  1  0  0  0  0
 25 30  1  0  0  0  0
 30 31  1  0  0  0  0
 31 32  1  0  0  0  0
 32 33  1  0  0  0  0
 33 34  1  0  0  0  0
 30 34  1  0  0  0  0
 34 35  1  0  0  0  0
 35 36  1  0  0  0  0
 36 37  1  0  0  0  0
 37 38  1  0  0  0  0
 32 39  1  0  0  0  0
 39 40  1  0  0  0  0
 40 41  1  0  0  0  0
 41 42  1  0  0  0  0
  1 43  1  0  0  0  0
  1 44  1  0  0  0  0
  1 45  1  0  0  0  0
  2 46  1  0  0  0  0
  2 47  1  0  0  0  0
  3 48  1  0  0  0  0
  3 49  1  0  0  0  0
  4 50  1  0  0  0  0
  4 51  1  0  0  0  0
  5 52  1  0  0  0  0
  5 53  1  0  0  0  0
  6 54  1  0  0  0  0
  6 55  1  0  0  0  0
  7 56  1  0  0  0  0
  7 57  1  0  0  0  0
  8 58  1  0  0  0  0
  8 59  1  0  0  0  0
  9 60  1  4  0  0  0
 10 61  1  0  0  0  0
 11 62  1  0  0  0  0
 11 63  1  0  0  0  0
 12 64  1  0  0  0  0
 12 65  1  0  0  0  0
 13 66  1  0  0  0  0
 13 67  1  0  0  0  0
 14 68  1  0  0  0  0
 14 69  1  0  0  0  0
 15 70  1  0  0  0  0
 15 71  1  0  0  0  0
 16 72  1  0  0  0  0
 16 73  1  0  0  0  0
 17 74  1  0  0  0  0
 17 75  1  0  0  0  0
 21 76  1  0  0  0  0
 21 77  1  0  0  0  0
 22 78  1  0  0  0  0
 22 79  1  0  0  0  0
 24 80  1  0  0  0  0
 24 81  1  0  0  0  0
 25 82  1  0  0  0  0
 27 83  1  0  0  0  0
 27 84  1  0  0  0  0
 28 85  1  0  0  0  0
 28 86  1  0  0  0  0
 29 87  1  0  0  0  0
 30 88  1  0  0  0  0
 32 89  1  0  0  0  0
 33 90  1  0  0  0  0
 33 91  1  0  0  0  0
 34 92  1  0  0  0  0
 36 93  1  0  0  0  0
 36 94  1  0  0  0  0
 37 95  1  0  0  0  0
 37 96  1  0  0  0  0
 38 97  1  0  0  0  0
 40 98  1  0  0  0  0
 40 99  1  0  0  0  0
 41100  1  0  0  0  0
 41101  1  0  0  0  0
 42102  1  0  0  0  0
M  END
>  <InChIKey>
InChI=1S/C32H60O10/c1-2-3-4-5-6-7-8-9-10-11-12-13-14-15-16-17-30(36)40-25-24-37-27-29(39-22-19-34)32-28(38-21-18-33)26-31(42-32)41-23-20-35/h9-10,28-29,31-35H,2-8,11-27H2,1H3

>  <CASRN>
9005-65-6

> <Outcome>
1

>  <Index>
2687

>  <StandardizerResult>
Clear Stereo (ID: ClearStereo)
Wedge Clean (ID: WedgeClean)
Mesomerize (ID: Mesomerize)
Tautomerize (ID: Tautomerize)
Add Explicit Hydrogens (ID: AddExplicitH)
Neutralize (ID: Neutralize)
Clean 2D (ID: Clean2D)

> <knn Distance>


> <CpId>
2687

$$$$
2690
  Mrv1532301301811342D          

 11 10  0  0  0  0            999 V2000
    1.2391    2.1434    0.0000 C   0  0  0  0  0  0  0  0  0  0  0  0
    0.8266    1.4289    0.0000 C   0  0  0  0  0  0  0  0  0  0  0  0
    1.2391    0.7145    0.0000 O   0  0  0  0  0  0  0  0  0  0  0  0
    0.8266   -0.0000    0.0000 C   0  0  0  0  0  0  0  0  0  0  0  0
    1.2391   -0.7145    0.0000 Cl  0  0  0  0  0  0  0  0  0  0  0  0
    0.0016   -0.0000    0.0000 O   0  0  0  0  0  0  0  0  0  0  0  0
    1.9536    1.7309    0.0000 H   0  0  0  0  0  0  0  0  0  0  0  0
    1.6516    2.8579    0.0000 H   0  0  0  0  0  0  0  0  0  0  0  0
    0.5246    2.5559    0.0000 H   0  0  0  0  0  0  0  0  0  0  0  0
    0.0894    1.7992    0.0000 H   0  0  0  0  0  0  0  0  0  0  0  0
    0.0894    1.0587    0.0000 H   0  0  0  0  0  0  0  0  0  0  0  0
  1  2  1  0  0  0  0
  2  3  1  0  0  0  0
  3  4  1  0  0  0  0
  4  5  1  0  0  0  0
  4  6  2  0  0  0  0
  1  7  1  0  0  0  0
  1  8  1  0  0  0  0
  1  9  1  0  0  0  0
  2 10  1  0  0  0  0
  2 11  1  0  0  0  0
M  END
>  <InChIKey>
InChI=1S/C3H5ClO2/c1-2-6-3(4)5/h2H2,1H3

>  <CASRN>
541-41-3

> <Outcome>
1

>  <Index>
2690

>  <StandardizerResult>
Clear Stereo (ID: ClearStereo)
Wedge Clean (ID: WedgeClean)
Mesomerize (ID: Mesomerize)
Tautomerize (ID: Tautomerize)
Add Explicit Hydrogens (ID: AddExplicitH)
Neutralize (ID: Neutralize)
Clean 2D (ID: Clean2D)

> <knn Distance>


> <CpId>
2690

$$$$
2692
  Mrv1532301301811342D          

 11 11  0  0  0  0            999 V2000
    0.1831   -1.1963    0.0000 O   0  0  0  0  0  0  0  0  0  0  0  0
    0.6680   -0.5289    0.0000 C   0  0  0  0  0  0  0  0  0  0  0  0
    0.4131    0.2557    0.0000 C   0  0  0  0  0  0  0  0  0  0  0  0
    1.0805    0.7407    0.0000 C   0  0  0  0  0  0  0  0  0  0  0  0
    1.7480    0.2557    0.0000 C   0  0  0  0  0  0  0  0  0  0  0  0
    2.5326    0.5107    0.0000 O   0  0  0  0  0  0  0  0  0  0  0  0
    1.4930   -0.5289    0.0000 O   0  0  0  0  0  0  0  0  0  0  0  0
   -0.1600    0.8492    0.0000 H   0  0  0  0  0  0  0  0  0  0  0  0
   -0.3994    0.1125    0.0000 H   0  0  0  0  0  0  0  0  0  0  0  0
    1.4679    1.4691    0.0000 H   0  0  0  0  0  0  0  0  0  0  0  0
    0.6932    1.4691    0.0000 H   0  0  0  0  0  0  0  0  0  0  0  0
  1  2  2  0  0  0  0
  2  3  1  0  0  0  0
  3  4  1  0  0  0  0
  4  5  1  0  0  0  0
  5  6  2  0  0  0  0
  5  7  1  0  0  0  0
  2  7  1  0  0  0  0
  3  8  1  0  0  0  0
  3  9  1  0  0  0  0
  4 10  1  0  0  0  0
  4 11  1  0  0  0  0
M  END
>  <InChIKey>
InChI=1S/C4H4O3/c5-3-1-2-4(6)7-3/h1-2H2

>  <CASRN>
108-30-5

> <Outcome>
1

>  <Index>
2692

>  <StandardizerResult>
Clear Stereo (ID: ClearStereo)
Wedge Clean (ID: WedgeClean)
Mesomerize (ID: Mesomerize)
Tautomerize (ID: Tautomerize)
Add Explicit Hydrogens (ID: AddExplicitH)
Neutralize (ID: Neutralize)
Clean 2D (ID: Clean2D)

> <knn Distance>


> <CpId>
2692

$$$$
2694
  Mrv1532301301811342D          

 37 40  0  0  0  0            999 V2000
   -0.0203    2.4637    0.0000 O   0  0  0  0  0  0  0  0  0  0  0  0
    0.6942    2.0512    0.0000 C   0  0  0  0  0  0  0  0  0  0  0  0
    0.2093    1.3838    0.0000 O   0  0  0  0  0  0  0  0  0  0  0  0
    1.4086    2.4637    0.0000 C   0  0  0  0  0  0  0  0  0  0  0  0
    1.4086    3.2887    0.0000 C   0  0  0  0  0  0  0  0  0  0  0  0
    0.6942    3.7012    0.0000 Cl  0  0  0  0  0  0  0  0  0  0  0  0
    2.1231    3.7012    0.0000 C   0  0  0  0  0  0  0  0  0  0  0  0
    2.1231    4.5262    0.0000 Cl  0  0  0  0  0  0  0  0  0  0  0  0
    2.8376    3.2887    0.0000 C   0  0  0  0  0  0  0  0  0  0  0  0
    3.5521    3.7012    0.0000 Cl  0  0  0  0  0  0  0  0  0  0  0  0
    2.8376    2.4637    0.0000 C   0  0  0  0  0  0  0  0  0  0  0  0
    3.5521    2.0512    0.0000 Cl  0  0  0  0  0  0  0  0  0  0  0  0
    2.1231    2.0512    0.0000 C   0  0  0  0  0  0  0  0  0  0  0  0
    2.1231    1.2262    0.0000 C   0  0  0  0  0  0  0  0  0  0  0  0
    2.8376    0.8137    0.0000 C   0  0  0  0  0  0  0  0  0  0  0  0
    3.5521    1.2262    0.0000 C   0  0  0  0  0  0  0  0  0  0  0  0
    4.2665    0.8137    0.0000 C   0  0  0  0  0  0  0  0  0  0  0  0
    4.9810    1.2262    0.0000 Br  0  0  0  0  0  0  0  0  0  0  0  0
    4.2665   -0.0113    0.0000 C   0  0  0  0  0  0  0  0  0  0  0  0
    4.9810   -0.4238    0.0000 O   0  0  0  0  0  0  0  0  0  0  0  0
    3.5521   -0.4238    0.0000 C   0  0  0  0  0  0  0  0  0  0  0  0
    3.5521   -1.2488    0.0000 Br  0  0  0  0  0  0  0  0  0  0  0  0
    2.8376   -0.0113    0.0000 C   0  0  0  0  0  0  0  0  0  0  0  0
    2.1231   -0.4238    0.0000 O   0  0  0  0  0  0  0  0  0  0  0  0
    1.4086   -0.0113    0.0000 C   0  0  0  0  0  0  0  0  0  0  0  0
    0.6942   -0.4238    0.0000 C   0  0  0  0  0  0  0  0  0  0  0  0
    0.6942   -1.2488    0.0000 Br  0  0  0  0  0  0  0  0  0  0  0  0
   -0.0203   -0.0113    0.0000 C   0  0  0  0  0  0  0  0  0  0  0  0
   -0.7348   -0.4238    0.0000 O   0  0  0  0  0  0  0  0  0  0  0  0
   -0.0203    0.8137    0.0000 C   0  0  0  0  0  0  0  0  0  0  0  0
   -0.7348    1.2262    0.0000 Br  0  0  0  0  0  0  0  0  0  0  0  0
    0.6942    1.2262    0.0000 C   0  0  0  0  0  0  0  0  0  0  0  0
    1.4086    0.8137    0.0000 C   0  0  0  0  0  0  0  0  0  0  0  0
   -0.0203    3.2887    0.0000 H   0  0  0  0  0  0  0  0  0  0  0  0
    2.8376    1.6387    0.0000 H   0  0  0  0  0  0  0  0  0  0  0  0
    4.9810   -1.2488    0.0000 H   0  0  0  0  0  0  0  0  0  0  0  0
    1.4086    1.6387    0.0000 H   0  0  0  0  0  0  0  0  0  0  0  0
  1  2  1  0  0  0  0
  2  3  2  0  0  0  0
  2  4  1  0  0  0  0
  4  5  4  0  0  0  0
  5  6  1  0  0  0  0
  5  7  4  0  0  0  0
  7  8  1  0  0  0  0
  7  9  4  0  0  0  0
  9 10  1  0  0  0  0
  9 11  4  0  0  0  0
 11 12  1  0  0  0  0
 11 13  4  0  0  0  0
  4 13  4  0  0  0  0
 13 14  1  0  0  0  0
 14 15  1  0  0  0  0
 15 16  4  0  0  0  0
 16 17  4  0  0  0  0
 17 18  1  0  0  0  0
 17 19  4  0  0  0  0
 19 20  1  0  0  0  0
 19 21  4  0  0  0  0
 21 22  1  0  0  0  0
 21 23  4  0  0  0  0
 15 23  4  0  0  0  0
 23 24  1  0  0  0  0
 24 25  1  0  0  0  0
 25 26  2  0  0  0  0
 26 27  1  0  0  0  0
 26 28  1  0  0  0  0
 28 29  2  0  0  0  0
 28 30  1  0  0  0  0
 30 31  1  0  0  0  0
 30 32  2  0  0  0  0
 32 33  1  0  0  0  0
 14 33  2  0  0  0  0
 25 33  1  0  0  0  0
  1 34  1  0  0  0  0
 16 35  1  0  0  0  0
 20 36  1  0  0  0  0
 32 37  1  0  0  0  0
M  END
>  <InChIKey>
InChI=1S/C20H4Br4Cl4O5/c21-5-1-3-7(8-9(20(31)32)13(26)15(28)14(27)12(8)25)4-2-6(22)17(30)11(24)19(4)33-18(3)10(23)16(5)29/h1-2,29H,(H,31,32)

>  <CASRN>
4618-23-9

> <Outcome>
1

>  <Index>
2694

>  <StandardizerResult>
Dearomatize (ID: Dearomatize)
Clear Stereo (ID: ClearStereo)
Wedge Clean (ID: WedgeClean)
Mesomerize (ID: Mesomerize)
Tautomerize (ID: Tautomerize)
Aromatize (ID: Aromatize)
Add Explicit Hydrogens (ID: AddExplicitH)
Neutralize (ID: Neutralize)
Clean 2D (ID: Clean2D)

> <knn Distance>


> <CpId>
2694

$$$$
2700
  Mrv1532301301811342D          

 14 14  0  0  0  0            999 V2000
    0.7145    2.0625    0.0000 F   0  0  0  0  0  0  0  0  0  0  0  0
    0.7145    1.2375    0.0000 C   0  0  0  0  0  0  0  0  0  0  0  0
    1.4289    0.8250    0.0000 C   0  0  0  0  0  0  0  0  0  0  0  0
    1.4289    0.0000    0.0000 C   0  0  0  0  0  0  0  0  0  0  0  0
    0.7145   -0.4125    0.0000 C   0  0  0  0  0  0  0  0  0  0  0  0
   -0.0000    0.0000    0.0000 C   0  0  0  0  0  0  0  0  0  0  0  0
   -0.7145   -0.4125    0.0000 F   0  0  0  0  0  0  0  0  0  0  0  0
   -0.0000    0.8250    0.0000 C   0  0  0  0  0  0  0  0  0  0  0  0
    0.7145   -1.2375    0.0000 N   0  0  0  0  0  0  0  0  0  0  0  0
    1.4289   -1.6500    0.0000 O   0  0  0  0  0  0  0  0  0  0  0  0
   -0.0000   -1.6500    0.0000 O   0  0  0  0  0  0  0  0  0  0  0  0
    2.1434    1.2375    0.0000 H   0  0  0  0  0  0  0  0  0  0  0  0
    2.1434   -0.4125    0.0000 H   0  0  0  0  0  0  0  0  0  0  0  0
   -0.7145    1.2375    0.0000 H   0  0  0  0  0  0  0  0  0  0  0  0
  1  2  1  0  0  0  0
  2  3  4  0  0  0  0
  3  4  4  0  0  0  0
  4  5  4  0  0  0  0
  5  6  4  0  0  0  0
  6  7  1  0  0  0  0
  6  8  4  0  0  0  0
  2  8  4  0  0  0  0
  5  9  1  0  0  0  0
  9 10  2  0  0  0  0
  9 11  2  0  0  0  0
  3 12  1  0  0  0  0
  4 13  1  0  0  0  0
  8 14  1  0  0  0  0
M  END
>  <InChIKey>
InChI=1S/C6H3F2NO2/c7-4-1-2-6(9(10)11)5(8)3-4/h1-3H

>  <CASRN>
446-35-5  446-35-5

> <Outcome>
1

>  <Index>
2700

>  <StandardizerResult>
Dearomatize (ID: Dearomatize)
Clear Stereo (ID: ClearStereo)
Wedge Clean (ID: WedgeClean)
Mesomerize (ID: Mesomerize)
Tautomerize (ID: Tautomerize)
Aromatize (ID: Aromatize)
Add Explicit Hydrogens (ID: AddExplicitH)
Neutralize (ID: Neutralize)
Clean 2D (ID: Clean2D)

> <knn Distance>


> <CpId>
2700

$$$$
2704
  Mrv1532301301811342D          

 26 26  0  0  0  0            999 V2000
   -0.7145    3.7125    0.0000 C   0  0  0  0  0  0  0  0  0  0  0  0
   -0.7145    2.8875    0.0000 O   0  0  0  0  0  0  0  0  0  0  0  0
   -0.0000    2.4750    0.0000 P   0  0  0  0  0  0  0  0  0  0  0  0
   -0.4125    1.7605    0.0000 S   0  0  0  0  0  0  0  0  0  0  0  0
    0.4125    3.1895    0.0000 O   0  0  0  0  0  0  0  0  0  0  0  0
    1.2375    3.1895    0.0000 C   0  0  0  0  0  0  0  0  0  0  0  0
    0.7145    2.0625    0.0000 O   0  0  0  0  0  0  0  0  0  0  0  0
    0.7145    1.2375    0.0000 C   0  0  0  0  0  0  0  0  0  0  0  0
    1.4289    0.8250    0.0000 C   0  0  0  0  0  0  0  0  0  0  0  0
    1.4289    0.0000    0.0000 C   0  0  0  0  0  0  0  0  0  0  0  0
    0.7145   -0.4125    0.0000 C   0  0  0  0  0  0  0  0  0  0  0  0
   -0.0000    0.0000    0.0000 C   0  0  0  0  0  0  0  0  0  0  0  0
   -0.0000    0.8250    0.0000 C   0  0  0  0  0  0  0  0  0  0  0  0
    0.7145   -1.2375    0.0000 N   0  0  0  0  0  0  0  0  0  0  0  0
    1.4289   -1.6500    0.0000 O   0  0  0  0  0  0  0  0  0  0  0  0
   -0.0000   -1.6500    0.0000 O   0  0  0  0  0  0  0  0  0  0  0  0
    0.1105    3.7125    0.0000 H   0  0  0  0  0  0  0  0  0  0  0  0
   -0.7145    4.5375    0.0000 H   0  0  0  0  0  0  0  0  0  0  0  0
   -1.5395    3.7125    0.0000 H   0  0  0  0  0  0  0  0  0  0  0  0
    1.2375    2.3645    0.0000 H   0  0  0  0  0  0  0  0  0  0  0  0
    2.0625    3.1895    0.0000 H   0  0  0  0  0  0  0  0  0  0  0  0
    1.2375    4.0145    0.0000 H   0  0  0  0  0  0  0  0  0  0  0  0
    2.1434    1.2375    0.0000 H   0  0  0  0  0  0  0  0  0  0  0  0
    2.1434   -0.4125    0.0000 H   0  0  0  0  0  0  0  0  0  0  0  0
   -0.7145   -0.4125    0.0000 H   0  0  0  0  0  0  0  0  0  0  0  0
   -0.7145    1.2375    0.0000 H   0  0  0  0  0  0  0  0  0  0  0  0
  1  2  1  0  0  0  0
  2  3  1  0  0  0  0
  3  4  2  0  0  0  0
  3  5  1  0  0  0  0
  5  6  1  0  0  0  0
  3  7  1  0  0  0  0
  7  8  1  0  0  0  0
  8  9  4  0  0  0  0
  9 10  4  0  0  0  0
 10 11  4  0  0  0  0
 11 12  4  0  0  0  0
 12 13  4  0  0  0  0
  8 13  4  0  0  0  0
 11 14  1  0  0  0  0
 14 15  2  0  0  0  0
 14 16  2  0  0  0  0
  1 17  1  0  0  0  0
  1 18  1  0  0  0  0
  1 19  1  0  0  0  0
  6 20  1  0  0  0  0
  6 21  1  0  0  0  0
  6 22  1  0  0  0  0
  9 23  1  0  0  0  0
 10 24  1  0  0  0  0
 12 25  1  0  0  0  0
 13 26  1  0  0  0  0
M  END
>  <InChIKey>
InChI=1S/C8H10NO5PS/c1-12-15(16,13-2)14-8-5-3-7(4-6-8)9(10)11/h3-6H,1-2H3

>  <CASRN>
298-00-0

> <Outcome>
1

>  <Index>
2704

>  <StandardizerResult>
Dearomatize (ID: Dearomatize)
Clear Stereo (ID: ClearStereo)
Wedge Clean (ID: WedgeClean)
Mesomerize (ID: Mesomerize)
Tautomerize (ID: Tautomerize)
Aromatize (ID: Aromatize)
Add Explicit Hydrogens (ID: AddExplicitH)
Neutralize (ID: Neutralize)
Clean 2D (ID: Clean2D)

> <knn Distance>


> <CpId>
2704

$$$$
2705
  Mrv1532301301811342D          

 62 61  0  0  0  0            999 V2000
    6.7083    4.7194    0.0000 C   0  0  0  0  0  0  0  0  0  0  0  0
    7.4227    4.3069    0.0000 C   0  0  0  0  0  0  0  0  0  0  0  0
    8.1372    4.7194    0.0000 C   0  0  0  0  0  0  0  0  0  0  0  0
    8.8517    4.3069    0.0000 C   0  0  0  0  0  0  0  0  0  0  0  0
    9.5662    4.7194    0.0000 C   0  0  0  0  0  0  0  0  0  0  0  0
   10.2806    4.3069    0.0000 C   0  0  0  0  0  0  0  0  0  0  0  0
   10.9951    4.7194    0.0000 C   0  0  0  0  0  0  0  0  0  0  0  0
   11.7096    4.3069    0.0000 C   0  0  0  0  0  0  0  0  0  0  0  0
   12.4240    4.7194    0.0000 C   0  0  0  0  0  0  0  0  0  0  0  0
   13.1385    4.3069    0.0000 C   0  0  0  0  0  0  0  0  0  0  0  0
   13.8530    4.7194    0.0000 C   0  0  0  0  0  0  0  0  0  0  0  0
   14.5675    4.3069    0.0000 C   0  0  0  0  0  0  0  0  0  0  0  0
   15.2819    4.7194    0.0000 C   0  0  0  0  0  0  0  0  0  0  0  0
   15.9964    4.3069    0.0000 C   0  0  0  0  0  0  0  0  0  0  0  0
   16.7109    4.7194    0.0000 C   0  0  0  0  0  0  0  0  0  0  0  0
   17.4253    4.3069    0.0000 C   0  0  0  0  0  0  0  0  0  0  0  0
   18.1398    4.7194    0.0000 N   0  3  0  0  0  0  0  0  0  0  0  0
   18.8543    5.1319    0.0000 C   0  0  0  0  0  0  0  0  0  0  0  0
   18.5523    4.0049    0.0000 C   0  0  0  0  0  0  0  0  0  0  0  0
   17.7273    5.4338    0.0000 C   0  0  0  0  0  0  0  0  0  0  0  0
    7.1208    5.4338    0.0000 H   0  0  0  0  0  0  0  0  0  0  0  0
    5.9938    5.1319    0.0000 H   0  0  0  0  0  0  0  0  0  0  0  0
    6.2958    4.0049    0.0000 H   0  0  0  0  0  0  0  0  0  0  0  0
    7.0525    3.5696    0.0000 H   0  0  0  0  0  0  0  0  0  0  0  0
    7.7930    3.5696    0.0000 H   0  0  0  0  0  0  0  0  0  0  0  0
    8.5075    5.4566    0.0000 H   0  0  0  0  0  0  0  0  0  0  0  0
    7.7670    5.4566    0.0000 H   0  0  0  0  0  0  0  0  0  0  0  0
    8.4814    3.5696    0.0000 H   0  0  0  0  0  0  0  0  0  0  0  0
    9.2219    3.5696    0.0000 H   0  0  0  0  0  0  0  0  0  0  0  0
    9.9364    5.4566    0.0000 H   0  0  0  0  0  0  0  0  0  0  0  0
    9.1959    5.4566    0.0000 H   0  0  0  0  0  0  0  0  0  0  0  0
    9.9104    3.5696    0.0000 H   0  0  0  0  0  0  0  0  0  0  0  0
   10.6509    3.5696    0.0000 H   0  0  0  0  0  0  0  0  0  0  0  0
   11.3654    5.4566    0.0000 H   0  0  0  0  0  0  0  0  0  0  0  0
   10.6248    5.4566    0.0000 H   0  0  0  0  0  0  0  0  0  0  0  0
   11.3393    3.5696    0.0000 H   0  0  0  0  0  0  0  0  0  0  0  0
   12.0798    3.5696    0.0000 H   0  0  0  0  0  0  0  0  0  0  0  0
   12.7943    5.4566    0.0000 H   0  0  0  0  0  0  0  0  0  0  0  0
   12.0538    5.4566    0.0000 H   0  0  0  0  0  0  0  0  0  0  0  0
   12.7683    3.5696    0.0000 H   0  0  0  0  0  0  0  0  0  0  0  0
   13.5088    3.5696    0.0000 H   0  0  0  0  0  0  0  0  0  0  0  0
   14.2232    5.4566    0.0000 H   0  0  0  0  0  0  0  0  0  0  0  0
   13.4827    5.4566    0.0000 H   0  0  0  0  0  0  0  0  0  0  0  0
   14.1972    3.5696    0.0000 H   0  0  0  0  0  0  0  0  0  0  0  0
   14.9377    3.5696    0.0000 H   0  0  0  0  0  0  0  0  0  0  0  0
   15.6522    5.4566    0.0000 H   0  0  0  0  0  0  0  0  0  0  0  0
   14.9117    5.4566    0.0000 H   0  0  0  0  0  0  0  0  0  0  0  0
   15.6261    3.5696    0.0000 H   0  0  0  0  0  0  0  0  0  0  0  0
   16.3667    3.5696    0.0000 H   0  0  0  0  0  0  0  0  0  0  0  0
   17.0811    5.4566    0.0000 H   0  0  0  0  0  0  0  0  0  0  0  0
   16.3406    5.4566    0.0000 H   0  0  0  0  0  0  0  0  0  0  0  0
   17.0551    3.5696    0.0000 H   0  0  0  0  0  0  0  0  0  0  0  0
   17.7956    3.5696    0.0000 H   0  0  0  0  0  0  0  0  0  0  0  0
   19.2668    4.4174    0.0000 H   0  0  0  0  0  0  0  0  0  0  0  0
   19.5688    5.5444    0.0000 H   0  0  0  0  0  0  0  0  0  0  0  0
   18.4418    5.8463    0.0000 H   0  0  0  0  0  0  0  0  0  0  0  0
   18.3378    3.2083    0.0000 H   0  0  0  0  0  0  0  0  0  0  0  0
   18.9642    3.2901    0.0000 H   0  0  0  0  0  0  0  0  0  0  0  0
   19.3491    3.7911    0.0000 H   0  0  0  0  0  0  0  0  0  0  0  0
   17.8801    6.2446    0.0000 H   0  0  0  0  0  0  0  0  0  0  0  0
   17.2120    6.0781    0.0000 H   0  0  0  0  0  0  0  0  0  0  0  0
   17.3023    4.7268    0.0000 H   0  0  0  0  0  0  0  0  0  0  0  0
  1  2  1  0  0  0  0
  2  3  1  0  0  0  0
  3  4  1  0  0  0  0
  4  5  1  0  0  0  0
  5  6  1  0  0  0  0
  6  7  1  0  0  0  0
  7  8  1  0  0  0  0
  8  9  1  0  0  0  0
  9 10  1  0  0  0  0
 10 11  1  0  0  0  0
 11 12  1  0  0  0  0
 12 13  1  0  0  0  0
 13 14  1  0  0  0  0
 14 15  1  0  0  0  0
 15 16  1  0  0  0  0
 16 17  1  0  0  0  0
 17 18  1  0  0  0  0
 17 19  1  0  0  0  0
 17 20  1  0  0  0  0
  1 21  1  0  0  0  0
  1 22  1  0  0  0  0
  1 23  1  0  0  0  0
  2 24  1  0  0  0  0
  2 25  1  0  0  0  0
  3 26  1  0  0  0  0
  3 27  1  0  0  0  0
  4 28  1  0  0  0  0
  4 29  1  0  0  0  0
  5 30  1  0  0  0  0
  5 31  1  0  0  0  0
  6 32  1  0  0  0  0
  6 33  1  0  0  0  0
  7 34  1  0  0  0  0
  7 35  1  0  0  0  0
  8 36  1  0  0  0  0
  8 37  1  0  0  0  0
  9 38  1  0  0  0  0
  9 39  1  0  0  0  0
 10 40  1  0  0  0  0
 10 41  1  0  0  0  0
 11 42  1  0  0  0  0
 11 43  1  0  0  0  0
 12 44  1  0  0  0  0
 12 45  1  0  0  0  0
 13 46  1  0  0  0  0
 13 47  1  0  0  0  0
 14 48  1  0  0  0  0
 14 49  1  0  0  0  0
 15 50  1  0  0  0  0
 15 51  1  0  0  0  0
 16 52  1  0  0  0  0
 16 53  1  0  0  0  0
 18 54  1  0  0  0  0
 18 55  1  0  0  0  0
 18 56  1  0  0  0  0
 19 57  1  0  0  0  0
 19 58  1  0  0  0  0
 19 59  1  0  0  0  0
 20 60  1  0  0  0  0
 20 61  1  0  0  0  0
 20 62  1  0  0  0  0
M  CHG  1  17   1
M  END
>  <InChIKey>
InChI=1S/C19H42N/c1-5-6-7-8-9-10-11-12-13-14-15-16-17-18-19-20(2,3)4/h5-19H2,1-4H3/q+1

>  <UN GHS>
1

>  <CASRN>
112-02-7 57-09-0

> <Outcome>
1

>  <Index>
2705

>  <StandardizerResult>
Clear Stereo (ID: ClearStereo)
Wedge Clean (ID: WedgeClean)
Mesomerize (ID: Mesomerize)
Tautomerize (ID: Tautomerize)
Add Explicit Hydrogens (ID: AddExplicitH)
Clean 2D (ID: Clean2D)

> <knn Distance>


> <CpId>
2705

$$$$
2713
  Mrv1532301301811342D          

 34 35  0  0  0  0            999 V2000
    1.4312    0.0429    0.0000 C   0  0  0  0  0  0  0  0  0  0  0  0
    0.7167   -0.3696    0.0000 N   0  0  0  0  0  0  0  0  0  0  0  0
    0.0022    0.0429    0.0000 C   0  0  0  0  0  0  0  0  0  0  0  0
    0.7167   -1.1946    0.0000 C   0  0  0  0  0  0  0  0  0  0  0  0
    1.3841   -1.6795    0.0000 C   0  0  0  0  0  0  0  0  0  0  0  0
    2.1688   -1.4246    0.0000 C   0  0  0  0  0  0  0  0  0  0  0  0
    1.1292   -2.4642    0.0000 N   0  0  0  0  0  0  0  0  0  0  0  0
    1.6141   -3.1316    0.0000 C   0  0  0  0  0  0  0  0  0  0  0  0
    0.3042   -2.4642    0.0000 N   0  0  0  0  0  0  0  0  0  0  0  0
   -0.1807   -3.1316    0.0000 C   0  0  0  0  0  0  0  0  0  0  0  0
    0.1548   -3.8853    0.0000 C   0  0  0  0  0  0  0  0  0  0  0  0
   -0.3301   -4.5527    0.0000 C   0  0  0  0  0  0  0  0  0  0  0  0
   -1.1506   -4.4665    0.0000 C   0  0  0  0  0  0  0  0  0  0  0  0
   -1.4861   -3.7128    0.0000 C   0  0  0  0  0  0  0  0  0  0  0  0
   -1.0012   -3.0454    0.0000 C   0  0  0  0  0  0  0  0  0  0  0  0
    0.0493   -1.6795    0.0000 C   0  0  0  0  0  0  0  0  0  0  0  0
   -0.7354   -1.4246    0.0000 O   0  0  0  0  0  0  0  0  0  0  0  0
    1.8437   -0.6716    0.0000 H   0  0  0  0  0  0  0  0  0  0  0  0
    2.1456    0.4554    0.0000 H   0  0  0  0  0  0  0  0  0  0  0  0
    1.0187    0.7574    0.0000 H   0  0  0  0  0  0  0  0  0  0  0  0
    0.4147    0.7574    0.0000 H   0  0  0  0  0  0  0  0  0  0  0  0
   -0.7122    0.4554    0.0000 H   0  0  0  0  0  0  0  0  0  0  0  0
   -0.4103   -0.6716    0.0000 H   0  0  0  0  0  0  0  0  0  0  0  0
    2.1233   -2.2483    0.0000 H   0  0  0  0  0  0  0  0  0  0  0  0
    2.9205   -1.7644    0.0000 H   0  0  0  0  0  0  0  0  0  0  0  0
    2.7571   -0.8462    0.0000 H   0  0  0  0  0  0  0  0  0  0  0  0
    0.9467   -3.6165    0.0000 H   0  0  0  0  0  0  0  0  0  0  0  0
    2.0991   -3.7990    0.0000 H   0  0  0  0  0  0  0  0  0  0  0  0
    2.2816   -2.6467    0.0000 H   0  0  0  0  0  0  0  0  0  0  0  0
    0.6441   -4.5495    0.0000 H   0  0  0  0  0  0  0  0  0  0  0  0
    0.0055   -5.3064    0.0000 H   0  0  0  0  0  0  0  0  0  0  0  0
   -1.6355   -5.1339    0.0000 H   0  0  0  0  0  0  0  0  0  0  0  0
   -2.3066   -3.6266    0.0000 H   0  0  0  0  0  0  0  0  0  0  0  0
   -1.3368   -2.2917    0.0000 H   0  0  0  0  0  0  0  0  0  0  0  0
  1  2  1  0  0  0  0
  2  3  1  0  0  0  0
  2  4  1  0  0  0  0
  4  5  2  0  0  0  0
  5  6  1  0  0  0  0
  5  7  1  0  0  0  0
  7  8  1  0  0  0  0
  7  9  1  0  0  0  0
  9 10  1  0  0  0  0
 10 11  4  0  0  0  0
 11 12  4  0  0  0  0
 12 13  4  0  0  0  0
 13 14  4  0  0  0  0
 14 15  4  0  0  0  0
 10 15  4  0  0  0  0
  9 16  1  0  0  0  0
  4 16  1  0  0  0  0
 16 17  2  0  0  0  0
  1 18  1  0  0  0  0
  1 19  1  0  0  0  0
  1 20  1  0  0  0  0
  3 21  1  0  0  0  0
  3 22  1  0  0  0  0
  3 23  1  0  0  0  0
  6 24  1  0  0  0  0
  6 25  1  0  0  0  0
  6 26  1  0  0  0  0
  8 27  1  0  0  0  0
  8 28  1  0  0  0  0
  8 29  1  0  0  0  0
 11 30  1  0  0  0  0
 12 31  1  0  0  0  0
 13 32  1  0  0  0  0
 14 33  1  0  0  0  0
 15 34  1  0  0  0  0
M  END
>  <InChIKey>
InChI=1S/C13H17N3O/c1-10-12(14(2)3)13(17)16(15(10)4)11-8-6-5-7-9-11/h5-9H,1-4H3

>  <CASRN>
58-15-1

> <Outcome>
1

>  <Index>
2713

>  <StandardizerResult>
Dearomatize (ID: Dearomatize)
Clear Stereo (ID: ClearStereo)
Wedge Clean (ID: WedgeClean)
Mesomerize (ID: Mesomerize)
Tautomerize (ID: Tautomerize)
Aromatize (ID: Aromatize)
Add Explicit Hydrogens (ID: AddExplicitH)
Neutralize (ID: Neutralize)
Clean 2D (ID: Clean2D)

> <knn Distance>


> <CpId>
2713

$$$$
2716
  Mrv1532301301811342D          

 13 13  0  0  0  0            999 V2000
    0.7145    2.0625    0.0000 S   0  0  0  0  0  0  0  0  0  0  0  0
    0.7145    1.2375    0.0000 C   0  0  0  0  0  0  0  0  0  0  0  0
    1.4289    0.8250    0.0000 C   0  0  0  0  0  0  0  0  0  0  0  0
    1.4289    0.0000    0.0000 C   0  0  0  0  0  0  0  0  0  0  0  0
    0.7145   -0.4125    0.0000 C   0  0  0  0  0  0  0  0  0  0  0  0
    0.0000    0.0000    0.0000 C   0  0  0  0  0  0  0  0  0  0  0  0
    0.0000    0.8250    0.0000 C   0  0  0  0  0  0  0  0  0  0  0  0
    1.4289    2.4750    0.0000 H   0  0  0  0  0  0  0  0  0  0  0  0
    2.1434    1.2375    0.0000 H   0  0  0  0  0  0  0  0  0  0  0  0
    2.1434   -0.4125    0.0000 H   0  0  0  0  0  0  0  0  0  0  0  0
    0.7145   -1.2375    0.0000 H   0  0  0  0  0  0  0  0  0  0  0  0
   -0.7145   -0.4125    0.0000 H   0  0  0  0  0  0  0  0  0  0  0  0
   -0.7145    1.2375    0.0000 H   0  0  0  0  0  0  0  0  0  0  0  0
  1  2  1  0  0  0  0
  2  3  4  0  0  0  0
  3  4  4  0  0  0  0
  4  5  4  0  0  0  0
  5  6  4  0  0  0  0
  6  7  4  0  0  0  0
  2  7  4  0  0  0  0
  1  8  1  0  0  0  0
  3  9  1  0  0  0  0
  4 10  1  0  0  0  0
  5 11  1  0  0  0  0
  6 12  1  0  0  0  0
  7 13  1  0  0  0  0
M  END
>  <InChIKey>
InChI=1S/C6H6S/c7-6-4-2-1-3-5-6/h1-5,7H

>  <CASRN>
108-98-5

> <Outcome>
1

>  <Index>
2716

>  <StandardizerResult>
Dearomatize (ID: Dearomatize)
Clear Stereo (ID: ClearStereo)
Wedge Clean (ID: WedgeClean)
Mesomerize (ID: Mesomerize)
Tautomerize (ID: Tautomerize)
Aromatize (ID: Aromatize)
Add Explicit Hydrogens (ID: AddExplicitH)
Neutralize (ID: Neutralize)
Clean 2D (ID: Clean2D)

> <knn Distance>


> <CpId>
2716

$$$$
2720
  Mrv1532301301811342D          

 19 18  0  0  0  0            999 V2000
    3.3005    1.4281    0.0000 C   0  0  0  0  0  0  0  0  0  0  0  0
    2.4755    1.4281    0.0000 C   0  0  0  0  0  0  0  0  0  0  0  0
    2.0630    0.7137    0.0000 O   0  0  0  0  0  0  0  0  0  0  0  0
    1.2380    0.7137    0.0000 C   0  0  0  0  0  0  0  0  0  0  0  0
    0.8255    1.4281    0.0000 O   0  0  0  0  0  0  0  0  0  0  0  0
    0.8255   -0.0008    0.0000 C   0  0  0  0  0  0  0  0  0  0  0  0
    0.0005   -0.0008    0.0000 C   0  0  0  0  0  0  0  0  0  0  0  0
   -0.4120   -0.7153    0.0000 C   0  0  0  0  0  0  0  0  0  0  0  0
   -0.4120    0.7137    0.0000 O   0  0  0  0  0  0  0  0  0  0  0  0
    3.3005    0.6031    0.0000 H   0  0  0  0  0  0  0  0  0  0  0  0
    4.1255    1.4281    0.0000 H   0  0  0  0  0  0  0  0  0  0  0  0
    3.3005    2.2531    0.0000 H   0  0  0  0  0  0  0  0  0  0  0  0
    2.4275    2.2517    0.0000 H   0  0  0  0  0  0  0  0  0  0  0  0
    1.7862    1.8815    0.0000 H   0  0  0  0  0  0  0  0  0  0  0  0
    1.2380   -0.7153    0.0000 H   0  0  0  0  0  0  0  0  0  0  0  0
   -1.1265   -0.3028    0.0000 H   0  0  0  0  0  0  0  0  0  0  0  0
   -0.8245   -1.4298    0.0000 H   0  0  0  0  0  0  0  0  0  0  0  0
    0.3024   -1.1278    0.0000 H   0  0  0  0  0  0  0  0  0  0  0  0
    0.0005    1.4281    0.0000 H   0  0  0  0  0  0  0  0  0  0  0  0
  1  2  1  0  0  0  0
  2  3  1  0  0  0  0
  3  4  1  0  0  0  0
  4  5  2  0  0  0  0
  6  4  1  4  0  0  0
  6  7  2  0  0  0  0
  7  8  1  0  0  0  0
  7  9  1  0  0  0  0
  1 10  1  0  0  0  0
  1 11  1  0  0  0  0
  1 12  1  0  0  0  0
  2 13  1  0  0  0  0
  2 14  1  0  0  0  0
  6 15  1  0  0  0  0
  8 16  1  0  0  0  0
  8 17  1  0  0  0  0
  8 18  1  0  0  0  0
  9 19  1  0  0  0  0
M  END
>  <InChIKey>
InChI=1S/C6H10O3/c1-3-9-6(8)4-5(2)7/h4,7H,3H2,1-2H3

>  <UN GHS>
Non-irritant

>  <CASRN>
141-97-9

> <Outcome>
1

>  <Index>
2720

>  <StandardizerResult>
Clear Stereo (ID: ClearStereo)
Wedge Clean (ID: WedgeClean)
Mesomerize (ID: Mesomerize)
Tautomerize (ID: Tautomerize)
Add Explicit Hydrogens (ID: AddExplicitH)
Neutralize (ID: Neutralize)
Clean 2D (ID: Clean2D)

> <knn Distance>


> <CpId>
2720

$$$$
2723
  Mrv1532301301811342D          

 10  9  0  0  0  0            999 V2000
    2.5295   -1.2257    0.0000 C   0  0  0  0  0  0  0  0  0  0  0  0
    2.1170   -0.5112    0.0000 N   0  0  0  0  0  0  0  0  0  0  0  0
    1.2920   -0.5112    0.0000 C   0  0  0  0  0  0  0  0  0  0  0  0
    1.8150   -1.6382    0.0000 H   0  0  0  0  0  0  0  0  0  0  0  0
    2.9420   -1.9402    0.0000 H   0  0  0  0  0  0  0  0  0  0  0  0
    3.2439   -0.8132    0.0000 H   0  0  0  0  0  0  0  0  0  0  0  0
    2.5295    0.2033    0.0000 H   0  0  0  0  0  0  0  0  0  0  0  0
    1.2920    0.3138    0.0000 H   0  0  0  0  0  0  0  0  0  0  0  0
    0.4670   -0.5112    0.0000 H   0  0  0  0  0  0  0  0  0  0  0  0
    1.2920   -1.3362    0.0000 H   0  0  0  0  0  0  0  0  0  0  0  0
  1  2  1  0  0  0  0
  2  3  1  0  0  0  0
  1  4  1  0  0  0  0
  1  5  1  0  0  0  0
  1  6  1  0  0  0  0
  2  7  1  0  0  0  0
  3  8  1  0  0  0  0
  3  9  1  0  0  0  0
  3 10  1  0  0  0  0
M  END
>  <InChIKey>
InChI=1S/C2H7N/c1-3-2/h3H,1-2H3

>  <CASRN>
124-40-3

> <Outcome>
1

>  <Index>
2723

>  <StandardizerResult>
Mesomerize (ID: Mesomerize)
Tautomerize (ID: Tautomerize)
Add Explicit Hydrogens (ID: AddExplicitH)
Neutralize (ID: Neutralize)
Clean 2D (ID: Clean2D)

> <knn Distance>


> <CpId>
2723

$$$$
2726
  Mrv1532301301811342D          

 20 19  0  0  0  0            999 V2000
    1.7605    1.8414    0.0000 N   0  0  0  0  0  0  0  0  0  0  0  0
    2.4750    1.4289    0.0000 C   0  0  0  0  0  0  0  0  0  0  0  0
    3.1895    1.8414    0.0000 C   0  0  0  0  0  0  0  0  0  0  0  0
    3.9039    1.4289    0.0000 N   0  0  0  0  0  0  0  0  0  0  0  0
    4.6184    1.8414    0.0000 C   0  0  0  0  0  0  0  0  0  0  0  0
    5.3329    1.4289    0.0000 C   0  0  0  0  0  0  0  0  0  0  0  0
    6.0474    1.8414    0.0000 N   0  0  0  0  0  0  0  0  0  0  0  0
    1.7605    2.6664    0.0000 H   0  0  0  0  0  0  0  0  0  0  0  0
    1.0461    1.4289    0.0000 H   0  0  0  0  0  0  0  0  0  0  0  0
    2.1047    0.6917    0.0000 H   0  0  0  0  0  0  0  0  0  0  0  0
    2.8453    0.6917    0.0000 H   0  0  0  0  0  0  0  0  0  0  0  0
    3.5597    2.5786    0.0000 H   0  0  0  0  0  0  0  0  0  0  0  0
    2.8192    2.5786    0.0000 H   0  0  0  0  0  0  0  0  0  0  0  0
    3.9039    0.6039    0.0000 H   0  0  0  0  0  0  0  0  0  0  0  0
    4.9887    2.5786    0.0000 H   0  0  0  0  0  0  0  0  0  0  0  0
    4.2482    2.5786    0.0000 H   0  0  0  0  0  0  0  0  0  0  0  0
    4.9626    0.6917    0.0000 H   0  0  0  0  0  0  0  0  0  0  0  0
    5.7031    0.6917    0.0000 H   0  0  0  0  0  0  0  0  0  0  0  0
    6.7618    1.4289    0.0000 H   0  0  0  0  0  0  0  0  0  0  0  0
    6.0474    2.6664    0.0000 H   0  0  0  0  0  0  0  0  0  0  0  0
  1  2  1  0  0  0  0
  2  3  1  0  0  0  0
  3  4  1  0  0  0  0
  4  5  1  0  0  0  0
  5  6  1  0  0  0  0
  6  7  1  0  0  0  0
  1  8  1  0  0  0  0
  1  9  1  0  0  0  0
  2 10  1  0  0  0  0
  2 11  1  0  0  0  0
  3 12  1  0  0  0  0
  3 13  1  0  0  0  0
  4 14  1  0  0  0  0
  5 15  1  0  0  0  0
  5 16  1  0  0  0  0
  6 17  1  0  0  0  0
  6 18  1  0  0  0  0
  7 19  1  0  0  0  0
  7 20  1  0  0  0  0
M  END
>  <InChIKey>
InChI=1S/C4H13N3/c5-1-3-7-4-2-6/h7H,1-6H2

>  <CASRN>
111-40-0

> <Outcome>
1

>  <Index>
2726

>  <StandardizerResult>
Clear Stereo (ID: ClearStereo)
Wedge Clean (ID: WedgeClean)
Mesomerize (ID: Mesomerize)
Tautomerize (ID: Tautomerize)
Add Explicit Hydrogens (ID: AddExplicitH)
Neutralize (ID: Neutralize)
Clean 2D (ID: Clean2D)

> <knn Distance>


> <CpId>
2726

$$$$
2730
  Mrv1532301301811342D          

 24 24  0  0  0  0            999 V2000
    0.0028    2.4663    0.0000 C   0  0  0  0  0  0  0  0  0  0  0  0
    0.7173    2.0538    0.0000 O   0  0  0  0  0  0  0  0  0  0  0  0
    0.7173    1.2288    0.0000 C   0  0  0  0  0  0  0  0  0  0  0  0
    1.4317    0.8163    0.0000 C   0  0  0  0  0  0  0  0  0  0  0  0
    1.4317   -0.0087    0.0000 C   0  0  0  0  0  0  0  0  0  0  0  0
    2.1462   -0.4212    0.0000 C   0  0  0  0  0  0  0  0  0  0  0  0
    2.1462   -1.2462    0.0000 C   0  0  0  0  0  0  0  0  0  0  0  0
    2.8607   -1.6587    0.0000 C   0  0  0  0  0  0  0  0  0  0  0  0
    0.7173   -0.4212    0.0000 C   0  0  0  0  0  0  0  0  0  0  0  0
    0.0028   -0.0087    0.0000 C   0  0  0  0  0  0  0  0  0  0  0  0
    0.0028    0.8163    0.0000 C   0  0  0  0  0  0  0  0  0  0  0  0
   -0.7117    1.2288    0.0000 O   0  0  0  0  0  0  0  0  0  0  0  0
    0.4153    3.1808    0.0000 H   0  0  0  0  0  0  0  0  0  0  0  0
   -0.7117    2.8788    0.0000 H   0  0  0  0  0  0  0  0  0  0  0  0
   -0.4097    1.7519    0.0000 H   0  0  0  0  0  0  0  0  0  0  0  0
    2.1462    1.2288    0.0000 H   0  0  0  0  0  0  0  0  0  0  0  0
    2.9698   -0.3732    0.0000 H   0  0  0  0  0  0  0  0  0  0  0  0
    2.5996    0.2681    0.0000 H   0  0  0  0  0  0  0  0  0  0  0  0
    1.4317   -1.6587    0.0000 H   0  0  0  0  0  0  0  0  0  0  0  0
    2.8607   -2.4837    0.0000 H   0  0  0  0  0  0  0  0  0  0  0  0
    3.5752   -1.2462    0.0000 H   0  0  0  0  0  0  0  0  0  0  0  0
    0.7173   -1.2462    0.0000 H   0  0  0  0  0  0  0  0  0  0  0  0
   -0.7117   -0.4212    0.0000 H   0  0  0  0  0  0  0  0  0  0  0  0
   -1.5086    1.0153    0.0000 H   0  0  0  0  0  0  0  0  0  0  0  0
  1  2  1  0  0  0  0
  2  3  1  0  0  0  0
  3  4  4  0  0  0  0
  4  5  4  0  0  0  0
  5  6  1  0  0  0  0
  6  7  1  0  0  0  0
  7  8  2  0  0  0  0
  5  9  4  0  0  0  0
  9 10  4  0  0  0  0
 10 11  4  0  0  0  0
  3 11  4  0  0  0  0
 11 12  1  0  0  0  0
  1 13  1  0  0  0  0
  1 14  1  0  0  0  0
  1 15  1  0  0  0  0
  4 16  1  0  0  0  0
  6 17  1  0  0  0  0
  6 18  1  0  0  0  0
  7 19  1  0  0  0  0
  8 20  1  0  0  0  0
  8 21  1  0  0  0  0
  9 22  1  0  0  0  0
 10 23  1  0  0  0  0
 12 24  1  0  0  0  0
M  END
>  <InChIKey>
InChI=1S/C10H12O2/c1-3-4-8-5-6-9(11)10(7-8)12-2/h3,5-7,11H,1,4H2,2H3

>  <CASRN>
97-53-0

> <Outcome>
1

>  <Index>
2730

>  <StandardizerResult>
Dearomatize (ID: Dearomatize)
Clear Stereo (ID: ClearStereo)
Wedge Clean (ID: WedgeClean)
Mesomerize (ID: Mesomerize)
Tautomerize (ID: Tautomerize)
Aromatize (ID: Aromatize)
Add Explicit Hydrogens (ID: AddExplicitH)
Neutralize (ID: Neutralize)
Clean 2D (ID: Clean2D)

> <knn Distance>


> <CpId>
2730

$$$$
2731
  Mrv1532301301811342D          

 24 23  0  0  0  0            999 V2000
    1.0461    0.2211    0.0000 O   0  0  0  0  0  0  0  0  0  0  0  0
    1.0461   -0.6039    0.0000 C   0  0  0  0  0  0  0  0  0  0  0  0
    1.0461   -1.4289    0.0000 N   0  0  0  0  0  0  0  0  0  0  0  0
    1.7605   -1.8414    0.0000 C   0  0  0  0  0  0  0  0  0  0  0  0
    2.4750   -1.4289    0.0000 C   0  0  0  0  0  0  0  0  0  0  0  0
    3.1895   -1.8414    0.0000 C   0  0  0  0  0  0  0  0  0  0  0  0
    3.9039   -1.4289    0.0000 C   0  0  0  0  0  0  0  0  0  0  0  0
    4.6184   -1.8414    0.0000 C   0  0  0  0  0  0  0  0  0  0  0  0
    5.3329   -1.4289    0.0000 C   0  0  0  0  0  0  0  0  0  0  0  0
    6.0474   -1.8414    0.0000 N   0  0  0  0  0  0  0  0  0  0  0  0
    6.7618   -1.4289    0.0000 C   0  0  0  0  0  0  0  0  0  0  0  0
    7.4763   -1.0164    0.0000 O   0  0  0  0  0  0  0  0  0  0  0  0
    1.3903   -2.5786    0.0000 H   0  0  0  0  0  0  0  0  0  0  0  0
    2.1308   -2.5786    0.0000 H   0  0  0  0  0  0  0  0  0  0  0  0
    2.8453   -0.6917    0.0000 H   0  0  0  0  0  0  0  0  0  0  0  0
    2.1047   -0.6917    0.0000 H   0  0  0  0  0  0  0  0  0  0  0  0
    2.8192   -2.5786    0.0000 H   0  0  0  0  0  0  0  0  0  0  0  0
    3.5597   -2.5786    0.0000 H   0  0  0  0  0  0  0  0  0  0  0  0
    4.2742   -0.6917    0.0000 H   0  0  0  0  0  0  0  0  0  0  0  0
    3.5337   -0.6917    0.0000 H   0  0  0  0  0  0  0  0  0  0  0  0
    4.2482   -2.5786    0.0000 H   0  0  0  0  0  0  0  0  0  0  0  0
    4.9887   -2.5786    0.0000 H   0  0  0  0  0  0  0  0  0  0  0  0
    5.7031   -0.6917    0.0000 H   0  0  0  0  0  0  0  0  0  0  0  0
    4.9626   -0.6917    0.0000 H   0  0  0  0  0  0  0  0  0  0  0  0
  1  2  2  0  0  0  0
  2  3  2  0  0  0  0
  3  4  1  0  0  0  0
  4  5  1  0  0  0  0
  5  6  1  0  0  0  0
  6  7  1  0  0  0  0
  7  8  1  0  0  0  0
  8  9  1  0  0  0  0
  9 10  1  0  0  0  0
 10 11  2  0  0  0  0
 11 12  2  0  0  0  0
  4 13  1  0  0  0  0
  4 14  1  0  0  0  0
  5 15  1  0  0  0  0
  5 16  1  0  0  0  0
  6 17  1  0  0  0  0
  6 18  1  0  0  0  0
  7 19  1  0  0  0  0
  7 20  1  0  0  0  0
  8 21  1  0  0  0  0
  8 22  1  0  0  0  0
  9 23  1  0  0  0  0
  9 24  1  0  0  0  0
M  END
>  <InChIKey>
InChI=1S/C8H12N2O2/c11-7-9-5-3-1-2-4-6-10-8-12/h1-6H2

>  <CASRN>
822-06-0

> <Outcome>
1

>  <Index>
2731

>  <StandardizerResult>
Clear Stereo (ID: ClearStereo)
Wedge Clean (ID: WedgeClean)
Mesomerize (ID: Mesomerize)
Tautomerize (ID: Tautomerize)
Add Explicit Hydrogens (ID: AddExplicitH)
Neutralize (ID: Neutralize)
Clean 2D (ID: Clean2D)

> <knn Distance>


> <CpId>
2731

$$$$
2733
  Mrv1532301301811342D          

 13 12  0  0  0  0            999 V2000
    2.0625   -0.7145    0.0000 C   0  0  0  0  0  0  0  0  0  0  0  0
    1.2375   -0.7145    0.0000 C   0  0  0  0  0  0  0  0  0  0  0  0
    0.8250   -1.4289    0.0000 C   0  0  0  0  0  0  0  0  0  0  0  0
    0.8250   -0.0000    0.0000 C   0  0  0  0  0  0  0  0  0  0  0  0
   -0.0000   -0.0000    0.0000 C   0  0  0  0  0  0  0  0  0  0  0  0
    2.0625   -1.5395    0.0000 H   0  0  0  0  0  0  0  0  0  0  0  0
    2.8875   -0.7145    0.0000 H   0  0  0  0  0  0  0  0  0  0  0  0
    2.0625    0.1105    0.0000 H   0  0  0  0  0  0  0  0  0  0  0  0
   -0.0000   -1.4289    0.0000 H   0  0  0  0  0  0  0  0  0  0  0  0
    1.2375   -2.1434    0.0000 H   0  0  0  0  0  0  0  0  0  0  0  0
    1.2375    0.7145    0.0000 H   0  0  0  0  0  0  0  0  0  0  0  0
   -0.4125    0.7145    0.0000 H   0  0  0  0  0  0  0  0  0  0  0  0
   -0.4125   -0.7145    0.0000 H   0  0  0  0  0  0  0  0  0  0  0  0
  1  2  1  0  0  0  0
  2  3  2  0  0  0  0
  2  4  1  0  0  0  0
  4  5  2  0  0  0  0
  1  6  1  0  0  0  0
  1  7  1  0  0  0  0
  1  8  1  0  0  0  0
  3  9  1  0  0  0  0
  3 10  1  0  0  0  0
  4 11  1  0  0  0  0
  5 12  1  0  0  0  0
  5 13  1  0  0  0  0
M  END
>  <InChIKey>
InChI=1S/C5H8/c1-4-5(2)3/h4H,1-2H2,3H3

>  <CASRN>
78-79-5

> <Outcome>
1

>  <Index>
2733

>  <StandardizerResult>
Clear Stereo (ID: ClearStereo)
Wedge Clean (ID: WedgeClean)
Mesomerize (ID: Mesomerize)
Tautomerize (ID: Tautomerize)
Add Explicit Hydrogens (ID: AddExplicitH)
Neutralize (ID: Neutralize)
Clean 2D (ID: Clean2D)

> <knn Distance>


> <CpId>
2733

$$$$
2734
  Mrv1532301301811342D          

 55 61  0  0  0  0            999 V2000
    5.1113    0.1902    0.0000 C   0  0  0  0  0  0  0  0  0  0  0  0
    4.4321   -0.2782    0.0000 O   0  0  0  0  0  0  0  0  0  0  0  0
    3.6869    0.0758    0.0000 C   0  0  0  0  0  0  0  0  0  0  0  0
    3.0078   -0.3926    0.0000 C   0  0  0  0  0  0  0  0  0  0  0  0
    2.2626   -0.0386    0.0000 C   0  0  0  0  0  0  0  0  0  0  0  0
    1.4789   -0.3442    0.0000 N   0  0  0  0  0  0  0  0  0  0  0  0
    0.9863    0.3222    0.0000 C   0  0  0  0  0  0  0  0  0  0  0  0
    0.1549    0.1957    0.0000 C   0  0  0  0  0  0  0  0  0  0  0  0
   -0.2678   -0.4600    0.0000 C   0  0  0  0  0  0  0  0  0  0  0  0
    0.2587   -1.1390    0.0000 C   0  0  0  0  0  0  0  0  0  0  0  0
    1.1026   -1.0980    0.0000 C   0  0  0  0  0  0  0  0  0  0  0  0
    1.5535   -1.7889    0.0000 O   0  0  0  0  0  0  0  0  0  0  0  0
   -1.1232   -0.4179    0.0000 O   0  0  0  0  0  0  0  0  0  0  0  0
   -1.6956    0.2396    0.0000 C   0  0  0  0  0  0  0  0  0  0  0  0
   -1.5387    1.0604    0.0000 C   0  0  0  0  0  0  0  0  0  0  0  0
   -0.8617    1.5393    0.0000 C   0  0  0  0  0  0  0  0  0  0  0  0
   -0.3530    2.3861    0.0000 C   0  0  0  0  0  0  0  0  0  0  0  0
    0.5605    2.3411    0.0000 N   0  0  0  0  0  0  0  0  0  0  0  0
    1.4372    2.4784    0.0000 C   0  0  0  0  0  0  0  0  0  0  0  0
    1.8965    1.7726    0.0000 C   0  0  0  0  0  0  0  0  0  0  0  0
    1.3527    1.0898    0.0000 C   0  0  0  0  0  0  0  0  0  0  0  0
    0.6213    1.5629    0.0000 C   0  0  0  0  0  0  0  0  0  0  0  0
   -0.3069    1.3693    0.0000 C   0  0  0  0  0  0  0  0  0  0  0  0
   -0.2469    0.8511    0.0000 C   0  0  0  0  0  0  0  0  0  0  0  0
    2.1965    0.7837    0.0000 C   0  0  0  0  0  0  0  0  0  0  0  0
    2.8757    1.2521    0.0000 C   0  0  0  0  0  0  0  0  0  0  0  0
    3.6209    0.8981    0.0000 C   0  0  0  0  0  0  0  0  0  0  0  0
    4.3000    1.3665    0.0000 O   0  0  0  0  0  0  0  0  0  0  0  0
    5.0452    1.0125    0.0000 C   0  0  0  0  0  0  0  0  0  0  0  0
    5.1773   -0.6322    0.0000 H   0  0  0  0  0  0  0  0  0  0  0  0
    5.8565   -0.1638    0.0000 H   0  0  0  0  0  0  0  0  0  0  0  0
    5.7904    0.6586    0.0000 H   0  0  0  0  0  0  0  0  0  0  0  0
    3.0738   -1.2149    0.0000 H   0  0  0  0  0  0  0  0  0  0  0  0
    0.4948    0.9848    0.0000 H   0  0  0  0  0  0  0  0  0  0  0  0
    0.6033   -0.4968    0.0000 H   0  0  0  0  0  0  0  0  0  0  0  0
   -0.6489   -1.1917    0.0000 H   0  0  0  0  0  0  0  0  0  0  0  0
   -0.1140   -1.8750    0.0000 H   0  0  0  0  0  0  0  0  0  0  0  0
    0.7076   -1.8312    0.0000 H   0  0  0  0  0  0  0  0  0  0  0  0
   -2.5064    0.3921    0.0000 H   0  0  0  0  0  0  0  0  0  0  0  0
   -2.3194   -0.3003    0.0000 H   0  0  0  0  0  0  0  0  0  0  0  0
   -2.2324    1.5069    0.0000 H   0  0  0  0  0  0  0  0  0  0  0  0
   -0.3705    3.2109    0.0000 H   0  0  0  0  0  0  0  0  0  0  0  0
   -1.0284    2.8598    0.0000 H   0  0  0  0  0  0  0  0  0  0  0  0
    2.0814    2.9938    0.0000 H   0  0  0  0  0  0  0  0  0  0  0  0
    1.3898    3.3020    0.0000 H   0  0  0  0  0  0  0  0  0  0  0  0
    2.6059    1.3515    0.0000 H   0  0  0  0  0  0  0  0  0  0  0  0
    2.6429    2.1241    0.0000 H   0  0  0  0  0  0  0  0  0  0  0  0
    1.3301    1.9852    0.0000 H   0  0  0  0  0  0  0  0  0  0  0  0
    0.0782    2.0989    0.0000 H   0  0  0  0  0  0  0  0  0  0  0  0
   -0.6236    2.1312    0.0000 H   0  0  0  0  0  0  0  0  0  0  0  0
   -0.9089    0.3587    0.0000 H   0  0  0  0  0  0  0  0  0  0  0  0
    3.5098    1.7799    0.0000 H   0  0  0  0  0  0  0  0  0  0  0  0
    5.6327    1.5917    0.0000 H   0  0  0  0  0  0  0  0  0  0  0  0
    5.1230    1.8339    0.0000 H   0  0  0  0  0  0  0  0  0  0  0  0
    4.3661    0.5442    0.0000 H   0  0  0  0  0  0  0  0  0  0  0  0
  1  2  1  0  0  0  0
  2  3  1  0  0  0  0
  3  4  4  0  0  0  0
  4  5  4  0  0  0  0
  5  6  1  0  0  0  0
  6  7  1  0  0  0  0
  7  8  1  0  0  0  0
  8  9  1  0  0  0  0
  9 10  1  0  0  0  0
 10 11  1  0  0  0  0
  6 11  1  0  0  0  0
 11 12  2  0  0  0  0
  9 13  1  0  0  0  0
 13 14  1  0  0  0  0
 14 15  1  0  0  0  0
 15 16  2  0  0  0  0
 16 17  1  0  0  0  0
 17 18  1  0  0  0  0
 18 19  1  0  0  0  0
 19 20  1  0  0  0  0
 20 21  1  0  0  0  0
  7 21  1  0  0  0  0
 21 22  1  0  0  0  0
 18 22  1  0  0  0  0
 22 23  1  0  0  0  0
 23 24  1  0  0  0  0
  8 24  1  0  0  0  0
 16 24  1  0  0  0  0
 21 25  1  0  0  0  0
  5 25  4  0  0  0  0
 25 26  4  0  0  0  0
 26 27  4  0  0  0  0
  3 27  4  0  0  0  0
 27 28  1  0  0  0  0
 28 29  1  0  0  0  0
  1 30  1  0  0  0  0
  1 31  1  0  0  0  0
  1 32  1  0  0  0  0
  4 33  1  0  0  0  0
  7 34  1  0  0  0  0
  8 35  1  0  0  0  0
  9 36  1  0  0  0  0
 10 37  1  0  0  0  0
 10 38  1  0  0  0  0
 14 39  1  0  0  0  0
 14 40  1  0  0  0  0
 15 41  1  0  0  0  0
 17 42  1  0  0  0  0
 17 43  1  0  0  0  0
 19 44  1  0  0  0  0
 19 45  1  0  0  0  0
 20 46  1  0  0  0  0
 20 47  1  0  0  0  0
 22 48  1  0  0  0  0
 23 49  1  0  0  0  0
 23 50  1  0  0  0  0
 24 51  1  0  0  0  0
 26 52  1  0  0  0  0
 29 53  1  0  0  0  0
 29 54  1  0  0  0  0
 29 55  1  0  0  0  0
M  END
>  <InChIKey>
InChI=1S/C23H26N2O4/c1-27-16-8-14-15(9-17(16)28-2)25-20(26)10-18-21-13-7-19-23(14,22(21)25)4-5-24(19)11-12(13)3-6-29-18/h3,8-9,13,18-19,21-22H,4-7,10-11H2,1-2H3

>  <CASRN>
357-57-3

> <Outcome>
1

>  <Index>
2734

>  <StandardizerResult>
Dearomatize (ID: Dearomatize)
Clear Stereo (ID: ClearStereo)
Wedge Clean (ID: WedgeClean)
Mesomerize (ID: Mesomerize)
Tautomerize (ID: Tautomerize)
Aromatize (ID: Aromatize)
Add Explicit Hydrogens (ID: AddExplicitH)
Neutralize (ID: Neutralize)
Clean 2D (ID: Clean2D)

> <knn Distance>


> <CpId>
2734

$$$$
2735
  Mrv1532301301811342D          

 47 47  0  0  0  0            999 V2000
   -1.4638    7.4349    0.0000 C   0  0  0  0  0  0  0  0  0  0  0  0
   -1.4638    6.6099    0.0000 C   0  0  0  0  0  0  0  0  0  0  0  0
   -2.1783    6.1974    0.0000 C   0  0  0  0  0  0  0  0  0  0  0  0
   -0.7494    6.1974    0.0000 O   0  0  0  0  0  0  0  0  0  0  0  0
   -0.7494    5.3724    0.0000 P   0  0  0  0  0  0  0  0  0  0  0  0
   -1.5744    5.3724    0.0000 S   0  0  0  0  0  0  0  0  0  0  0  0
    0.0756    5.3724    0.0000 O   0  0  0  0  0  0  0  0  0  0  0  0
    0.4881    6.0868    0.0000 C   0  0  0  0  0  0  0  0  0  0  0  0
    1.3131    6.0868    0.0000 C   0  0  0  0  0  0  0  0  0  0  0  0
    0.0756    6.8013    0.0000 C   0  0  0  0  0  0  0  0  0  0  0  0
   -0.7494    4.5474    0.0000 S   0  0  0  0  0  0  0  0  0  0  0  0
   -0.0349    4.1349    0.0000 C   0  0  0  0  0  0  0  0  0  0  0  0
   -0.0349    3.3099    0.0000 C   0  0  0  0  0  0  0  0  0  0  0  0
    0.6796    2.8974    0.0000 N   0  0  0  0  0  0  0  0  0  0  0  0
    0.6796    2.0724    0.0000 S   0  0  0  0  0  0  0  0  0  0  0  0
   -0.1454    2.0724    0.0000 O   0  0  0  0  0  0  0  0  0  0  0  0
    1.5046    2.0724    0.0000 O   0  0  0  0  0  0  0  0  0  0  0  0
    0.6796    1.2474    0.0000 C   0  0  0  0  0  0  0  0  0  0  0  0
    1.3941    0.8349    0.0000 C   0  0  0  0  0  0  0  0  0  0  0  0
    1.3941    0.0099    0.0000 C   0  0  0  0  0  0  0  0  0  0  0  0
    0.6796   -0.4026    0.0000 C   0  0  0  0  0  0  0  0  0  0  0  0
   -0.0349    0.0099    0.0000 C   0  0  0  0  0  0  0  0  0  0  0  0
   -0.0349    0.8349    0.0000 C   0  0  0  0  0  0  0  0  0  0  0  0
   -0.6388    7.4349    0.0000 H   0  0  0  0  0  0  0  0  0  0  0  0
   -1.4638    8.2599    0.0000 H   0  0  0  0  0  0  0  0  0  0  0  0
   -2.2888    7.4349    0.0000 H   0  0  0  0  0  0  0  0  0  0  0  0
   -2.1783    7.0224    0.0000 H   0  0  0  0  0  0  0  0  0  0  0  0
   -2.9752    6.4109    0.0000 H   0  0  0  0  0  0  0  0  0  0  0  0
   -2.5908    5.4829    0.0000 H   0  0  0  0  0  0  0  0  0  0  0  0
   -1.5949    5.6140    0.0000 H   0  0  0  0  0  0  0  0  0  0  0  0
    0.9006    5.3724    0.0000 H   0  0  0  0  0  0  0  0  0  0  0  0
    1.8965    5.5035    0.0000 H   0  0  0  0  0  0  0  0  0  0  0  0
    2.0276    6.4993    0.0000 H   0  0  0  0  0  0  0  0  0  0  0  0
    1.0996    6.8837    0.0000 H   0  0  0  0  0  0  0  0  0  0  0  0
    0.8639    7.0448    0.0000 H   0  0  0  0  0  0  0  0  0  0  0  0
    0.4723    7.5247    0.0000 H   0  0  0  0  0  0  0  0  0  0  0  0
   -0.5635    6.2797    0.0000 H   0  0  0  0  0  0  0  0  0  0  0  0
    0.7887    4.1828    0.0000 H   0  0  0  0  0  0  0  0  0  0  0  0
    0.4185    4.8241    0.0000 H   0  0  0  0  0  0  0  0  0  0  0  0
   -0.8585    3.2619    0.0000 H   0  0  0  0  0  0  0  0  0  0  0  0
   -0.4882    2.6206    0.0000 H   0  0  0  0  0  0  0  0  0  0  0  0
    1.3941    3.3099    0.0000 H   0  0  0  0  0  0  0  0  0  0  0  0
    2.1085    1.2474    0.0000 H   0  0  0  0  0  0  0  0  0  0  0  0
    2.1085   -0.4026    0.0000 H   0  0  0  0  0  0  0  0  0  0  0  0
    0.6796   -1.2276    0.0000 H   0  0  0  0  0  0  0  0  0  0  0  0
   -0.7494   -0.4026    0.0000 H   0  0  0  0  0  0  0  0  0  0  0  0
   -0.7494    1.2474    0.0000 H   0  0  0  0  0  0  0  0  0  0  0  0
  1  2  1  0  0  0  0
  2  3  1  0  0  0  0
  2  4  1  0  0  0  0
  4  5  1  0  0  0  0
  5  6  2  0  0  0  0
  5  7  1  0  0  0  0
  7  8  1  0  0  0  0
  8  9  1  0  0  0  0
  8 10  1  0  0  0  0
  5 11  1  0  0  0  0
 11 12  1  0  0  0  0
 12 13  1  0  0  0  0
 13 14  1  0  0  0  0
 14 15  1  0  0  0  0
 15 16  2  0  0  0  0
 15 17  2  0  0  0  0
 15 18  1  0  0  0  0
 18 19  4  0  0  0  0
 19 20  4  0  0  0  0
 20 21  4  0  0  0  0
 21 22  4  0  0  0  0
 22 23  4  0  0  0  0
 18 23  4  0  0  0  0
  1 24  1  0  0  0  0
  1 25  1  0  0  0  0
  1 26  1  0  0  0  0
  2 27  1  0  0  0  0
  3 28  1  0  0  0  0
  3 29  1  0  0  0  0
  3 30  1  0  0  0  0
  8 31  1  0  0  0  0
  9 32  1  0  0  0  0
  9 33  1  0  0  0  0
  9 34  1  0  0  0  0
 10 35  1  0  0  0  0
 10 36  1  0  0  0  0
 10 37  1  0  0  0  0
 12 38  1  0  0  0  0
 12 39  1  0  0  0  0
 13 40  1  0  0  0  0
 13 41  1  0  0  0  0
 14 42  1  0  0  0  0
 19 43  1  0  0  0  0
 20 44  1  0  0  0  0
 21 45  1  0  0  0  0
 22 46  1  0  0  0  0
 23 47  1  0  0  0  0
M  END
>  <InChIKey>
InChI=1S/C14H24NO4PS3/c1-12(2)18-20(21,19-13(3)4)22-11-10-15-23(16,17)14-8-6-5-7-9-14/h5-9,12-13,15H,10-11H2,1-4H3

>  <CASRN>
741-58-2

> <Outcome>
1

>  <Index>
2735

>  <StandardizerResult>
Dearomatize (ID: Dearomatize)
Clear Stereo (ID: ClearStereo)
Wedge Clean (ID: WedgeClean)
Mesomerize (ID: Mesomerize)
Tautomerize (ID: Tautomerize)
Aromatize (ID: Aromatize)
Add Explicit Hydrogens (ID: AddExplicitH)
Neutralize (ID: Neutralize)
Clean 2D (ID: Clean2D)

> <knn Distance>


> <CpId>
2735

$$$$
2736
  Mrv1532301301811342D          

 36 36  0  0  0  0            999 V2000
   -0.1105   -2.0686    0.0000 Cl  0  0  0  0  0  0  0  0  0  0  0  0
    0.7145   -2.0686    0.0000 C   0  0  0  0  0  0  0  0  0  0  0  0
    1.5395   -2.0686    0.0000 Cl  0  0  0  0  0  0  0  0  0  0  0  0
    0.7145   -2.8936    0.0000 Cl  0  0  0  0  0  0  0  0  0  0  0  0
    0.7145   -1.2436    0.0000 C   0  0  0  0  0  0  0  0  0  0  0  0
    1.4289   -0.8311    0.0000 N   0  0  0  0  0  0  0  0  0  0  0  0
    2.1434   -1.2436    0.0000 C   0  0  0  0  0  0  0  0  0  0  0  0
    2.8579   -0.8311    0.0000 O   0  0  0  0  0  0  0  0  0  0  0  0
   -0.0000   -0.8311    0.0000 N   0  0  0  0  0  0  0  0  0  0  0  0
   -0.7145   -1.2436    0.0000 C   0  0  0  0  0  0  0  0  0  0  0  0
   -1.4289   -0.8311    0.0000 C   0  0  0  0  0  0  0  0  0  0  0  0
   -1.4289   -0.0061    0.0000 N   0  0  0  0  0  0  0  0  0  0  0  0
   -0.7145    0.4064    0.0000 C   0  0  0  0  0  0  0  0  0  0  0  0
   -0.0000   -0.0061    0.0000 C   0  0  0  0  0  0  0  0  0  0  0  0
   -2.1434    0.4064    0.0000 C   0  0  0  0  0  0  0  0  0  0  0  0
   -2.8579   -0.0061    0.0000 N   0  0  0  0  0  0  0  0  0  0  0  0
   -3.5724    0.4064    0.0000 C   0  0  0  0  0  0  0  0  0  0  0  0
   -4.2868   -0.0061    0.0000 O   0  0  0  0  0  0  0  0  0  0  0  0
   -2.1434    1.2314    0.0000 C   0  0  0  0  0  0  0  0  0  0  0  0
   -2.1434    2.0564    0.0000 Cl  0  0  0  0  0  0  0  0  0  0  0  0
   -2.9684    1.2314    0.0000 Cl  0  0  0  0  0  0  0  0  0  0  0  0
   -1.3184    1.2314    0.0000 Cl  0  0  0  0  0  0  0  0  0  0  0  0
    1.4289   -1.6561    0.0000 H   0  0  0  0  0  0  0  0  0  0  0  0
    1.4289   -0.0061    0.0000 H   0  0  0  0  0  0  0  0  0  0  0  0
    2.5559   -1.9581    0.0000 H   0  0  0  0  0  0  0  0  0  0  0  0
   -1.0847   -1.9809    0.0000 H   0  0  0  0  0  0  0  0  0  0  0  0
   -0.3442   -1.9809    0.0000 H   0  0  0  0  0  0  0  0  0  0  0  0
   -2.2525   -0.8791    0.0000 H   0  0  0  0  0  0  0  0  0  0  0  0
   -1.8823   -1.5204    0.0000 H   0  0  0  0  0  0  0  0  0  0  0  0
   -0.3442    1.1436    0.0000 H   0  0  0  0  0  0  0  0  0  0  0  0
   -1.0847    1.1436    0.0000 H   0  0  0  0  0  0  0  0  0  0  0  0
    0.8236    0.0418    0.0000 H   0  0  0  0  0  0  0  0  0  0  0  0
    0.4533    0.6831    0.0000 H   0  0  0  0  0  0  0  0  0  0  0  0
   -2.1434   -0.4186    0.0000 H   0  0  0  0  0  0  0  0  0  0  0  0
   -3.2704   -0.7206    0.0000 H   0  0  0  0  0  0  0  0  0  0  0  0
   -3.5724    1.2314    0.0000 H   0  0  0  0  0  0  0  0  0  0  0  0
  1  2  1  0  0  0  0
  2  3  1  0  0  0  0
  2  4  1  0  0  0  0
  2  5  1  0  0  0  0
  5  6  1  0  0  0  0
  6  7  1  0  0  0  0
  7  8  2  0  0  0  0
  5  9  1  0  0  0  0
  9 10  1  0  0  0  0
 10 11  1  0  0  0  0
 11 12  1  0  0  0  0
 12 13  1  0  0  0  0
 13 14  1  0  0  0  0
  9 14  1  0  0  0  0
 12 15  1  0  0  0  0
 15 16  1  0  0  0  0
 16 17  1  0  0  0  0
 17 18  2  0  0  0  0
 15 19  1  0  0  0  0
 19 20  1  0  0  0  0
 19 21  1  0  0  0  0
 19 22  1  0  0  0  0
  5 23  1  0  0  0  0
  6 24  1  0  0  0  0
  7 25  1  0  0  0  0
 10 26  1  0  0  0  0
 10 27  1  0  0  0  0
 11 28  1  0  0  0  0
 11 29  1  0  0  0  0
 13 30  1  0  0  0  0
 13 31  1  0  0  0  0
 14 32  1  0  0  0  0
 14 33  1  0  0  0  0
 15 34  1  0  0  0  0
 16 35  1  0  0  0  0
 17 36  1  0  0  0  0
M  END
>  <InChIKey>
InChI=1S/C10H14Cl6N4O2/c11-9(12,13)7(17-5-21)19-1-2-20(4-3-19)8(18-6-22)10(14,15)16/h5-8H,1-4H2,(H,17,21)(H,18,22)

>  <CASRN>
26644-46-2

> <Outcome>
1

>  <Index>
2736

>  <StandardizerResult>
Clear Stereo (ID: ClearStereo)
Wedge Clean (ID: WedgeClean)
Mesomerize (ID: Mesomerize)
Tautomerize (ID: Tautomerize)
Add Explicit Hydrogens (ID: AddExplicitH)
Neutralize (ID: Neutralize)
Clean 2D (ID: Clean2D)

> <knn Distance>


> <CpId>
2736

$$$$
2742
  Mrv1532301301811342D          

 69 68  0  0  0  0            999 V2000
   12.8980    8.2722    0.0000 C   0  0  0  0  0  0  0  0  0  0  0  0
   13.6125    7.8597    0.0000 C   0  0  0  0  0  0  0  0  0  0  0  0
   14.3270    8.2722    0.0000 C   0  0  0  0  0  0  0  0  0  0  0  0
   15.0414    7.8597    0.0000 C   0  0  0  0  0  0  0  0  0  0  0  0
   15.7559    8.2722    0.0000 C   0  0  0  0  0  0  0  0  0  0  0  0
   16.4704    7.8597    0.0000 C   0  0  0  0  0  0  0  0  0  0  0  0
   17.1849    8.2722    0.0000 C   0  0  0  0  0  0  0  0  0  0  0  0
   17.8993    7.8597    0.0000 C   0  0  0  0  0  0  0  0  0  0  0  0
   18.6138    8.2722    0.0000 C   0  0  0  0  0  0  0  0  0  0  0  0
   18.6138    9.0972    0.0000 O   0  0  0  0  0  0  0  0  0  0  0  0
   19.3283    7.8597    0.0000 O   0  0  0  0  0  0  0  0  0  0  0  0
   20.0427    8.2722    0.0000 C   0  0  0  0  0  0  0  0  0  0  0  0
   20.7572    7.8597    0.0000 C   0  0  0  0  0  0  0  0  0  0  0  0
   21.4717    8.2722    0.0000 O   0  0  0  0  0  0  0  0  0  0  0  0
   22.1861    7.8597    0.0000 C   0  0  0  0  0  0  0  0  0  0  0  0
   22.9006    8.2722    0.0000 C   0  0  0  0  0  0  0  0  0  0  0  0
   23.6151    7.8597    0.0000 O   0  0  0  0  0  0  0  0  0  0  0  0
   24.3296    8.2722    0.0000 C   0  0  0  0  0  0  0  0  0  0  0  0
   24.3296    9.0972    0.0000 O   0  0  0  0  0  0  0  0  0  0  0  0
   25.0440    7.8597    0.0000 C   0  0  0  0  0  0  0  0  0  0  0  0
   25.7585    8.2722    0.0000 C   0  0  0  0  0  0  0  0  0  0  0  0
   26.4730    7.8597    0.0000 C   0  0  0  0  0  0  0  0  0  0  0  0
   27.1874    8.2722    0.0000 C   0  0  0  0  0  0  0  0  0  0  0  0
   27.9019    7.8597    0.0000 C   0  0  0  0  0  0  0  0  0  0  0  0
   28.6164    8.2722    0.0000 C   0  0  0  0  0  0  0  0  0  0  0  0
   29.3309    7.8597    0.0000 C   0  0  0  0  0  0  0  0  0  0  0  0
   30.0453    8.2722    0.0000 C   0  0  0  0  0  0  0  0  0  0  0  0
   13.3105    8.9867    0.0000 H   0  0  0  0  0  0  0  0  0  0  0  0
   12.1836    8.6847    0.0000 H   0  0  0  0  0  0  0  0  0  0  0  0
   12.4855    7.5577    0.0000 H   0  0  0  0  0  0  0  0  0  0  0  0
   13.2422    7.1225    0.0000 H   0  0  0  0  0  0  0  0  0  0  0  0
   13.9828    7.1225    0.0000 H   0  0  0  0  0  0  0  0  0  0  0  0
   14.6972    9.0095    0.0000 H   0  0  0  0  0  0  0  0  0  0  0  0
   13.9567    9.0095    0.0000 H   0  0  0  0  0  0  0  0  0  0  0  0
   14.6712    7.1225    0.0000 H   0  0  0  0  0  0  0  0  0  0  0  0
   15.4117    7.1225    0.0000 H   0  0  0  0  0  0  0  0  0  0  0  0
   16.1262    9.0095    0.0000 H   0  0  0  0  0  0  0  0  0  0  0  0
   15.3856    9.0095    0.0000 H   0  0  0  0  0  0  0  0  0  0  0  0
   16.1001    7.1225    0.0000 H   0  0  0  0  0  0  0  0  0  0  0  0
   16.8406    7.1225    0.0000 H   0  0  0  0  0  0  0  0  0  0  0  0
   17.5551    9.0095    0.0000 H   0  0  0  0  0  0  0  0  0  0  0  0
   16.8146    9.0095    0.0000 H   0  0  0  0  0  0  0  0  0  0  0  0
   17.5291    7.1225    0.0000 H   0  0  0  0  0  0  0  0  0  0  0  0
   18.2696    7.1225    0.0000 H   0  0  0  0  0  0  0  0  0  0  0  0
   20.4130    9.0095    0.0000 H   0  0  0  0  0  0  0  0  0  0  0  0
   19.6725    9.0095    0.0000 H   0  0  0  0  0  0  0  0  0  0  0  0
   20.3869    7.1225    0.0000 H   0  0  0  0  0  0  0  0  0  0  0  0
   21.1275    7.1225    0.0000 H   0  0  0  0  0  0  0  0  0  0  0  0
   21.8159    7.1225    0.0000 H   0  0  0  0  0  0  0  0  0  0  0  0
   22.5564    7.1225    0.0000 H   0  0  0  0  0  0  0  0  0  0  0  0
   23.2709    9.0095    0.0000 H   0  0  0  0  0  0  0  0  0  0  0  0
   22.5304    9.0095    0.0000 H   0  0  0  0  0  0  0  0  0  0  0  0
   24.6738    7.1225    0.0000 H   0  0  0  0  0  0  0  0  0  0  0  0
   25.4143    7.1225    0.0000 H   0  0  0  0  0  0  0  0  0  0  0  0
   26.1288    9.0095    0.0000 H   0  0  0  0  0  0  0  0  0  0  0  0
   25.3882    9.0095    0.0000 H   0  0  0  0  0  0  0  0  0  0  0  0
   26.1027    7.1225    0.0000 H   0  0  0  0  0  0  0  0  0  0  0  0
   26.8432    7.1225    0.0000 H   0  0  0  0  0  0  0  0  0  0  0  0
   27.5577    9.0095    0.0000 H   0  0  0  0  0  0  0  0  0  0  0  0
   26.8172    9.0095    0.0000 H   0  0  0  0  0  0  0  0  0  0  0  0
   27.5317    7.1225    0.0000 H   0  0  0  0  0  0  0  0  0  0  0  0
   28.2722    7.1225    0.0000 H   0  0  0  0  0  0  0  0  0  0  0  0
   28.9866    9.0095    0.0000 H   0  0  0  0  0  0  0  0  0  0  0  0
   28.2461    9.0095    0.0000 H   0  0  0  0  0  0  0  0  0  0  0  0
   28.9606    7.1225    0.0000 H   0  0  0  0  0  0  0  0  0  0  0  0
   29.7011    7.1225    0.0000 H   0  0  0  0  0  0  0  0  0  0  0  0
   30.4578    7.5577    0.0000 H   0  0  0  0  0  0  0  0  0  0  0  0
   30.7598    8.6847    0.0000 H   0  0  0  0  0  0  0  0  0  0  0  0
   29.6328    8.9867    0.0000 H   0  0  0  0  0  0  0  0  0  0  0  0
  1  2  1  0  0  0  0
  2  3  1  0  0  0  0
  3  4  1  0  0  0  0
  4  5  1  0  0  0  0
  5  6  1  0  0  0  0
  6  7  1  0  0  0  0
  7  8  1  0  0  0  0
  8  9  1  0  0  0  0
  9 10  2  0  0  0  0
  9 11  1  0  0  0  0
 11 12  1  0  0  0  0
 12 13  1  0  0  0  0
 13 14  1  0  0  0  0
 14 15  1  0  0  0  0
 15 16  1  0  0  0  0
 16 17  1  0  0  0  0
 17 18  1  0  0  0  0
 18 19  2  0  0  0  0
 18 20  1  0  0  0  0
 20 21  1  0  0  0  0
 21 22  1  0  0  0  0
 22 23  1  0  0  0  0
 23 24  1  0  0  0  0
 24 25  1  0  0  0  0
 25 26  1  0  0  0  0
 26 27  1  0  0  0  0
  1 28  1  0  0  0  0
  1 29  1  0  0  0  0
  1 30  1  0  0  0  0
  2 31  1  0  0  0  0
  2 32  1  0  0  0  0
  3 33  1  0  0  0  0
  3 34  1  0  0  0  0
  4 35  1  0  0  0  0
  4 36  1  0  0  0  0
  5 37  1  0  0  0  0
  5 38  1  0  0  0  0
  6 39  1  0  0  0  0
  6 40  1  0  0  0  0
  7 41  1  0  0  0  0
  7 42  1  0  0  0  0
  8 43  1  0  0  0  0
  8 44  1  0  0  0  0
 12 45  1  0  0  0  0
 12 46  1  0  0  0  0
 13 47  1  0  0  0  0
 13 48  1  0  0  0  0
 15 49  1  0  0  0  0
 15 50  1  0  0  0  0
 16 51  1  0  0  0  0
 16 52  1  0  0  0  0
 20 53  1  0  0  0  0
 20 54  1  0  0  0  0
 21 55  1  0  0  0  0
 21 56  1  0  0  0  0
 22 57  1  0  0  0  0
 22 58  1  0  0  0  0
 23 59  1  0  0  0  0
 23 60  1  0  0  0  0
 24 61  1  0  0  0  0
 24 62  1  0  0  0  0
 25 63  1  0  0  0  0
 25 64  1  0  0  0  0
 26 65  1  0  0  0  0
 26 66  1  0  0  0  0
 27 67  1  0  0  0  0
 27 68  1  0  0  0  0
 27 69  1  0  0  0  0
M  END
>  <InChIKey>
InChI=1S/C22H42O5/c1-3-5-7-9-11-13-15-21(23)26-19-17-25-18-20-27-22(24)16-14-12-10-8-6-4-2/h3-20H2,1-2H3

>  <CASRN>
106-01-4

> <Outcome>
1

>  <Index>
2742

>  <StandardizerResult>
Clear Stereo (ID: ClearStereo)
Wedge Clean (ID: WedgeClean)
Mesomerize (ID: Mesomerize)
Tautomerize (ID: Tautomerize)
Add Explicit Hydrogens (ID: AddExplicitH)
Neutralize (ID: Neutralize)
Clean 2D (ID: Clean2D)

> <knn Distance>


> <CpId>
2742

$$$$
2745
  Mrv1532301301811342D          

 15 15  0  0  0  0            999 V2000
    0.7145    2.0625    0.0000 O   0  0  0  0  0  0  0  0  0  0  0  0
    0.7145    1.2375    0.0000 C   0  0  0  0  0  0  0  0  0  0  0  0
    1.4289    0.8250    0.0000 C   0  0  0  0  0  0  0  0  0  0  0  0
    1.4289    0.0000    0.0000 C   0  0  0  0  0  0  0  0  0  0  0  0
    0.7145   -0.4125    0.0000 C   0  0  0  0  0  0  0  0  0  0  0  0
    0.0000    0.0000    0.0000 C   0  0  0  0  0  0  0  0  0  0  0  0
    0.0000    0.8250    0.0000 C   0  0  0  0  0  0  0  0  0  0  0  0
   -0.7145   -0.4125    0.0000 N   0  0  0  0  0  0  0  0  0  0  0  0
   -0.7145   -1.2375    0.0000 O   0  0  0  0  0  0  0  0  0  0  0  0
   -1.4289    0.0000    0.0000 O   0  0  0  0  0  0  0  0  0  0  0  0
    1.4289    2.4750    0.0000 H   0  0  0  0  0  0  0  0  0  0  0  0
    2.1434    1.2375    0.0000 H   0  0  0  0  0  0  0  0  0  0  0  0
    2.1434   -0.4125    0.0000 H   0  0  0  0  0  0  0  0  0  0  0  0
    0.7145   -1.2375    0.0000 H   0  0  0  0  0  0  0  0  0  0  0  0
   -0.7145    1.2375    0.0000 H   0  0  0  0  0  0  0  0  0  0  0  0
  1  2  1  0  0  0  0
  2  3  4  0  0  0  0
  3  4  4  0  0  0  0
  4  5  4  0  0  0  0
  5  6  4  0  0  0  0
  6  7  4  0  0  0  0
  2  7  4  0  0  0  0
  6  8  1  0  0  0  0
  8  9  2  0  0  0  0
  8 10  2  0  0  0  0
  1 11  1  0  0  0  0
  3 12  1  0  0  0  0
  4 13  1  0  0  0  0
  5 14  1  0  0  0  0
  7 15  1  0  0  0  0
M  END
>  <InChIKey>
InChI=1S/C6H5NO3/c8-6-3-1-2-5(4-6)7(9)10/h1-4,8H

>  <CASRN>
554-84-7

> <Outcome>
1

>  <Index>
2745

>  <StandardizerResult>
Dearomatize (ID: Dearomatize)
Clear Stereo (ID: ClearStereo)
Wedge Clean (ID: WedgeClean)
Mesomerize (ID: Mesomerize)
Tautomerize (ID: Tautomerize)
Aromatize (ID: Aromatize)
Add Explicit Hydrogens (ID: AddExplicitH)
Neutralize (ID: Neutralize)
Clean 2D (ID: Clean2D)

> <knn Distance>


> <CpId>
2745

$$$$
2752
  Mrv1532301301811342D          

 28 27  0  0  0  0            999 V2000
    0.7578   -1.3948    0.0000 C   0  0  0  0  0  0  0  0  0  0  0  0
    1.1703   -2.1092    0.0000 C   0  0  0  0  0  0  0  0  0  0  0  0
    1.9953   -2.1092    0.0000 C   0  0  0  0  0  0  0  0  0  0  0  0
    2.4078   -2.8237    0.0000 C   0  0  0  0  0  0  0  0  0  0  0  0
    1.9953   -3.5382    0.0000 O   0  0  0  0  0  0  0  0  0  0  0  0
    3.2328   -2.8237    0.0000 C   0  0  0  0  0  0  0  0  0  0  0  0
    3.6453   -3.5382    0.0000 C   0  0  0  0  0  0  0  0  0  0  0  0
    4.4703   -3.5382    0.0000 C   0  0  0  0  0  0  0  0  0  0  0  0
    3.6453   -2.1092    0.0000 C   0  0  0  0  0  0  0  0  0  0  0  0
    4.4703   -2.1092    0.0000 O   0  0  0  0  0  0  0  0  0  0  0  0
    1.4723   -0.9823    0.0000 H   0  0  0  0  0  0  0  0  0  0  0  0
    0.3453   -0.6803    0.0000 H   0  0  0  0  0  0  0  0  0  0  0  0
    0.0433   -1.8073    0.0000 H   0  0  0  0  0  0  0  0  0  0  0  0
    0.4810   -2.5626    0.0000 H   0  0  0  0  0  0  0  0  0  0  0  0
    1.1223   -2.9328    0.0000 H   0  0  0  0  0  0  0  0  0  0  0  0
    2.6846   -1.6559    0.0000 H   0  0  0  0  0  0  0  0  0  0  0  0
    2.0433   -1.2856    0.0000 H   0  0  0  0  0  0  0  0  0  0  0  0
    1.5828   -2.8237    0.0000 H   0  0  0  0  0  0  0  0  0  0  0  0
    1.9953   -4.3632    0.0000 H   0  0  0  0  0  0  0  0  0  0  0  0
    2.8203   -3.5382    0.0000 H   0  0  0  0  0  0  0  0  0  0  0  0
    3.3631   -4.3134    0.0000 H   0  0  0  0  0  0  0  0  0  0  0  0
    3.9274   -4.3134    0.0000 H   0  0  0  0  0  0  0  0  0  0  0  0
    5.0142   -4.1584    0.0000 H   0  0  0  0  0  0  0  0  0  0  0  0
    5.2021   -3.1572    0.0000 H   0  0  0  0  0  0  0  0  0  0  0  0
    4.2742   -2.7368    0.0000 H   0  0  0  0  0  0  0  0  0  0  0  0
    3.5973   -1.2856    0.0000 H   0  0  0  0  0  0  0  0  0  0  0  0
    2.9560   -1.6559    0.0000 H   0  0  0  0  0  0  0  0  0  0  0  0
    5.1350   -1.6205    0.0000 H   0  0  0  0  0  0  0  0  0  0  0  0
  1  2  1  0  0  0  0
  2  3  1  0  0  0  0
  3  4  1  0  0  0  0
  4  5  1  0  0  0  0
  4  6  1  0  0  0  0
  6  7  1  0  0  0  0
  7  8  1  0  0  0  0
  6  9  1  0  0  0  0
  9 10  1  0  0  0  0
  1 11  1  0  0  0  0
  1 12  1  0  0  0  0
  1 13  1  0  0  0  0
  2 14  1  0  0  0  0
  2 15  1  0  0  0  0
  3 16  1  0  0  0  0
  3 17  1  0  0  0  0
  4 18  1  0  0  0  0
  5 19  1  0  0  0  0
  6 20  1  0  0  0  0
  7 21  1  0  0  0  0
  7 22  1  0  0  0  0
  8 23  1  0  0  0  0
  8 24  1  0  0  0  0
  8 25  1  0  0  0  0
  9 26  1  0  0  0  0
  9 27  1  0  0  0  0
 10 28  1  0  0  0  0
M  END
>  <InChIKey>
InChI=1S/C8H18O2/c1-3-5-8(10)7(4-2)6-9/h7-10H,3-6H2,1-2H3

>  <CASRN>
94-96-2

> <Outcome>
1

>  <Index>
2752

>  <StandardizerResult>
Clear Stereo (ID: ClearStereo)
Wedge Clean (ID: WedgeClean)
Mesomerize (ID: Mesomerize)
Tautomerize (ID: Tautomerize)
Add Explicit Hydrogens (ID: AddExplicitH)
Neutralize (ID: Neutralize)
Clean 2D (ID: Clean2D)

> <knn Distance>


> <CpId>
2752

$$$$
2753
  Mrv1532301301811342D          

 14 14  0  0  0  0            999 V2000
    0.5670    1.1132    0.0000 C   0  0  0  0  0  0  0  0  0  0  0  0
    1.2344    0.6283    0.0000 C   0  0  0  0  0  0  0  0  0  0  0  0
    0.9795   -0.1564    0.0000 C   0  0  0  0  0  0  0  0  0  0  0  0
    0.1545   -0.1564    0.0000 N   0  0  0  0  0  0  0  0  0  0  0  0
   -0.1005    0.6283    0.0000 C   0  0  0  0  0  0  0  0  0  0  0  0
    0.9543    1.8416    0.0000 H   0  0  0  0  0  0  0  0  0  0  0  0
    0.1797    1.8416    0.0000 H   0  0  0  0  0  0  0  0  0  0  0  0
    2.0469    0.4850    0.0000 H   0  0  0  0  0  0  0  0  0  0  0  0
    1.8075    1.2217    0.0000 H   0  0  0  0  0  0  0  0  0  0  0  0
    1.0943   -0.9733    0.0000 H   0  0  0  0  0  0  0  0  0  0  0  0
    1.7210   -0.5180    0.0000 H   0  0  0  0  0  0  0  0  0  0  0  0
   -0.3304   -0.8238    0.0000 H   0  0  0  0  0  0  0  0  0  0  0  0
   -0.6736    1.2217    0.0000 H   0  0  0  0  0  0  0  0  0  0  0  0
   -0.9129    0.4850    0.0000 H   0  0  0  0  0  0  0  0  0  0  0  0
  1  2  1  0  0  0  0
  2  3  1  0  0  0  0
  3  4  1  0  0  0  0
  4  5  1  0  0  0  0
  1  5  1  0  0  0  0
  1  6  1  0  0  0  0
  1  7  1  0  0  0  0
  2  8  1  0  0  0  0
  2  9  1  0  0  0  0
  3 10  1  0  0  0  0
  3 11  1  0  0  0  0
  4 12  1  0  0  0  0
  5 13  1  0  0  0  0
  5 14  1  0  0  0  0
M  END
>  <InChIKey>
InChI=1S/C4H9N/c1-2-4-5-3-1/h5H,1-4H2

>  <CASRN>
123-75-1

> <Outcome>
1

>  <Index>
2753

>  <StandardizerResult>
Clear Stereo (ID: ClearStereo)
Wedge Clean (ID: WedgeClean)
Mesomerize (ID: Mesomerize)
Tautomerize (ID: Tautomerize)
Add Explicit Hydrogens (ID: AddExplicitH)
Neutralize (ID: Neutralize)
Clean 2D (ID: Clean2D)

> <knn Distance>


> <CpId>
2753

$$$$
2755
  Mrv1532301301811342D          

 17 17  0  0  0  0            999 V2000
    0.7145    2.0625    0.0000 N   0  0  0  0  0  0  0  0  0  0  0  0
    0.7145    1.2375    0.0000 C   0  0  0  0  0  0  0  0  0  0  0  0
    1.4289    0.8250    0.0000 C   0  0  0  0  0  0  0  0  0  0  0  0
    1.4289   -0.0000    0.0000 C   0  0  0  0  0  0  0  0  0  0  0  0
    0.7145   -0.4125    0.0000 C   0  0  0  0  0  0  0  0  0  0  0  0
    0.0000   -0.0000    0.0000 C   0  0  0  0  0  0  0  0  0  0  0  0
    0.0000    0.8250    0.0000 C   0  0  0  0  0  0  0  0  0  0  0  0
   -0.7145    1.2375    0.0000 C   0  0  0  0  0  0  0  0  0  0  0  0
   -1.4289    0.8250    0.0000 O   0  0  0  0  0  0  0  0  0  0  0  0
   -0.7145    2.0625    0.0000 O   0  0  0  0  0  0  0  0  0  0  0  0
    1.4289    2.4750    0.0000 H   0  0  0  0  0  0  0  0  0  0  0  0
    0.0000    2.4750    0.0000 H   0  0  0  0  0  0  0  0  0  0  0  0
    2.1434    1.2375    0.0000 H   0  0  0  0  0  0  0  0  0  0  0  0
    2.1434   -0.4125    0.0000 H   0  0  0  0  0  0  0  0  0  0  0  0
    0.7145   -1.2375    0.0000 H   0  0  0  0  0  0  0  0  0  0  0  0
   -0.7145   -0.4125    0.0000 H   0  0  0  0  0  0  0  0  0  0  0  0
   -2.1434    1.2375    0.0000 H   0  0  0  0  0  0  0  0  0  0  0  0
  1  2  1  0  0  0  0
  2  3  4  0  0  0  0
  3  4  4  0  0  0  0
  4  5  4  0  0  0  0
  5  6  4  0  0  0  0
  6  7  4  0  0  0  0
  2  7  4  0  0  0  0
  7  8  1  0  0  0  0
  8  9  1  0  0  0  0
  8 10  2  0  0  0  0
  1 11  1  0  0  0  0
  1 12  1  0  0  0  0
  3 13  1  0  0  0  0
  4 14  1  0  0  0  0
  5 15  1  0  0  0  0
  6 16  1  0  0  0  0
  9 17  1  0  0  0  0
M  END
>  <InChIKey>
InChI=1S/C7H7NO2/c8-6-4-2-1-3-5(6)7(9)10/h1-4H,8H2,(H,9,10)

>  <CASRN>
118-92-3

> <Outcome>
1

>  <Index>
2755

>  <StandardizerResult>
Dearomatize (ID: Dearomatize)
Clear Stereo (ID: ClearStereo)
Wedge Clean (ID: WedgeClean)
Mesomerize (ID: Mesomerize)
Tautomerize (ID: Tautomerize)
Aromatize (ID: Aromatize)
Add Explicit Hydrogens (ID: AddExplicitH)
Neutralize (ID: Neutralize)
Clean 2D (ID: Clean2D)

> <knn Distance>


> <CpId>
2755

$$$$
2760
  Mrv1532301301811342D          

  6  5  0  0  0  0            999 V2000
    0.1105   -1.2375    0.0000 Cl  0  0  0  0  0  0  0  0  0  0  0  0
    0.8250   -0.8250    0.0000 S   0  0  0  0  0  0  0  0  0  0  0  0
    0.8250   -0.0000    0.0000 C   0  0  0  0  0  0  0  0  0  0  0  0
    0.8250    0.8250    0.0000 Cl  0  0  0  0  0  0  0  0  0  0  0  0
    1.6500   -0.0000    0.0000 Cl  0  0  0  0  0  0  0  0  0  0  0  0
   -0.0000   -0.0000    0.0000 Cl  0  0  0  0  0  0  0  0  0  0  0  0
  1  2  1  0  0  0  0
  2  3  1  0  0  0  0
  3  4  1  0  0  0  0
  3  5  1  0  0  0  0
  3  6  1  0  0  0  0
M  END
>  <InChIKey>
InChI=1S/CCl4S/c2-1(3,4)6-5

>  <CASRN>
594-42-3

> <Outcome>
1

>  <Index>
2760

>  <StandardizerResult>
Clear Stereo (ID: ClearStereo)
Wedge Clean (ID: WedgeClean)
Mesomerize (ID: Mesomerize)
Tautomerize (ID: Tautomerize)
Clean 2D (ID: Clean2D)

> <knn Distance>


> <CpId>
2760

$$$$
2761
  Mrv1532301301811342D          

 14 14  0  0  0  0            999 V2000
    0.7145    1.2375    0.0000 C   0  0  0  0  0  0  0  0  0  0  0  0
    1.4290    0.8250    0.0000 C   0  0  0  0  0  0  0  0  0  0  0  0
    1.4290   -0.0000    0.0000 O   0  0  0  0  0  0  0  0  0  0  0  0
    0.7145   -0.4125    0.0000 C   0  0  0  0  0  0  0  0  0  0  0  0
    0.0000   -0.0000    0.0000 C   0  0  0  0  0  0  0  0  0  0  0  0
    0.0000    0.8250    0.0000 O   0  0  0  0  0  0  0  0  0  0  0  0
    1.0847    1.9747    0.0000 H   0  0  0  0  0  0  0  0  0  0  0  0
    0.3442    1.9747    0.0000 H   0  0  0  0  0  0  0  0  0  0  0  0
    2.2526    0.8730    0.0000 H   0  0  0  0  0  0  0  0  0  0  0  0
    1.8823    1.5143    0.0000 H   0  0  0  0  0  0  0  0  0  0  0  0
    0.3442   -1.1497    0.0000 H   0  0  0  0  0  0  0  0  0  0  0  0
    1.0847   -1.1497    0.0000 H   0  0  0  0  0  0  0  0  0  0  0  0
   -0.8236   -0.0480    0.0000 H   0  0  0  0  0  0  0  0  0  0  0  0
   -0.4533   -0.6893    0.0000 H   0  0  0  0  0  0  0  0  0  0  0  0
  1  2  1  0  0  0  0
  2  3  1  0  0  0  0
  3  4  1  0  0  0  0
  4  5  1  0  0  0  0
  5  6  1  0  0  0  0
  1  6  1  0  0  0  0
  1  7  1  0  0  0  0
  1  8  1  0  0  0  0
  2  9  1  0  0  0  0
  2 10  1  0  0  0  0
  4 11  1  0  0  0  0
  4 12  1  0  0  0  0
  5 13  1  0  0  0  0
  5 14  1  0  0  0  0
M  END
>  <InChIKey>
InChI=1S/C4H8O2/c1-2-6-4-3-5-1/h1-4H2

>  <CASRN>
123-91-1

> <Outcome>
1

>  <Index>
2761

>  <StandardizerResult>
Clear Stereo (ID: ClearStereo)
Wedge Clean (ID: WedgeClean)
Mesomerize (ID: Mesomerize)
Tautomerize (ID: Tautomerize)
Add Explicit Hydrogens (ID: AddExplicitH)
Neutralize (ID: Neutralize)
Clean 2D (ID: Clean2D)

> <knn Distance>


> <CpId>
2761

$$$$
2775
  Mrv1532301301811342D          

 26 27  0  0  0  0            999 V2000
    2.1434   -1.2375    0.0000 Cl  0  0  0  0  0  0  0  0  0  0  0  0
    2.1434   -2.0625    0.0000 C   0  0  0  0  0  0  0  0  0  0  0  0
    2.8579   -2.4750    0.0000 C   0  0  0  0  0  0  0  0  0  0  0  0
    2.8579   -3.3000    0.0000 C   0  0  0  0  0  0  0  0  0  0  0  0
    2.1434   -3.7125    0.0000 C   0  0  0  0  0  0  0  0  0  0  0  0
    2.1434   -4.5375    0.0000 O   0  0  0  0  0  0  0  0  0  0  0  0
    1.4289   -4.9500    0.0000 S   0  0  0  0  0  0  0  0  0  0  0  0
    1.0164   -4.2355    0.0000 O   0  0  0  0  0  0  0  0  0  0  0  0
    1.8414   -5.6645    0.0000 O   0  0  0  0  0  0  0  0  0  0  0  0
    0.7145   -5.3625    0.0000 C   0  0  0  0  0  0  0  0  0  0  0  0
    0.7145   -6.1875    0.0000 C   0  0  0  0  0  0  0  0  0  0  0  0
   -0.0000   -6.6000    0.0000 C   0  0  0  0  0  0  0  0  0  0  0  0
   -0.7145   -6.1875    0.0000 C   0  0  0  0  0  0  0  0  0  0  0  0
   -1.4290   -6.6000    0.0000 Cl  0  0  0  0  0  0  0  0  0  0  0  0
   -0.7145   -5.3625    0.0000 C   0  0  0  0  0  0  0  0  0  0  0  0
   -0.0000   -4.9500    0.0000 C   0  0  0  0  0  0  0  0  0  0  0  0
    1.4289   -3.3000    0.0000 C   0  0  0  0  0  0  0  0  0  0  0  0
    1.4289   -2.4750    0.0000 C   0  0  0  0  0  0  0  0  0  0  0  0
    3.5723   -2.0625    0.0000 H   0  0  0  0  0  0  0  0  0  0  0  0
    3.5723   -3.7125    0.0000 H   0  0  0  0  0  0  0  0  0  0  0  0
    1.4289   -6.6000    0.0000 H   0  0  0  0  0  0  0  0  0  0  0  0
   -0.0000   -7.4250    0.0000 H   0  0  0  0  0  0  0  0  0  0  0  0
   -1.4290   -4.9500    0.0000 H   0  0  0  0  0  0  0  0  0  0  0  0
   -0.0000   -4.1250    0.0000 H   0  0  0  0  0  0  0  0  0  0  0  0
    0.7145   -3.7125    0.0000 H   0  0  0  0  0  0  0  0  0  0  0  0
    0.7145   -2.0625    0.0000 H   0  0  0  0  0  0  0  0  0  0  0  0
  1  2  1  0  0  0  0
  2  3  4  0  0  0  0
  3  4  4  0  0  0  0
  4  5  4  0  0  0  0
  5  6  1  0  0  0  0
  6  7  1  0  0  0  0
  7  8  2  0  0  0  0
  7  9  2  0  0  0  0
  7 10  1  0  0  0  0
 10 11  4  0  0  0  0
 11 12  4  0  0  0  0
 12 13  4  0  0  0  0
 13 14  1  0  0  0  0
 13 15  4  0  0  0  0
 15 16  4  0  0  0  0
 10 16  4  0  0  0  0
  5 17  4  0  0  0  0
 17 18  4  0  0  0  0
  2 18  4  0  0  0  0
  3 19  1  0  0  0  0
  4 20  1  0  0  0  0
 11 21  1  0  0  0  0
 12 22  1  0  0  0  0
 15 23  1  0  0  0  0
 16 24  1  0  0  0  0
 17 25  1  0  0  0  0
 18 26  1  0  0  0  0
M  END
>  <InChIKey>
InChI=1S/C12H8Cl2O3S/c13-9-1-5-11(6-2-9)17-18(15,16)12-7-3-10(14)4-8-12/h1-8H

>  <CASRN>
80-33-1

> <Outcome>
1

>  <Index>
2775

>  <StandardizerResult>
Dearomatize (ID: Dearomatize)
Clear Stereo (ID: ClearStereo)
Wedge Clean (ID: WedgeClean)
Mesomerize (ID: Mesomerize)
Tautomerize (ID: Tautomerize)
Aromatize (ID: Aromatize)
Add Explicit Hydrogens (ID: AddExplicitH)
Neutralize (ID: Neutralize)
Clean 2D (ID: Clean2D)

> <knn Distance>


> <CpId>
2775

$$$$
2778
  Mrv1532301301811342D          

 68 67  0  0  0  0            999 V2000
    8.4286    5.7264    0.0000 C   0  0  0  0  0  0  0  0  0  0  0  0
    9.1431    6.1389    0.0000 C   0  0  0  0  0  0  0  0  0  0  0  0
    9.8576    5.7264    0.0000 C   0  0  0  0  0  0  0  0  0  0  0  0
   10.5720    6.1389    0.0000 C   0  0  0  0  0  0  0  0  0  0  0  0
   11.2865    5.7264    0.0000 C   0  0  0  0  0  0  0  0  0  0  0  0
   11.2865    4.9014    0.0000 C   0  0  0  0  0  0  0  0  0  0  0  0
   12.0010    4.4889    0.0000 C   0  0  0  0  0  0  0  0  0  0  0  0
   12.0010    6.1389    0.0000 C   0  0  0  0  0  0  0  0  0  0  0  0
   12.7154    5.7264    0.0000 O   0  0  0  0  0  0  0  0  0  0  0  0
   13.4299    6.1389    0.0000 C   0  0  0  0  0  0  0  0  0  0  0  0
   13.4299    6.9639    0.0000 O   0  0  0  0  0  0  0  0  0  0  0  0
   14.1444    5.7264    0.0000 C   0  0  0  0  0  0  0  0  0  0  0  0
   14.8589    6.1389    0.0000 C   0  0  0  0  0  0  0  0  0  0  0  0
   15.5733    5.7264    0.0000 C   0  0  0  0  0  0  0  0  0  0  0  0
   16.2878    6.1389    0.0000 C   0  0  0  0  0  0  0  0  0  0  0  0
   17.0023    5.7264    0.0000 C   0  0  0  0  0  0  0  0  0  0  0  0
   17.0023    4.9014    0.0000 O   0  0  0  0  0  0  0  0  0  0  0  0
   17.7167    6.1389    0.0000 O   0  0  0  0  0  0  0  0  0  0  0  0
   18.4312    5.7264    0.0000 C   0  0  0  0  0  0  0  0  0  0  0  0
   19.1457    6.1389    0.0000 C   0  0  0  0  0  0  0  0  0  0  0  0
   19.1457    6.9639    0.0000 C   0  0  0  0  0  0  0  0  0  0  0  0
   19.8602    7.3764    0.0000 C   0  0  0  0  0  0  0  0  0  0  0  0
   19.8602    5.7264    0.0000 C   0  0  0  0  0  0  0  0  0  0  0  0
   20.5746    6.1389    0.0000 C   0  0  0  0  0  0  0  0  0  0  0  0
   21.2891    5.7264    0.0000 C   0  0  0  0  0  0  0  0  0  0  0  0
   22.0036    6.1389    0.0000 C   0  0  0  0  0  0  0  0  0  0  0  0
    8.0161    6.4409    0.0000 H   0  0  0  0  0  0  0  0  0  0  0  0
    7.7141    5.3139    0.0000 H   0  0  0  0  0  0  0  0  0  0  0  0
    8.8411    5.0119    0.0000 H   0  0  0  0  0  0  0  0  0  0  0  0
    9.5133    6.8761    0.0000 H   0  0  0  0  0  0  0  0  0  0  0  0
    8.7728    6.8761    0.0000 H   0  0  0  0  0  0  0  0  0  0  0  0
    9.4873    4.9891    0.0000 H   0  0  0  0  0  0  0  0  0  0  0  0
   10.2278    4.9891    0.0000 H   0  0  0  0  0  0  0  0  0  0  0  0
   10.9423    6.8761    0.0000 H   0  0  0  0  0  0  0  0  0  0  0  0
   10.2018    6.8761    0.0000 H   0  0  0  0  0  0  0  0  0  0  0  0
   10.5720    5.3139    0.0000 H   0  0  0  0  0  0  0  0  0  0  0  0
   10.6545    4.3711    0.0000 H   0  0  0  0  0  0  0  0  0  0  0  0
   11.1432    4.0889    0.0000 H   0  0  0  0  0  0  0  0  0  0  0  0
   12.1619    3.6797    0.0000 H   0  0  0  0  0  0  0  0  0  0  0  0
   12.8252    4.4529    0.0000 H   0  0  0  0  0  0  0  0  0  0  0  0
   12.2318    5.2809    0.0000 H   0  0  0  0  0  0  0  0  0  0  0  0
   12.3712    6.8761    0.0000 H   0  0  0  0  0  0  0  0  0  0  0  0
   11.6307    6.8761    0.0000 H   0  0  0  0  0  0  0  0  0  0  0  0
   13.7741    4.9891    0.0000 H   0  0  0  0  0  0  0  0  0  0  0  0
   14.5146    4.9891    0.0000 H   0  0  0  0  0  0  0  0  0  0  0  0
   15.2291    6.8761    0.0000 H   0  0  0  0  0  0  0  0  0  0  0  0
   14.4886    6.8761    0.0000 H   0  0  0  0  0  0  0  0  0  0  0  0
   15.2031    4.9891    0.0000 H   0  0  0  0  0  0  0  0  0  0  0  0
   15.9436    4.9891    0.0000 H   0  0  0  0  0  0  0  0  0  0  0  0
   16.6581    6.8761    0.0000 H   0  0  0  0  0  0  0  0  0  0  0  0
   15.9175    6.8761    0.0000 H   0  0  0  0  0  0  0  0  0  0  0  0
   18.0609    4.9891    0.0000 H   0  0  0  0  0  0  0  0  0  0  0  0
   18.8015    4.9891    0.0000 H   0  0  0  0  0  0  0  0  0  0  0  0
   18.4312    6.5514    0.0000 H   0  0  0  0  0  0  0  0  0  0  0  0
   19.0024    7.7763    0.0000 H   0  0  0  0  0  0  0  0  0  0  0  0
   18.5137    7.4942    0.0000 H   0  0  0  0  0  0  0  0  0  0  0  0
   20.0910    6.5843    0.0000 H   0  0  0  0  0  0  0  0  0  0  0  0
   20.6844    7.4124    0.0000 H   0  0  0  0  0  0  0  0  0  0  0  0
   20.0211    8.1855    0.0000 H   0  0  0  0  0  0  0  0  0  0  0  0
   19.4899    4.9891    0.0000 H   0  0  0  0  0  0  0  0  0  0  0  0
   20.2304    4.9891    0.0000 H   0  0  0  0  0  0  0  0  0  0  0  0
   21.0633    6.8036    0.0000 H   0  0  0  0  0  0  0  0  0  0  0  0
   20.5746    5.3139    0.0000 H   0  0  0  0  0  0  0  0  0  0  0  0
   21.4324    4.9139    0.0000 H   0  0  0  0  0  0  0  0  0  0  0  0
   21.9211    5.1961    0.0000 H   0  0  0  0  0  0  0  0  0  0  0  0
   22.7848    5.8737    0.0000 H   0  0  0  0  0  0  0  0  0  0  0  0
   22.4468    6.8347    0.0000 H   0  0  0  0  0  0  0  0  0  0  0  0
   21.4331    6.7348    0.0000 H   0  0  0  0  0  0  0  0  0  0  0  0
  1  2  1  0  0  0  0
  2  3  1  0  0  0  0
  3  4  1  0  0  0  0
  4  5  1  0  0  0  0
  5  6  1  0  0  0  0
  6  7  1  0  0  0  0
  5  8  1  0  0  0  0
  8  9  1  0  0  0  0
  9 10  1  0  0  0  0
 10 11  2  0  0  0  0
 10 12  1  0  0  0  0
 12 13  1  0  0  0  0
 13 14  1  0  0  0  0
 14 15  1  0  0  0  0
 15 16  1  0  0  0  0
 16 17  2  0  0  0  0
 16 18  1  0  0  0  0
 18 19  1  0  0  0  0
 19 20  1  0  0  0  0
 20 21  1  0  0  0  0
 21 22  1  0  0  0  0
 20 23  1  0  0  0  0
 23 24  1  0  0  0  0
 24 25  1  0  0  0  0
 25 26  1  0  0  0  0
  1 27  1  0  0  0  0
  1 28  1  0  0  0  0
  1 29  1  0  0  0  0
  2 30  1  0  0  0  0
  2 31  1  0  0  0  0
  3 32  1  0  0  0  0
  3 33  1  0  0  0  0
  4 34  1  0  0  0  0
  4 35  1  0  0  0  0
  5 36  1  0  0  0  0
  6 37  1  0  0  0  0
  6 38  1  0  0  0  0
  7 39  1  0  0  0  0
  7 40  1  0  0  0  0
  7 41  1  0  0  0  0
  8 42  1  0  0  0  0
  8 43  1  0  0  0  0
 12 44  1  0  0  0  0
 12 45  1  0  0  0  0
 13 46  1  0  0  0  0
 13 47  1  0  0  0  0
 14 48  1  0  0  0  0
 14 49  1  0  0  0  0
 15 50  1  0  0  0  0
 15 51  1  0  0  0  0
 19 52  1  0  0  0  0
 19 53  1  0  0  0  0
 20 54  1  0  0  0  0
 21 55  1  0  0  0  0
 21 56  1  0  0  0  0
 22 57  1  0  0  0  0
 22 58  1  0  0  0  0
 22 59  1  0  0  0  0
 23 60  1  0  0  0  0
 23 61  1  0  0  0  0
 24 62  1  0  0  0  0
 24 63  1  0  0  0  0
 25 64  1  0  0  0  0
 25 65  1  0  0  0  0
 26 66  1  0  0  0  0
 26 67  1  0  0  0  0
 26 68  1  0  0  0  0
M  END
>  <InChIKey>
InChI=1S/C22H42O4/c1-5-9-13-19(7-3)17-25-21(23)15-11-12-16-22(24)26-18-20(8-4)14-10-6-2/h19-20H,5-18H2,1-4H3

>  <CASRN>
103-23-1

> <Outcome>
1

>  <Index>
2778

>  <StandardizerResult>
Clear Stereo (ID: ClearStereo)
Wedge Clean (ID: WedgeClean)
Mesomerize (ID: Mesomerize)
Tautomerize (ID: Tautomerize)
Add Explicit Hydrogens (ID: AddExplicitH)
Neutralize (ID: Neutralize)
Clean 2D (ID: Clean2D)

> <knn Distance>


> <CpId>
2778

$$$$
2784
  Mrv1532301301811342D          

 22 23  0  0  0  0            999 V2000
    0.0000   -3.3000    0.0000 O   0  0  0  0  0  0  0  0  0  0  0  0
    0.7145   -2.8875    0.0000 C   0  0  0  0  0  0  0  0  0  0  0  0
    1.4289   -2.4750    0.0000 N   0  0  0  0  0  0  0  0  0  0  0  0
    1.4289   -1.6500    0.0000 C   0  0  0  0  0  0  0  0  0  0  0  0
    0.7145   -1.2375    0.0000 C   0  0  0  0  0  0  0  0  0  0  0  0
    0.7145   -0.4125    0.0000 C   0  0  0  0  0  0  0  0  0  0  0  0
    1.4289   -0.0000    0.0000 C   0  0  0  0  0  0  0  0  0  0  0  0
    2.1434   -0.4125    0.0000 C   0  0  0  0  0  0  0  0  0  0  0  0
    2.8579   -0.0000    0.0000 C   0  0  0  0  0  0  0  0  0  0  0  0
    3.5724   -0.4125    0.0000 C   0  0  0  0  0  0  0  0  0  0  0  0
    3.5724   -1.2375    0.0000 C   0  0  0  0  0  0  0  0  0  0  0  0
    2.8579   -1.6500    0.0000 C   0  0  0  0  0  0  0  0  0  0  0  0
    2.1434   -1.2375    0.0000 C   0  0  0  0  0  0  0  0  0  0  0  0
    2.8579    0.8250    0.0000 N   0  0  0  0  0  0  0  0  0  0  0  0
    2.1434    1.2375    0.0000 C   0  0  0  0  0  0  0  0  0  0  0  0
    1.4289    1.6500    0.0000 O   0  0  0  0  0  0  0  0  0  0  0  0
    0.0000   -1.6500    0.0000 H   0  0  0  0  0  0  0  0  0  0  0  0
    0.0000   -0.0000    0.0000 H   0  0  0  0  0  0  0  0  0  0  0  0
    1.4289    0.8250    0.0000 H   0  0  0  0  0  0  0  0  0  0  0  0
    4.2868   -0.0000    0.0000 H   0  0  0  0  0  0  0  0  0  0  0  0
    4.2868   -1.6500    0.0000 H   0  0  0  0  0  0  0  0  0  0  0  0
    2.8579   -2.4750    0.0000 H   0  0  0  0  0  0  0  0  0  0  0  0
  1  2  2  0  0  0  0
  2  3  2  0  0  0  0
  3  4  1  0  0  0  0
  4  5  4  0  0  0  0
  5  6  4  0  0  0  0
  6  7  4  0  0  0  0
  7  8  4  0  0  0  0
  8  9  4  0  0  0  0
  9 10  4  0  0  0  0
 10 11  4  0  0  0  0
 11 12  4  0  0  0  0
 12 13  4  0  0  0  0
  4 13  4  0  0  0  0
  8 13  4  0  0  0  0
  9 14  1  0  0  0  0
 14 15  2  0  0  0  0
 15 16  2  0  0  0  0
  5 17  1  0  0  0  0
  6 18  1  0  0  0  0
  7 19  1  0  0  0  0
 10 20  1  0  0  0  0
 11 21  1  0  0  0  0
 12 22  1  0  0  0  0
M  END
>  <InChIKey>
InChI=1S/C12H6N2O2/c15-7-13-11-5-1-3-9-10(11)4-2-6-12(9)14-8-16/h1-6H

>  <CASRN>
3173-72-6

> <Outcome>
1

>  <Index>
2784

>  <StandardizerResult>
Dearomatize (ID: Dearomatize)
Clear Stereo (ID: ClearStereo)
Wedge Clean (ID: WedgeClean)
Mesomerize (ID: Mesomerize)
Tautomerize (ID: Tautomerize)
Aromatize (ID: Aromatize)
Add Explicit Hydrogens (ID: AddExplicitH)
Neutralize (ID: Neutralize)
Clean 2D (ID: Clean2D)

> <knn Distance>


> <CpId>
2784

$$$$
2785
  Mrv1532301301811342D          

 21 23  0  0  0  0            999 V2000
    0.9130   -0.8764    0.0000 Cl  0  0  0  0  0  0  0  0  0  0  0  0
    1.7200   -1.0480    0.0000 C   0  0  0  0  0  0  0  0  0  0  0  0
    2.2720   -0.4349    0.0000 C   0  0  0  0  0  0  0  0  0  0  0  0
    3.0790   -0.6064    0.0000 C   0  0  0  0  0  0  0  0  0  0  0  0
    3.7464   -0.1215    0.0000 O   0  0  0  0  0  0  0  0  0  0  0  0
    4.4139   -0.6064    0.0000 C   0  0  0  0  0  0  0  0  0  0  0  0
    5.2208   -0.4349    0.0000 C   0  0  0  0  0  0  0  0  0  0  0  0
    5.7729   -1.0480    0.0000 C   0  0  0  0  0  0  0  0  0  0  0  0
    6.5798   -0.8764    0.0000 Cl  0  0  0  0  0  0  0  0  0  0  0  0
    5.5179   -1.8326    0.0000 C   0  0  0  0  0  0  0  0  0  0  0  0
    6.0700   -2.4457    0.0000 Cl  0  0  0  0  0  0  0  0  0  0  0  0
    4.7110   -2.0041    0.0000 C   0  0  0  0  0  0  0  0  0  0  0  0
    4.4560   -2.7887    0.0000 Cl  0  0  0  0  0  0  0  0  0  0  0  0
    4.1589   -1.3910    0.0000 C   0  0  0  0  0  0  0  0  0  0  0  0
    3.3339   -1.3910    0.0000 C   0  0  0  0  0  0  0  0  0  0  0  0
    2.7819   -2.0041    0.0000 C   0  0  0  0  0  0  0  0  0  0  0  0
    1.9749   -1.8326    0.0000 C   0  0  0  0  0  0  0  0  0  0  0  0
    1.4229   -2.4457    0.0000 Cl  0  0  0  0  0  0  0  0  0  0  0  0
    2.0171    0.3498    0.0000 H   0  0  0  0  0  0  0  0  0  0  0  0
    5.4758    0.3498    0.0000 H   0  0  0  0  0  0  0  0  0  0  0  0
    3.0368   -2.7887    0.0000 H   0  0  0  0  0  0  0  0  0  0  0  0
  1  2  1  0  0  0  0
  2  3  4  0  0  0  0
  3  4  4  0  0  0  0
  4  5  4  0  0  0  0
  5  6  4  0  0  0  0
  6  7  4  0  0  0  0
  7  8  4  0  0  0  0
  8  9  1  0  0  0  0
  8 10  4  0  0  0  0
 10 11  1  0  0  0  0
 10 12  4  0  0  0  0
 12 13  1  0  0  0  0
 12 14  4  0  0  0  0
  6 14  4  0  0  0  0
 14 15  4  0  0  0  0
  4 15  4  0  0  0  0
 15 16  4  0  0  0  0
 16 17  4  0  0  0  0
  2 17  4  0  0  0  0
 17 18  1  0  0  0  0
  3 19  1  0  0  0  0
  7 20  1  0  0  0  0
 16 21  1  0  0  0  0
M  END
>  <InChIKey>
InChI=1S/C12H3Cl5O/c13-5-1-4-8(2-6(5)14)18-9-3-7(15)11(16)12(17)10(4)9/h1-3H

>  <CASRN>
57117-41-6

> <Outcome>
1

>  <Index>
2785

>  <StandardizerResult>
Dearomatize (ID: Dearomatize)
Clear Stereo (ID: ClearStereo)
Wedge Clean (ID: WedgeClean)
Mesomerize (ID: Mesomerize)
Tautomerize (ID: Tautomerize)
Aromatize (ID: Aromatize)
Add Explicit Hydrogens (ID: AddExplicitH)
Neutralize (ID: Neutralize)
Clean 2D (ID: Clean2D)

> <knn Distance>


> <CpId>
2785

$$$$
2788
  Mrv1532301301811342D          

 72 71  0  0  0  0            999 V2000
   13.4211    8.5737    0.0000 C   0  0  0  0  0  0  0  0  0  0  0  0
   14.1355    8.9862    0.0000 C   0  0  0  0  0  0  0  0  0  0  0  0
   14.8500    8.5737    0.0000 C   0  0  0  0  0  0  0  0  0  0  0  0
   15.5645    8.9862    0.0000 C   0  0  0  0  0  0  0  0  0  0  0  0
   16.2789    8.5737    0.0000 O   0  0  0  0  0  0  0  0  0  0  0  0
   16.9934    8.9862    0.0000 C   0  0  0  0  0  0  0  0  0  0  0  0
   17.7079    8.5737    0.0000 C   0  0  0  0  0  0  0  0  0  0  0  0
   18.4224    8.9862    0.0000 O   0  0  0  0  0  0  0  0  0  0  0  0
   19.1368    8.5737    0.0000 C   0  0  0  0  0  0  0  0  0  0  0  0
   19.8513    8.9862    0.0000 C   0  0  0  0  0  0  0  0  0  0  0  0
   20.5658    8.5737    0.0000 O   0  0  0  0  0  0  0  0  0  0  0  0
   21.2802    8.9862    0.0000 C   0  0  0  0  0  0  0  0  0  0  0  0
   21.2802    9.8112    0.0000 O   0  0  0  0  0  0  0  0  0  0  0  0
   21.9947    8.5737    0.0000 C   0  0  0  0  0  0  0  0  0  0  0  0
   22.7092    8.9862    0.0000 C   0  0  0  0  0  0  0  0  0  0  0  0
   23.4237    8.5737    0.0000 C   0  0  0  0  0  0  0  0  0  0  0  0
   24.1381    8.9862    0.0000 C   0  0  0  0  0  0  0  0  0  0  0  0
   24.8526    8.5737    0.0000 C   0  0  0  0  0  0  0  0  0  0  0  0
   24.8526    7.7487    0.0000 O   0  0  0  0  0  0  0  0  0  0  0  0
   25.5671    8.9862    0.0000 O   0  0  0  0  0  0  0  0  0  0  0  0
   26.2815    8.5737    0.0000 C   0  0  0  0  0  0  0  0  0  0  0  0
   26.9960    8.9862    0.0000 C   0  0  0  0  0  0  0  0  0  0  0  0
   27.7105    8.5737    0.0000 O   0  0  0  0  0  0  0  0  0  0  0  0
   28.4249    8.9862    0.0000 C   0  0  0  0  0  0  0  0  0  0  0  0
   29.1394    8.5737    0.0000 C   0  0  0  0  0  0  0  0  0  0  0  0
   29.8539    8.9862    0.0000 O   0  0  0  0  0  0  0  0  0  0  0  0
   30.5684    8.5737    0.0000 C   0  0  0  0  0  0  0  0  0  0  0  0
   31.2828    8.9862    0.0000 C   0  0  0  0  0  0  0  0  0  0  0  0
   31.9973    8.5737    0.0000 C   0  0  0  0  0  0  0  0  0  0  0  0
   32.7118    8.9862    0.0000 C   0  0  0  0  0  0  0  0  0  0  0  0
   13.0086    9.2882    0.0000 H   0  0  0  0  0  0  0  0  0  0  0  0
   12.7066    8.1612    0.0000 H   0  0  0  0  0  0  0  0  0  0  0  0
   13.8336    7.8592    0.0000 H   0  0  0  0  0  0  0  0  0  0  0  0
   14.5058    9.7234    0.0000 H   0  0  0  0  0  0  0  0  0  0  0  0
   13.7653    9.7234    0.0000 H   0  0  0  0  0  0  0  0  0  0  0  0
   14.4797    7.8365    0.0000 H   0  0  0  0  0  0  0  0  0  0  0  0
   15.2203    7.8365    0.0000 H   0  0  0  0  0  0  0  0  0  0  0  0
   15.9347    9.7234    0.0000 H   0  0  0  0  0  0  0  0  0  0  0  0
   15.1942    9.7234    0.0000 H   0  0  0  0  0  0  0  0  0  0  0  0
   17.3637    9.7234    0.0000 H   0  0  0  0  0  0  0  0  0  0  0  0
   16.6232    9.7234    0.0000 H   0  0  0  0  0  0  0  0  0  0  0  0
   17.3376    7.8365    0.0000 H   0  0  0  0  0  0  0  0  0  0  0  0
   18.0781    7.8365    0.0000 H   0  0  0  0  0  0  0  0  0  0  0  0
   18.7666    7.8365    0.0000 H   0  0  0  0  0  0  0  0  0  0  0  0
   19.5071    7.8365    0.0000 H   0  0  0  0  0  0  0  0  0  0  0  0
   20.2216    9.7234    0.0000 H   0  0  0  0  0  0  0  0  0  0  0  0
   19.4810    9.7234    0.0000 H   0  0  0  0  0  0  0  0  0  0  0  0
   21.6244    7.8365    0.0000 H   0  0  0  0  0  0  0  0  0  0  0  0
   22.3650    7.8365    0.0000 H   0  0  0  0  0  0  0  0  0  0  0  0
   23.0794    9.7234    0.0000 H   0  0  0  0  0  0  0  0  0  0  0  0
   22.3389    9.7234    0.0000 H   0  0  0  0  0  0  0  0  0  0  0  0
   23.0534    7.8365    0.0000 H   0  0  0  0  0  0  0  0  0  0  0  0
   23.7939    7.8365    0.0000 H   0  0  0  0  0  0  0  0  0  0  0  0
   24.5084    9.7234    0.0000 H   0  0  0  0  0  0  0  0  0  0  0  0
   23.7679    9.7234    0.0000 H   0  0  0  0  0  0  0  0  0  0  0  0
   25.9113    7.8365    0.0000 H   0  0  0  0  0  0  0  0  0  0  0  0
   26.6518    7.8365    0.0000 H   0  0  0  0  0  0  0  0  0  0  0  0
   27.3663    9.7234    0.0000 H   0  0  0  0  0  0  0  0  0  0  0  0
   26.6257    9.7234    0.0000 H   0  0  0  0  0  0  0  0  0  0  0  0
   28.7952    9.7234    0.0000 H   0  0  0  0  0  0  0  0  0  0  0  0
   28.0547    9.7234    0.0000 H   0  0  0  0  0  0  0  0  0  0  0  0
   28.7692    7.8365    0.0000 H   0  0  0  0  0  0  0  0  0  0  0  0
   29.5097    7.8365    0.0000 H   0  0  0  0  0  0  0  0  0  0  0  0
   30.1981    7.8365    0.0000 H   0  0  0  0  0  0  0  0  0  0  0  0
   30.9386    7.8365    0.0000 H   0  0  0  0  0  0  0  0  0  0  0  0
   31.6531    9.7234    0.0000 H   0  0  0  0  0  0  0  0  0  0  0  0
   30.9126    9.7234    0.0000 H   0  0  0  0  0  0  0  0  0  0  0  0
   31.6270    7.8365    0.0000 H   0  0  0  0  0  0  0  0  0  0  0  0
   32.3676    7.8365    0.0000 H   0  0  0  0  0  0  0  0  0  0  0  0
   33.1243    8.2717    0.0000 H   0  0  0  0  0  0  0  0  0  0  0  0
   33.4262    9.3987    0.0000 H   0  0  0  0  0  0  0  0  0  0  0  0
   32.2993    9.7007    0.0000 H   0  0  0  0  0  0  0  0  0  0  0  0
  1  2  1  0  0  0  0
  2  3  1  0  0  0  0
  3  4  1  0  0  0  0
  4  5  1  0  0  0  0
  5  6  1  0  0  0  0
  6  7  1  0  0  0  0
  7  8  1  0  0  0  0
  8  9  1  0  0  0  0
  9 10  1  0  0  0  0
 10 11  1  0  0  0  0
 11 12  1  0  0  0  0
 12 13  2  0  0  0  0
 12 14  1  0  0  0  0
 14 15  1  0  0  0  0
 15 16  1  0  0  0  0
 16 17  1  0  0  0  0
 17 18  1  0  0  0  0
 18 19  2  0  0  0  0
 18 20  1  0  0  0  0
 20 21  1  0  0  0  0
 21 22  1  0  0  0  0
 22 23  1  0  0  0  0
 23 24  1  0  0  0  0
 24 25  1  0  0  0  0
 25 26  1  0  0  0  0
 26 27  1  0  0  0  0
 27 28  1  0  0  0  0
 28 29  1  0  0  0  0
 29 30  1  0  0  0  0
  1 31  1  0  0  0  0
  1 32  1  0  0  0  0
  1 33  1  0  0  0  0
  2 34  1  0  0  0  0
  2 35  1  0  0  0  0
  3 36  1  0  0  0  0
  3 37  1  0  0  0  0
  4 38  1  0  0  0  0
  4 39  1  0  0  0  0
  6 40  1  0  0  0  0
  6 41  1  0  0  0  0
  7 42  1  0  0  0  0
  7 43  1  0  0  0  0
  9 44  1  0  0  0  0
  9 45  1  0  0  0  0
 10 46  1  0  0  0  0
 10 47  1  0  0  0  0
 14 48  1  0  0  0  0
 14 49  1  0  0  0  0
 15 50  1  0  0  0  0
 15 51  1  0  0  0  0
 16 52  1  0  0  0  0
 16 53  1  0  0  0  0
 17 54  1  0  0  0  0
 17 55  1  0  0  0  0
 21 56  1  0  0  0  0
 21 57  1  0  0  0  0
 22 58  1  0  0  0  0
 22 59  1  0  0  0  0
 24 60  1  0  0  0  0
 24 61  1  0  0  0  0
 25 62  1  0  0  0  0
 25 63  1  0  0  0  0
 27 64  1  0  0  0  0
 27 65  1  0  0  0  0
 28 66  1  0  0  0  0
 28 67  1  0  0  0  0
 29 68  1  0  0  0  0
 29 69  1  0  0  0  0
 30 70  1  0  0  0  0
 30 71  1  0  0  0  0
 30 72  1  0  0  0  0
M  END
>  <InChIKey>
InChI=1S/C22H42O8/c1-3-5-11-25-13-15-27-17-19-29-21(23)9-7-8-10-22(24)30-20-18-28-16-14-26-12-6-4-2/h3-20H2,1-2H3

>  <CASRN>
141-17-3

> <Outcome>
1

>  <Index>
2788

>  <StandardizerResult>
Clear Stereo (ID: ClearStereo)
Wedge Clean (ID: WedgeClean)
Mesomerize (ID: Mesomerize)
Tautomerize (ID: Tautomerize)
Add Explicit Hydrogens (ID: AddExplicitH)
Neutralize (ID: Neutralize)
Clean 2D (ID: Clean2D)

> <knn Distance>


> <CpId>
2788

$$$$
2790
  Mrv1532301301811342D          

  8  7  0  0  0  0            999 V2000
    0.8250   -0.8250    0.0000 C   0  0  0  0  0  0  0  0  0  0  0  0
    0.8250    0.0000    0.0000 P   0  0  0  0  0  0  0  0  0  0  0  0
    0.8250    0.8250    0.0000 Cl  0  0  0  0  0  0  0  0  0  0  0  0
    1.6500   -0.0000    0.0000 Cl  0  0  0  0  0  0  0  0  0  0  0  0
    0.0000    0.0000    0.0000 O   0  0  0  0  0  0  0  0  0  0  0  0
    0.0000   -0.8250    0.0000 H   0  0  0  0  0  0  0  0  0  0  0  0
    0.8250   -1.6500    0.0000 H   0  0  0  0  0  0  0  0  0  0  0  0
    1.6500   -0.8250    0.0000 H   0  0  0  0  0  0  0  0  0  0  0  0
  1  2  1  0  0  0  0
  2  3  1  0  0  0  0
  2  4  1  0  0  0  0
  2  5  2  0  0  0  0
  1  6  1  0  0  0  0
  1  7  1  0  0  0  0
  1  8  1  0  0  0  0
M  END
>  <InChIKey>
InChI=1S/CH3Cl2OP/c1-5(2,3)4/h1H3

>  <CASRN>
676-97-1

> <Outcome>
1

>  <Index>
2790

>  <StandardizerResult>
Clear Stereo (ID: ClearStereo)
Wedge Clean (ID: WedgeClean)
Mesomerize (ID: Mesomerize)
Tautomerize (ID: Tautomerize)
Add Explicit Hydrogens (ID: AddExplicitH)
Neutralize (ID: Neutralize)
Clean 2D (ID: Clean2D)

> <knn Distance>


> <CpId>
2790

$$$$
2791
  Mrv1532301301811342D          

  8  7  0  0  0  0            999 V2000
    1.2375    0.7145    0.0000 C   0  0  0  0  0  0  0  0  0  0  0  0
    0.8250    0.0000    0.0000 C   0  0  0  0  0  0  0  0  0  0  0  0
    1.2375   -0.7145    0.0000 Cl  0  0  0  0  0  0  0  0  0  0  0  0
   -0.0000    0.0000    0.0000 Cl  0  0  0  0  0  0  0  0  0  0  0  0
    1.9520    0.3020    0.0000 H   0  0  0  0  0  0  0  0  0  0  0  0
    1.6500    1.4290    0.0000 H   0  0  0  0  0  0  0  0  0  0  0  0
    0.5230    1.1270    0.0000 H   0  0  0  0  0  0  0  0  0  0  0  0
    1.6500    0.0000    0.0000 H   0  0  0  0  0  0  0  0  0  0  0  0
  1  2  1  0  0  0  0
  2  3  1  0  0  0  0
  2  4  1  0  0  0  0
  1  5  1  0  0  0  0
  1  6  1  0  0  0  0
  1  7  1  0  0  0  0
  2  8  1  0  0  0  0
M  END
>  <InChIKey>
InChI=1S/C2H4Cl2/c1-2(3)4/h2H,1H3

>  <CASRN>
75-34-3

> <Outcome>
1

>  <Index>
2791

>  <StandardizerResult>
Clear Stereo (ID: ClearStereo)
Wedge Clean (ID: WedgeClean)
Mesomerize (ID: Mesomerize)
Tautomerize (ID: Tautomerize)
Add Explicit Hydrogens (ID: AddExplicitH)
Neutralize (ID: Neutralize)
Clean 2D (ID: Clean2D)

> <knn Distance>


> <CpId>
2791

$$$$
2793
  Mrv1532301301811342D          

 35 35  0  0  0  0            999 V2000
   -0.7198    2.0291    0.0000 C   0  0  0  0  0  0  0  0  0  0  0  0
   -0.0054    2.4416    0.0000 C   0  0  0  0  0  0  0  0  0  0  0  0
    0.7091    2.0291    0.0000 C   0  0  0  0  0  0  0  0  0  0  0  0
    0.7091    1.2041    0.0000 C   0  0  0  0  0  0  0  0  0  0  0  0
    1.4236    0.7916    0.0000 C   0  0  0  0  0  0  0  0  0  0  0  0
    1.4236   -0.0334    0.0000 C   0  0  0  0  0  0  0  0  0  0  0  0
    0.7091   -0.4459    0.0000 C   0  0  0  0  0  0  0  0  0  0  0  0
   -0.0054   -0.0334    0.0000 C   0  0  0  0  0  0  0  0  0  0  0  0
   -0.0054    0.7916    0.0000 C   0  0  0  0  0  0  0  0  0  0  0  0
    0.7091   -1.2709    0.0000 C   0  0  0  0  0  0  0  0  0  0  0  0
    0.7091   -2.0959    0.0000 C   0  0  0  0  0  0  0  0  0  0  0  0
    1.5341   -1.2709    0.0000 C   0  0  0  0  0  0  0  0  0  0  0  0
   -0.1159   -1.2709    0.0000 C   0  0  0  0  0  0  0  0  0  0  0  0
   -0.0054    3.2666    0.0000 C   0  0  0  0  0  0  0  0  0  0  0  0
   -0.7198    3.6791    0.0000 O   0  0  0  0  0  0  0  0  0  0  0  0
   -1.1323    2.7436    0.0000 H   0  0  0  0  0  0  0  0  0  0  0  0
   -1.4343    1.6166    0.0000 H   0  0  0  0  0  0  0  0  0  0  0  0
   -0.3073    1.3147    0.0000 H   0  0  0  0  0  0  0  0  0  0  0  0
   -0.0054    1.6166    0.0000 H   0  0  0  0  0  0  0  0  0  0  0  0
    1.5327    2.0771    0.0000 H   0  0  0  0  0  0  0  0  0  0  0  0
    1.1625    2.7184    0.0000 H   0  0  0  0  0  0  0  0  0  0  0  0
    2.1381    1.2041    0.0000 H   0  0  0  0  0  0  0  0  0  0  0  0
    2.1381   -0.4459    0.0000 H   0  0  0  0  0  0  0  0  0  0  0  0
   -0.7198   -0.4459    0.0000 H   0  0  0  0  0  0  0  0  0  0  0  0
   -0.8022    0.5781    0.0000 H   0  0  0  0  0  0  0  0  0  0  0  0
   -0.1159   -2.0959    0.0000 H   0  0  0  0  0  0  0  0  0  0  0  0
    0.7091   -2.9209    0.0000 H   0  0  0  0  0  0  0  0  0  0  0  0
    1.5341   -2.0959    0.0000 H   0  0  0  0  0  0  0  0  0  0  0  0
    2.2963   -1.5866    0.0000 H   0  0  0  0  0  0  0  0  0  0  0  0
    2.1175   -0.6875    0.0000 H   0  0  0  0  0  0  0  0  0  0  0  0
    1.2184   -0.5087    0.0000 H   0  0  0  0  0  0  0  0  0  0  0  0
    0.1998   -0.5087    0.0000 H   0  0  0  0  0  0  0  0  0  0  0  0
   -0.6993   -0.6875    0.0000 H   0  0  0  0  0  0  0  0  0  0  0  0
   -0.8781   -1.5866    0.0000 H   0  0  0  0  0  0  0  0  0  0  0  0
    0.7091    3.6791    0.0000 H   0  0  0  0  0  0  0  0  0  0  0  0
  1  2  1  0  0  0  0
  2  3  1  0  0  0  0
  3  4  1  0  0  0  0
  4  5  4  0  0  0  0
  5  6  4  0  0  0  0
  6  7  4  0  0  0  0
  7  8  4  0  0  0  0
  8  9  4  0  0  0  0
  4  9  4  0  0  0  0
  7 10  1  0  0  0  0
 10 11  1  0  0  0  0
 10 12  1  0  0  0  0
 10 13  1  0  0  0  0
  2 14  1  0  0  0  0
 14 15  2  0  0  0  0
  1 16  1  0  0  0  0
  1 17  1  0  0  0  0
  1 18  1  0  0  0  0
  2 19  1  0  0  0  0
  3 20  1  0  0  0  0
  3 21  1  0  0  0  0
  5 22  1  0  0  0  0
  6 23  1  0  0  0  0
  8 24  1  0  0  0  0
  9 25  1  0  0  0  0
 11 26  1  0  0  0  0
 11 27  1  0  0  0  0
 11 28  1  0  0  0  0
 12 29  1  0  0  0  0
 12 30  1  0  0  0  0
 12 31  1  0  0  0  0
 13 32  1  0  0  0  0
 13 33  1  0  0  0  0
 13 34  1  0  0  0  0
 14 35  1  0  0  0  0
M  END
>  <InChIKey>
InChI=1S/C14H20O/c1-11(10-15)9-12-5-7-13(8-6-12)14(2,3)4/h5-8,10-11H,9H2,1-4H3

>  <UN GHS>
1

>  <CASRN>
80-54-6

> <Outcome>
1

>  <Index>
2793

>  <StandardizerResult>
Dearomatize (ID: Dearomatize)
Clear Stereo (ID: ClearStereo)
Wedge Clean (ID: WedgeClean)
Mesomerize (ID: Mesomerize)
Tautomerize (ID: Tautomerize)
Aromatize (ID: Aromatize)
Add Explicit Hydrogens (ID: AddExplicitH)
Neutralize (ID: Neutralize)
Clean 2D (ID: Clean2D)

> <knn Distance>


> <CpId>
2793

$$$$
2796
  Mrv1532301301811342D          

 14 14  0  0  0  0            999 V2000
    0.7145    2.0625    0.0000 N   0  0  0  0  0  0  0  0  0  0  0  0
    0.7145    1.2375    0.0000 C   0  0  0  0  0  0  0  0  0  0  0  0
    1.4289    0.8250    0.0000 C   0  0  0  0  0  0  0  0  0  0  0  0
    1.4289    0.0000    0.0000 C   0  0  0  0  0  0  0  0  0  0  0  0
    0.7145   -0.4125    0.0000 C   0  0  0  0  0  0  0  0  0  0  0  0
    0.7145   -1.2375    0.0000 Cl  0  0  0  0  0  0  0  0  0  0  0  0
   -0.0000    0.0000    0.0000 C   0  0  0  0  0  0  0  0  0  0  0  0
   -0.7145   -0.4125    0.0000 Cl  0  0  0  0  0  0  0  0  0  0  0  0
   -0.0000    0.8250    0.0000 C   0  0  0  0  0  0  0  0  0  0  0  0
    1.4289    2.4750    0.0000 H   0  0  0  0  0  0  0  0  0  0  0  0
   -0.0000    2.4750    0.0000 H   0  0  0  0  0  0  0  0  0  0  0  0
    2.1434    1.2375    0.0000 H   0  0  0  0  0  0  0  0  0  0  0  0
    2.1434   -0.4125    0.0000 H   0  0  0  0  0  0  0  0  0  0  0  0
   -0.7145    1.2375    0.0000 H   0  0  0  0  0  0  0  0  0  0  0  0
  1  2  1  0  0  0  0
  2  3  4  0  0  0  0
  3  4  4  0  0  0  0
  4  5  4  0  0  0  0
  5  6  1  0  0  0  0
  5  7  4  0  0  0  0
  7  8  1  0  0  0  0
  7  9  4  0  0  0  0
  2  9  4  0  0  0  0
  1 10  1  0  0  0  0
  1 11  1  0  0  0  0
  3 12  1  0  0  0  0
  4 13  1  0  0  0  0
  9 14  1  0  0  0  0
M  END
>  <InChIKey>
InChI=1S/C6H5Cl2N/c7-5-2-1-4(9)3-6(5)8/h1-3H,9H2

>  <CASRN>
95-76-1

> <Outcome>
1

>  <Index>
2796

>  <StandardizerResult>
Dearomatize (ID: Dearomatize)
Clear Stereo (ID: ClearStereo)
Wedge Clean (ID: WedgeClean)
Mesomerize (ID: Mesomerize)
Tautomerize (ID: Tautomerize)
Aromatize (ID: Aromatize)
Add Explicit Hydrogens (ID: AddExplicitH)
Neutralize (ID: Neutralize)
Clean 2D (ID: Clean2D)

> <knn Distance>


> <CpId>
2796

$$$$
2798
  Mrv1532301301811342D          

 16 16  0  0  0  0            999 V2000
    1.4730   -0.3607    0.0000 C   0  0  0  0  0  0  0  0  0  0  0  0
    0.9881    0.3067    0.0000 N   0  0  0  0  0  0  0  0  0  0  0  0
    0.1631    0.3067    0.0000 C   0  0  0  0  0  0  0  0  0  0  0  0
   -0.0918    1.0913    0.0000 C   0  0  0  0  0  0  0  0  0  0  0  0
    0.5756    1.5762    0.0000 C   0  0  0  0  0  0  0  0  0  0  0  0
    1.2430    1.0913    0.0000 C   0  0  0  0  0  0  0  0  0  0  0  0
    2.0277    1.3463    0.0000 O   0  0  0  0  0  0  0  0  0  0  0  0
    0.8056   -0.8457    0.0000 H   0  0  0  0  0  0  0  0  0  0  0  0
    1.9580   -1.0282    0.0000 H   0  0  0  0  0  0  0  0  0  0  0  0
    2.1405    0.1242    0.0000 H   0  0  0  0  0  0  0  0  0  0  0  0
   -0.5784   -0.0550    0.0000 H   0  0  0  0  0  0  0  0  0  0  0  0
    0.0483   -0.5103    0.0000 H   0  0  0  0  0  0  0  0  0  0  0  0
   -0.6649    1.6848    0.0000 H   0  0  0  0  0  0  0  0  0  0  0  0
   -0.9043    0.9481    0.0000 H   0  0  0  0  0  0  0  0  0  0  0  0
    0.9629    2.3047    0.0000 H   0  0  0  0  0  0  0  0  0  0  0  0
    0.1883    2.3047    0.0000 H   0  0  0  0  0  0  0  0  0  0  0  0
  1  2  1  0  0  0  0
  2  3  1  0  0  0  0
  3  4  1  0  0  0  0
  4  5  1  0  0  0  0
  5  6  1  0  0  0  0
  2  6  1  0  0  0  0
  6  7  2  0  0  0  0
  1  8  1  0  0  0  0
  1  9  1  0  0  0  0
  1 10  1  0  0  0  0
  3 11  1  0  0  0  0
  3 12  1  0  0  0  0
  4 13  1  0  0  0  0
  4 14  1  0  0  0  0
  5 15  1  0  0  0  0
  5 16  1  0  0  0  0
M  END
>  <InChIKey>
InChI=1S/C5H9NO/c1-6-4-2-3-5(6)7/h2-4H2,1H3

>  <CASRN>
872-50-4

> <Outcome>
1

>  <Index>
2798

>  <StandardizerResult>
Clear Stereo (ID: ClearStereo)
Wedge Clean (ID: WedgeClean)
Mesomerize (ID: Mesomerize)
Tautomerize (ID: Tautomerize)
Add Explicit Hydrogens (ID: AddExplicitH)
Neutralize (ID: Neutralize)
Clean 2D (ID: Clean2D)

> <knn Distance>


> <CpId>
2798

$$$$
2800
  Mrv1532301301811342D          

 23 23  0  0  0  0            999 V2000
   -0.0041    3.2825    0.0000 N   0  0  0  0  0  0  0  0  0  0  0  0
   -0.0041    2.4575    0.0000 C   0  0  0  0  0  0  0  0  0  0  0  0
    0.7103    2.0450    0.0000 C   0  0  0  0  0  0  0  0  0  0  0  0
    1.4248    2.4575    0.0000 O   0  0  0  0  0  0  0  0  0  0  0  0
    0.7103    1.2200    0.0000 C   0  0  0  0  0  0  0  0  0  0  0  0
    1.4248    0.8075    0.0000 C   0  0  0  0  0  0  0  0  0  0  0  0
    1.4248   -0.0175    0.0000 C   0  0  0  0  0  0  0  0  0  0  0  0
    0.7103   -0.4300    0.0000 C   0  0  0  0  0  0  0  0  0  0  0  0
    0.7103   -1.2550    0.0000 O   0  0  0  0  0  0  0  0  0  0  0  0
   -0.0041   -0.0175    0.0000 C   0  0  0  0  0  0  0  0  0  0  0  0
   -0.7186   -0.4300    0.0000 O   0  0  0  0  0  0  0  0  0  0  0  0
   -0.0041    0.8075    0.0000 C   0  0  0  0  0  0  0  0  0  0  0  0
    0.7103    3.6950    0.0000 H   0  0  0  0  0  0  0  0  0  0  0  0
   -0.7186    3.6950    0.0000 H   0  0  0  0  0  0  0  0  0  0  0  0
   -0.8278    2.4095    0.0000 H   0  0  0  0  0  0  0  0  0  0  0  0
   -0.4575    1.7682    0.0000 H   0  0  0  0  0  0  0  0  0  0  0  0
    0.7103    2.8700    0.0000 H   0  0  0  0  0  0  0  0  0  0  0  0
    2.2498    2.4575    0.0000 H   0  0  0  0  0  0  0  0  0  0  0  0
    2.1393    1.2200    0.0000 H   0  0  0  0  0  0  0  0  0  0  0  0
    2.1393   -0.4300    0.0000 H   0  0  0  0  0  0  0  0  0  0  0  0
   -0.0041   -1.6675    0.0000 H   0  0  0  0  0  0  0  0  0  0  0  0
   -1.4331   -0.0175    0.0000 H   0  0  0  0  0  0  0  0  0  0  0  0
   -0.7186    1.2200    0.0000 H   0  0  0  0  0  0  0  0  0  0  0  0
  1  2  1  0  0  0  0
  2  3  1  0  0  0  0
  3  4  1  0  0  0  0
  3  5  1  0  0  0  0
  5  6  4  0  0  0  0
  6  7  4  0  0  0  0
  7  8  4  0  0  0  0
  8  9  1  0  0  0  0
  8 10  4  0  0  0  0
 10 11  1  0  0  0  0
 10 12  4  0  0  0  0
  5 12  4  0  0  0  0
  1 13  1  0  0  0  0
  1 14  1  0  0  0  0
  2 15  1  0  0  0  0
  2 16  1  0  0  0  0
  3 17  1  0  0  0  0
  4 18  1  0  0  0  0
  6 19  1  0  0  0  0
  7 20  1  0  0  0  0
  9 21  1  0  0  0  0
 11 22  1  0  0  0  0
 12 23  1  0  0  0  0
M  END
>  <InChIKey>
InChI=1S/C8H11NO3/c9-4-8(12)5-1-2-6(10)7(11)3-5/h1-3,8,10-12H,4,9H2

>  <CASRN>
51-41-2

> <Outcome>
1

>  <Index>
2800

>  <StandardizerResult>
Dearomatize (ID: Dearomatize)
Clear Stereo (ID: ClearStereo)
Wedge Clean (ID: WedgeClean)
Mesomerize (ID: Mesomerize)
Tautomerize (ID: Tautomerize)
Aromatize (ID: Aromatize)
Add Explicit Hydrogens (ID: AddExplicitH)
Neutralize (ID: Neutralize)
Clean 2D (ID: Clean2D)

> <knn Distance>


> <CpId>
2800

$$$$
2805
  Mrv1532301301811342D          

 34 33  0  0  0  0            999 V2000
    2.2855    2.1357    0.0000 C   0  0  0  0  0  0  0  0  0  0  0  0
    2.9999    2.5482    0.0000 C   0  0  0  0  0  0  0  0  0  0  0  0
    3.7144    2.1357    0.0000 C   0  0  0  0  0  0  0  0  0  0  0  0
    4.4289    2.5482    0.0000 C   0  0  0  0  0  0  0  0  0  0  0  0
    5.1433    2.1357    0.0000 N   0  0  0  0  0  0  0  0  0  0  0  0
    5.1433    1.3107    0.0000 C   0  0  0  0  0  0  0  0  0  0  0  0
    5.8578    0.8982    0.0000 C   0  0  0  0  0  0  0  0  0  0  0  0
    5.8578    2.5482    0.0000 C   0  0  0  0  0  0  0  0  0  0  0  0
    5.8578    3.3732    0.0000 O   0  0  0  0  0  0  0  0  0  0  0  0
    6.5723    2.1357    0.0000 S   0  0  0  0  0  0  0  0  0  0  0  0
    7.2868    2.5482    0.0000 C   0  0  0  0  0  0  0  0  0  0  0  0
    8.0012    2.1357    0.0000 C   0  0  0  0  0  0  0  0  0  0  0  0
    8.7157    2.5482    0.0000 C   0  0  0  0  0  0  0  0  0  0  0  0
    1.8730    2.8502    0.0000 H   0  0  0  0  0  0  0  0  0  0  0  0
    1.5710    1.7232    0.0000 H   0  0  0  0  0  0  0  0  0  0  0  0
    2.6980    1.4212    0.0000 H   0  0  0  0  0  0  0  0  0  0  0  0
    3.3702    3.2854    0.0000 H   0  0  0  0  0  0  0  0  0  0  0  0
    2.6297    3.2854    0.0000 H   0  0  0  0  0  0  0  0  0  0  0  0
    3.3441    1.3984    0.0000 H   0  0  0  0  0  0  0  0  0  0  0  0
    4.0847    1.3984    0.0000 H   0  0  0  0  0  0  0  0  0  0  0  0
    4.7991    3.2854    0.0000 H   0  0  0  0  0  0  0  0  0  0  0  0
    4.0586    3.2854    0.0000 H   0  0  0  0  0  0  0  0  0  0  0  0
    4.3197    1.2627    0.0000 H   0  0  0  0  0  0  0  0  0  0  0  0
    4.6900    0.6214    0.0000 H   0  0  0  0  0  0  0  0  0  0  0  0
    5.4453    0.1837    0.0000 H   0  0  0  0  0  0  0  0  0  0  0  0
    6.5723    0.4857    0.0000 H   0  0  0  0  0  0  0  0  0  0  0  0
    6.2703    1.6127    0.0000 H   0  0  0  0  0  0  0  0  0  0  0  0
    7.6570    3.2854    0.0000 H   0  0  0  0  0  0  0  0  0  0  0  0
    6.9165    3.2854    0.0000 H   0  0  0  0  0  0  0  0  0  0  0  0
    7.6310    1.3984    0.0000 H   0  0  0  0  0  0  0  0  0  0  0  0
    8.3715    1.3984    0.0000 H   0  0  0  0  0  0  0  0  0  0  0  0
    9.1282    1.8337    0.0000 H   0  0  0  0  0  0  0  0  0  0  0  0
    9.4302    2.9607    0.0000 H   0  0  0  0  0  0  0  0  0  0  0  0
    8.3032    3.2627    0.0000 H   0  0  0  0  0  0  0  0  0  0  0  0
  1  2  1  0  0  0  0
  2  3  1  0  0  0  0
  3  4  1  0  0  0  0
  4  5  1  0  0  0  0
  5  6  1  0  0  0  0
  6  7  1  0  0  0  0
  5  8  1  0  0  0  0
  8  9  2  0  0  0  0
  8 10  1  0  0  0  0
 10 11  1  0  0  0  0
 11 12  1  0  0  0  0
 12 13  1  0  0  0  0
  1 14  1  0  0  0  0
  1 15  1  0  0  0  0
  1 16  1  0  0  0  0
  2 17  1  0  0  0  0
  2 18  1  0  0  0  0
  3 19  1  0  0  0  0
  3 20  1  0  0  0  0
  4 21  1  0  0  0  0
  4 22  1  0  0  0  0
  6 23  1  0  0  0  0
  6 24  1  0  0  0  0
  7 25  1  0  0  0  0
  7 26  1  0  0  0  0
  7 27  1  0  0  0  0
 11 28  1  0  0  0  0
 11 29  1  0  0  0  0
 12 30  1  0  0  0  0
 12 31  1  0  0  0  0
 13 32  1  0  0  0  0
 13 33  1  0  0  0  0
 13 34  1  0  0  0  0
M  END
>  <InChIKey>
InChI=1S/C10H21NOS/c1-4-7-8-11(6-3)10(12)13-9-5-2/h4-9H2,1-3H3

>  <CASRN>
1114-71-2

> <Outcome>
1

>  <Index>
2805

>  <StandardizerResult>
Clear Stereo (ID: ClearStereo)
Wedge Clean (ID: WedgeClean)
Mesomerize (ID: Mesomerize)
Tautomerize (ID: Tautomerize)
Add Explicit Hydrogens (ID: AddExplicitH)
Neutralize (ID: Neutralize)
Clean 2D (ID: Clean2D)

> <knn Distance>


> <CpId>
2805

$$$$
2811
  Mrv1532301301811342D          

 17 16  0  0  0  0            999 V2000
    1.2894    0.7410    0.0000 C   0  0  0  0  0  0  0  0  0  0  0  0
    0.8769    0.0266    0.0000 C   0  0  0  0  0  0  0  0  0  0  0  0
    1.2894   -0.6879    0.0000 C   0  0  0  0  0  0  0  0  0  0  0  0
    0.0519    0.0266    0.0000 C   0  0  0  0  0  0  0  0  0  0  0  0
   -0.3606   -0.6879    0.0000 C   0  0  0  0  0  0  0  0  0  0  0  0
    0.0519   -1.4024    0.0000 C   0  0  0  0  0  0  0  0  0  0  0  0
   -1.1856   -0.6879    0.0000 O   0  0  0  0  0  0  0  0  0  0  0  0
    2.0039    0.3285    0.0000 H   0  0  0  0  0  0  0  0  0  0  0  0
    1.7019    1.4555    0.0000 H   0  0  0  0  0  0  0  0  0  0  0  0
    0.5749    1.1535    0.0000 H   0  0  0  0  0  0  0  0  0  0  0  0
    0.5749   -1.1004    0.0000 H   0  0  0  0  0  0  0  0  0  0  0  0
    1.7019   -1.4024    0.0000 H   0  0  0  0  0  0  0  0  0  0  0  0
    2.0039   -0.2754    0.0000 H   0  0  0  0  0  0  0  0  0  0  0  0
   -0.3606    0.7410    0.0000 H   0  0  0  0  0  0  0  0  0  0  0  0
   -0.7661   -1.5101    0.0000 H   0  0  0  0  0  0  0  0  0  0  0  0
   -0.1616   -2.1993    0.0000 H   0  0  0  0  0  0  0  0  0  0  0  0
    0.7064   -1.9046    0.0000 H   0  0  0  0  0  0  0  0  0  0  0  0
  1  2  1  0  0  0  0
  2  3  1  0  0  0  0
  2  4  2  0  0  0  0
  4  5  1  0  0  0  0
  5  6  1  0  0  0  0
  5  7  2  0  0  0  0
  1  8  1  0  0  0  0
  1  9  1  0  0  0  0
  1 10  1  0  0  0  0
  3 11  1  0  0  0  0
  3 12  1  0  0  0  0
  3 13  1  0  0  0  0
  4 14  1  0  0  0  0
  6 15  1  0  0  0  0
  6 16  1  0  0  0  0
  6 17  1  0  0  0  0
M  END
>  <InChIKey>
InChI=1S/C6H10O/c1-5(2)4-6(3)7/h4H,1-3H3

>  <CASRN>
141-79-7

> <Outcome>
1

>  <Index>
2811

>  <StandardizerResult>
Clear Stereo (ID: ClearStereo)
Wedge Clean (ID: WedgeClean)
Mesomerize (ID: Mesomerize)
Tautomerize (ID: Tautomerize)
Add Explicit Hydrogens (ID: AddExplicitH)
Neutralize (ID: Neutralize)
Clean 2D (ID: Clean2D)

> <knn Distance>


> <CpId>
2811

$$$$
2815
  Mrv1532301301811342D          

 72 73  0  0  0  0            999 V2000
   -0.8206   -7.9205    0.0000 C   0  0  0  0  0  0  0  0  0  0  0  0
   -0.8206   -7.0955    0.0000 C   0  0  0  0  0  0  0  0  0  0  0  0
    0.0044   -7.0955    0.0000 C   0  0  0  0  0  0  0  0  0  0  0  0
   -1.6456   -7.0955    0.0000 C   0  0  0  0  0  0  0  0  0  0  0  0
   -0.8206   -6.2705    0.0000 C   0  0  0  0  0  0  0  0  0  0  0  0
   -0.1061   -5.8580    0.0000 C   0  0  0  0  0  0  0  0  0  0  0  0
    0.3064   -6.5725    0.0000 C   0  0  0  0  0  0  0  0  0  0  0  0
   -0.5186   -5.1436    0.0000 C   0  0  0  0  0  0  0  0  0  0  0  0
    0.6084   -5.4455    0.0000 C   0  0  0  0  0  0  0  0  0  0  0  0
    0.6084   -4.6205    0.0000 C   0  0  0  0  0  0  0  0  0  0  0  0
    1.3228   -4.2080    0.0000 C   0  0  0  0  0  0  0  0  0  0  0  0
    2.0373   -4.6205    0.0000 C   0  0  0  0  0  0  0  0  0  0  0  0
    2.7518   -4.2080    0.0000 O   0  0  0  0  0  0  0  0  0  0  0  0
    3.4662   -4.6205    0.0000 C   0  0  0  0  0  0  0  0  0  0  0  0
    4.1807   -4.2080    0.0000 C   0  0  0  0  0  0  0  0  0  0  0  0
    4.8952   -4.6205    0.0000 O   0  0  0  0  0  0  0  0  0  0  0  0
    5.6097   -4.2080    0.0000 C   0  0  0  0  0  0  0  0  0  0  0  0
    6.3241   -4.6205    0.0000 C   0  0  0  0  0  0  0  0  0  0  0  0
    7.0386   -4.2080    0.0000 N   0  3  0  0  0  0  0  0  0  0  0  0
    7.4511   -4.9225    0.0000 C   0  0  0  0  0  0  0  0  0  0  0  0
    6.6261   -3.4936    0.0000 C   0  0  0  0  0  0  0  0  0  0  0  0
    7.7531   -3.7955    0.0000 C   0  0  0  0  0  0  0  0  0  0  0  0
    8.4675   -4.2080    0.0000 C   0  0  0  0  0  0  0  0  0  0  0  0
    9.1820   -3.7955    0.0000 C   0  0  0  0  0  0  0  0  0  0  0  0
    9.8965   -4.2080    0.0000 C   0  0  0  0  0  0  0  0  0  0  0  0
    9.8965   -5.0330    0.0000 C   0  0  0  0  0  0  0  0  0  0  0  0
    9.1820   -5.4455    0.0000 C   0  0  0  0  0  0  0  0  0  0  0  0
    8.4675   -5.0330    0.0000 C   0  0  0  0  0  0  0  0  0  0  0  0
    2.0373   -5.4455    0.0000 C   0  0  0  0  0  0  0  0  0  0  0  0
    1.3228   -5.8580    0.0000 C   0  0  0  0  0  0  0  0  0  0  0  0
   -1.6456   -7.9205    0.0000 H   0  0  0  0  0  0  0  0  0  0  0  0
   -0.8206   -8.7455    0.0000 H   0  0  0  0  0  0  0  0  0  0  0  0
    0.0044   -7.9205    0.0000 H   0  0  0  0  0  0  0  0  0  0  0  0
    0.6364   -7.6258    0.0000 H   0  0  0  0  0  0  0  0  0  0  0  0
    0.8169   -6.9523    0.0000 H   0  0  0  0  0  0  0  0  0  0  0  0
   -0.4081   -6.3811    0.0000 H   0  0  0  0  0  0  0  0  0  0  0  0
   -1.3299   -6.3333    0.0000 H   0  0  0  0  0  0  0  0  0  0  0  0
   -2.2289   -6.5122    0.0000 H   0  0  0  0  0  0  0  0  0  0  0  0
   -2.4078   -7.4112    0.0000 H   0  0  0  0  0  0  0  0  0  0  0  0
   -0.7107   -5.4529    0.0000 H   0  0  0  0  0  0  0  0  0  0  0  0
   -1.4007   -5.6840    0.0000 H   0  0  0  0  0  0  0  0  0  0  0  0
    1.1306   -6.5363    0.0000 H   0  0  0  0  0  0  0  0  0  0  0  0
    0.9226   -6.0239    0.0000 H   0  0  0  0  0  0  0  0  0  0  0  0
    0.4377   -5.7580    0.0000 H   0  0  0  0  0  0  0  0  0  0  0  0
    0.2800   -4.9364    0.0000 H   0  0  0  0  0  0  0  0  0  0  0  0
   -0.5054   -4.3187    0.0000 H   0  0  0  0  0  0  0  0  0  0  0  0
   -1.3101   -4.9110    0.0000 H   0  0  0  0  0  0  0  0  0  0  0  0
    0.1125   -3.9612    0.0000 H   0  0  0  0  0  0  0  0  0  0  0  0
    1.3228   -3.3830    0.0000 H   0  0  0  0  0  0  0  0  0  0  0  0
    3.0960   -5.3578    0.0000 H   0  0  0  0  0  0  0  0  0  0  0  0
    3.8365   -5.3578    0.0000 H   0  0  0  0  0  0  0  0  0  0  0  0
    4.5510   -3.4708    0.0000 H   0  0  0  0  0  0  0  0  0  0  0  0
    3.8105   -3.4708    0.0000 H   0  0  0  0  0  0  0  0  0  0  0  0
    5.9799   -3.4708    0.0000 H   0  0  0  0  0  0  0  0  0  0  0  0
    5.2394   -3.4708    0.0000 H   0  0  0  0  0  0  0  0  0  0  0  0
    5.9539   -5.3578    0.0000 H   0  0  0  0  0  0  0  0  0  0  0  0
    6.6944   -5.3578    0.0000 H   0  0  0  0  0  0  0  0  0  0  0  0
    7.5578   -5.7406    0.0000 H   0  0  0  0  0  0  0  0  0  0  0  0
    8.2478   -5.1367    0.0000 H   0  0  0  0  0  0  0  0  0  0  0  0
    7.9536   -4.2682    0.0000 H   0  0  0  0  0  0  0  0  0  0  0  0
    7.4511   -3.5008    0.0000 H   0  0  0  0  0  0  0  0  0  0  0  0
    7.0511   -2.7865    0.0000 H   0  0  0  0  0  0  0  0  0  0  0  0
    6.2326   -2.7684    0.0000 H   0  0  0  0  0  0  0  0  0  0  0  0
    8.4993   -3.4438    0.0000 H   0  0  0  0  0  0  0  0  0  0  0  0
    7.8897   -2.9819    0.0000 H   0  0  0  0  0  0  0  0  0  0  0  0
    9.5773   -3.0714    0.0000 H   0  0  0  0  0  0  0  0  0  0  0  0
   10.6110   -3.7955    0.0000 H   0  0  0  0  0  0  0  0  0  0  0  0
   10.6110   -5.4455    0.0000 H   0  0  0  0  0  0  0  0  0  0  0  0
    9.1820   -6.2705    0.0000 H   0  0  0  0  0  0  0  0  0  0  0  0
    8.4334   -5.8573    0.0000 H   0  0  0  0  0  0  0  0  0  0  0  0
    2.7518   -5.8580    0.0000 H   0  0  0  0  0  0  0  0  0  0  0  0
    1.9737   -6.3649    0.0000 H   0  0  0  0  0  0  0  0  0  0  0  0
  1  2  1  0  0  0  0
  2  3  1  0  0  0  0
  2  4  1  0  0  0  0
  2  5  1  0  0  0  0
  5  6  1  0  0  0  0
  6  7  1  0  0  0  0
  6  8  1  0  0  0  0
  6  9  1  0  0  0  0
  9 10  4  0  0  0  0
 10 11  4  0  0  0  0
 11 12  4  0  0  0  0
 12 13  1  0  0  0  0
 13 14  1  0  0  0  0
 14 15  1  0  0  0  0
 15 16  1  0  0  0  0
 16 17  1  0  0  0  0
 17 18  1  0  0  0  0
 18 19  1  0  0  0  0
 19 20  1  0  0  0  0
 19 21  1  0  0  0  0
 19 22  1  0  0  0  0
 22 23  1  0  0  0  0
 23 24  4  0  0  0  0
 24 25  4  0  0  0  0
 25 26  4  0  0  0  0
 26 27  4  0  0  0  0
 27 28  4  0  0  0  0
 23 28  4  0  0  0  0
 12 29  4  0  0  0  0
 29 30  4  0  0  0  0
  9 30  4  0  0  0  0
  1 31  1  0  0  0  0
  1 32  1  0  0  0  0
  1 33  1  0  0  0  0
  3 34  1  0  0  0  0
  3 35  1  0  0  0  0
  3 36  1  0  0  0  0
  4 37  1  0  0  0  0
  4 38  1  0  0  0  0
  4 39  1  0  0  0  0
  5 40  1  0  0  0  0
  5 41  1  0  0  0  0
  7 42  1  0  0  0  0
  7 43  1  0  0  0  0
  7 44  1  0  0  0  0
  8 45  1  0  0  0  0
  8 46  1  0  0  0  0
  8 47  1  0  0  0  0
 10 48  1  0  0  0  0
 11 49  1  0  0  0  0
 14 50  1  0  0  0  0
 14 51  1  0  0  0  0
 15 52  1  0  0  0  0
 15 53  1  0  0  0  0
 17 54  1  0  0  0  0
 17 55  1  0  0  0  0
 18 56  1  0  0  0  0
 18 57  1  0  0  0  0
 20 58  1  0  0  0  0
 20 59  1  0  0  0  0
 20 60  1  0  0  0  0
 21 61  1  0  0  0  0
 21 62  1  0  0  0  0
 21 63  1  0  0  0  0
 22 64  1  0  0  0  0
 22 65  1  0  0  0  0
 24 66  1  0  0  0  0
 25 67  1  0  0  0  0
 26 68  1  0  0  0  0
 27 69  1  0  0  0  0
 28 70  1  0  0  0  0
 29 71  1  0  0  0  0
 30 72  1  0  0  0  0
M  CHG  1  19   1
M  END
>  <InChIKey>
InChI=1S/C27H42NO2/c1-26(2,3)22-27(4,5)24-13-15-25(16-14-24)30-20-19-29-18-17-28(6,7)21-23-11-9-8-10-12-23/h8-16H,17-22H2,1-7H3/q+1

>  <UN GHS>
1

>  <CASRN>
121-54-0

> <Outcome>
1

>  <Index>
2815

>  <StandardizerResult>
Dearomatize (ID: Dearomatize)
Clear Stereo (ID: ClearStereo)
Wedge Clean (ID: WedgeClean)
Mesomerize (ID: Mesomerize)
Tautomerize (ID: Tautomerize)
Aromatize (ID: Aromatize)
Add Explicit Hydrogens (ID: AddExplicitH)
Clean 2D (ID: Clean2D)

> <knn Distance>


> <CpId>
2815

$$$$
2818
  Mrv1532301301811342D          

 62 61  0  0  0  0            999 V2000
   -0.1930   10.5243    0.0000 C   0  0  0  0  0  0  0  0  0  0  0  0
    0.5640   10.1964    0.0000 C   0  0  0  0  0  0  0  0  0  0  0  0
    1.2265   10.6882    0.0000 C   0  0  0  0  0  0  0  0  0  0  0  0
    1.9835   10.3604    0.0000 C   0  0  0  0  0  0  0  0  0  0  0  0
    2.6460   10.8521    0.0000 C   0  0  0  0  0  0  0  0  0  0  0  0
    3.4030   10.5243    0.0000 C   0  0  0  0  0  0  0  0  0  0  0  0
    4.0655   11.0160    0.0000 C   0  0  0  0  0  0  0  0  0  0  0  0
    4.8226   10.6882    0.0000 C   0  0  0  0  0  0  0  0  0  0  0  0
    5.4850   11.1799    0.0000 C   0  0  0  0  0  0  0  0  0  0  0  0
    6.2421   10.8521    0.0000 C   0  0  0  0  0  0  0  0  0  0  0  0
    6.9045   11.3438    0.0000 C   0  0  0  0  0  0  0  0  0  0  0  0
    7.6616   11.0160    0.0000 C   0  0  0  0  0  0  0  0  0  0  0  0
    8.3240   11.5077    0.0000 O   0  0  0  0  0  0  0  0  0  0  0  0
    9.0811   11.1799    0.0000 C   0  0  0  0  0  0  0  0  0  0  0  0
    9.7435   11.6716    0.0000 C   0  0  0  0  0  0  0  0  0  0  0  0
   10.5006   11.3438    0.0000 O   0  0  0  0  0  0  0  0  0  0  0  0
   11.1630   11.8356    0.0000 C   0  0  0  0  0  0  0  0  0  0  0  0
   11.9201   11.5077    0.0000 C   0  0  0  0  0  0  0  0  0  0  0  0
   12.5825   11.9995    0.0000 C   0  0  0  0  0  0  0  0  0  0  0  0
   13.3396   11.6716    0.0000 C   0  0  0  0  0  0  0  0  0  0  0  0
   14.0021   12.1634    0.0000 O   0  0  0  0  0  0  0  0  0  0  0  0
   13.4343   10.8521    0.0000 O   0  0  0  0  0  0  0  0  0  0  0  0
   12.0147   10.6882    0.0000 S   0  0  0  0  0  0  0  0  0  0  0  0
   11.1952   10.5935    0.0000 O   0  0  0  0  0  0  0  0  0  0  0  0
   12.8343   10.7828    0.0000 O   0  0  0  0  0  0  0  0  0  0  0  0
   12.1094    9.8686    0.0000 O   0  0  0  0  0  0  0  0  0  0  0  0
    0.1348   11.2813    0.0000 H   0  0  0  0  0  0  0  0  0  0  0  0
   -0.9501   10.8521    0.0000 H   0  0  0  0  0  0  0  0  0  0  0  0
   -0.5209    9.7672    0.0000 H   0  0  0  0  0  0  0  0  0  0  0  0
    0.2808    9.4216    0.0000 H   0  0  0  0  0  0  0  0  0  0  0  0
    1.0164    9.5065    0.0000 H   0  0  0  0  0  0  0  0  0  0  0  0
    1.5097   11.4630    0.0000 H   0  0  0  0  0  0  0  0  0  0  0  0
    0.7741   11.3781    0.0000 H   0  0  0  0  0  0  0  0  0  0  0  0
    1.7003    9.5855    0.0000 H   0  0  0  0  0  0  0  0  0  0  0  0
    2.4359    9.6704    0.0000 H   0  0  0  0  0  0  0  0  0  0  0  0
    2.9292   11.6269    0.0000 H   0  0  0  0  0  0  0  0  0  0  0  0
    2.1936   11.5420    0.0000 H   0  0  0  0  0  0  0  0  0  0  0  0
    3.1198    9.7494    0.0000 H   0  0  0  0  0  0  0  0  0  0  0  0
    3.8554    9.8344    0.0000 H   0  0  0  0  0  0  0  0  0  0  0  0
    4.3487   11.7909    0.0000 H   0  0  0  0  0  0  0  0  0  0  0  0
    3.6131   11.7059    0.0000 H   0  0  0  0  0  0  0  0  0  0  0  0
    4.5393    9.9133    0.0000 H   0  0  0  0  0  0  0  0  0  0  0  0
    5.2749    9.9983    0.0000 H   0  0  0  0  0  0  0  0  0  0  0  0
    5.7682   11.9548    0.0000 H   0  0  0  0  0  0  0  0  0  0  0  0
    5.0326   11.8698    0.0000 H   0  0  0  0  0  0  0  0  0  0  0  0
    5.9588   10.0772    0.0000 H   0  0  0  0  0  0  0  0  0  0  0  0
    6.6945   10.1622    0.0000 H   0  0  0  0  0  0  0  0  0  0  0  0
    7.1878   12.1187    0.0000 H   0  0  0  0  0  0  0  0  0  0  0  0
    6.4521   12.0337    0.0000 H   0  0  0  0  0  0  0  0  0  0  0  0
    7.3783   10.2411    0.0000 H   0  0  0  0  0  0  0  0  0  0  0  0
    8.1140   10.3261    0.0000 H   0  0  0  0  0  0  0  0  0  0  0  0
    8.7978   10.4051    0.0000 H   0  0  0  0  0  0  0  0  0  0  0  0
    9.5335   10.4900    0.0000 H   0  0  0  0  0  0  0  0  0  0  0  0
   10.0268   12.4465    0.0000 H   0  0  0  0  0  0  0  0  0  0  0  0
    9.2911   12.3616    0.0000 H   0  0  0  0  0  0  0  0  0  0  0  0
   11.4463   12.6104    0.0000 H   0  0  0  0  0  0  0  0  0  0  0  0
   10.7107   12.5255    0.0000 H   0  0  0  0  0  0  0  0  0  0  0  0
   11.8255   12.3273    0.0000 H   0  0  0  0  0  0  0  0  0  0  0  0
   13.1495   12.5988    0.0000 H   0  0  0  0  0  0  0  0  0  0  0  0
   12.6317   12.8230    0.0000 H   0  0  0  0  0  0  0  0  0  0  0  0
   14.8242   12.2319    0.0000 H   0  0  0  0  0  0  0  0  0  0  0  0
   10.7035   11.2560    0.0000 H   0  0  0  0  0  0  0  0  0  0  0  0
  1  2  1  0  0  0  0
  2  3  1  0  0  0  0
  3  4  1  0  0  0  0
  4  5  1  0  0  0  0
  5  6  1  0  0  0  0
  6  7  1  0  0  0  0
  7  8  1  0  0  0  0
  8  9  1  0  0  0  0
  9 10  1  0  0  0  0
 10 11  1  0  0  0  0
 11 12  1  0  0  0  0
 12 13  1  0  0  0  0
 13 14  1  0  0  0  0
 14 15  1  0  0  0  0
 15 16  1  0  0  0  0
 16 17  1  0  0  0  0
 17 18  1  0  0  0  0
 18 19  1  0  0  0  0
 19 20  1  0  0  0  0
 20 21  1  0  0  0  0
 20 22  2  0  0  0  0
 18 23  1  0  0  0  0
 23 24  1  0  0  0  0
 23 25  2  0  0  0  0
 23 26  2  0  0  0  0
  1 27  1  0  0  0  0
  1 28  1  0  0  0  0
  1 29  1  0  0  0  0
  2 30  1  0  0  0  0
  2 31  1  0  0  0  0
  3 32  1  0  0  0  0
  3 33  1  0  0  0  0
  4 34  1  0  0  0  0
  4 35  1  0  0  0  0
  5 36  1  0  0  0  0
  5 37  1  0  0  0  0
  6 38  1  0  0  0  0
  6 39  1  0  0  0  0
  7 40  1  0  0  0  0
  7 41  1  0  0  0  0
  8 42  1  0  0  0  0
  8 43  1  0  0  0  0
  9 44  1  0  0  0  0
  9 45  1  0  0  0  0
 10 46  1  0  0  0  0
 10 47  1  0  0  0  0
 11 48  1  0  0  0  0
 11 49  1  0  0  0  0
 12 50  1  0  0  0  0
 12 51  1  0  0  0  0
 14 52  1  0  0  0  0
 14 53  1  0  0  0  0
 15 54  1  0  0  0  0
 15 55  1  0  0  0  0
 17 56  1  0  0  0  0
 17 57  1  0  0  0  0
 18 58  1  0  0  0  0
 19 59  1  0  0  0  0
 19 60  1  0  0  0  0
 21 61  1  0  0  0  0
 24 62  1  0  0  0  0
M  END
>  <InChIKey>
InChI=1S/C18H36O7S/c1-2-3-4-5-6-7-8-9-10-11-12-24-13-14-25-16-17(15-18(19)20)26(21,22)23/h17H,2-16H2,1H3,(H,19,20)(H,21,22,23)

>  <UN GHS>
1

>  <CASRN>
68815-56-5

> <Outcome>
1

>  <Index>
2818

>  <StandardizerResult>
Clear Stereo (ID: ClearStereo)
Wedge Clean (ID: WedgeClean)
Mesomerize (ID: Mesomerize)
Tautomerize (ID: Tautomerize)
Add Explicit Hydrogens (ID: AddExplicitH)
Neutralize (ID: Neutralize)
Clean 2D (ID: Clean2D)

> <knn Distance>


> <CpId>
2818

$$$$
2820
  Mrv1532301301811342D          

 24 24  0  0  0  0            999 V2000
    0.0000    4.1250    0.0000 C   0  0  0  0  0  0  0  0  0  0  0  0
    0.0000    3.3000    0.0000 C   0  0  0  0  0  0  0  0  0  0  0  0
   -0.7145    2.8875    0.0000 O   0  0  0  0  0  0  0  0  0  0  0  0
    0.7145    2.8875    0.0000 N   0  0  0  0  0  0  0  0  0  0  0  0
    0.7145    2.0625    0.0000 S   0  0  0  0  0  0  0  0  0  0  0  0
   -0.1105    2.0625    0.0000 O   0  0  0  0  0  0  0  0  0  0  0  0
    1.5395    2.0625    0.0000 O   0  0  0  0  0  0  0  0  0  0  0  0
    0.7145    1.2375    0.0000 C   0  0  0  0  0  0  0  0  0  0  0  0
    1.4289    0.8250    0.0000 C   0  0  0  0  0  0  0  0  0  0  0  0
    1.4289    0.0000    0.0000 C   0  0  0  0  0  0  0  0  0  0  0  0
    0.7145   -0.4125    0.0000 C   0  0  0  0  0  0  0  0  0  0  0  0
    0.7145   -1.2375    0.0000 N   0  0  0  0  0  0  0  0  0  0  0  0
    0.0000    0.0000    0.0000 C   0  0  0  0  0  0  0  0  0  0  0  0
    0.0000    0.8250    0.0000 C   0  0  0  0  0  0  0  0  0  0  0  0
    0.8250    4.1250    0.0000 H   0  0  0  0  0  0  0  0  0  0  0  0
    0.0000    4.9500    0.0000 H   0  0  0  0  0  0  0  0  0  0  0  0
   -0.8250    4.1250    0.0000 H   0  0  0  0  0  0  0  0  0  0  0  0
    1.4289    3.3000    0.0000 H   0  0  0  0  0  0  0  0  0  0  0  0
    2.1434    1.2375    0.0000 H   0  0  0  0  0  0  0  0  0  0  0  0
    2.1434   -0.4125    0.0000 H   0  0  0  0  0  0  0  0  0  0  0  0
    0.0000   -1.6500    0.0000 H   0  0  0  0  0  0  0  0  0  0  0  0
    1.4289   -1.6500    0.0000 H   0  0  0  0  0  0  0  0  0  0  0  0
   -0.7145   -0.4125    0.0000 H   0  0  0  0  0  0  0  0  0  0  0  0
   -0.7145    1.2375    0.0000 H   0  0  0  0  0  0  0  0  0  0  0  0
  1  2  1  0  0  0  0
  2  3  2  0  0  0  0
  2  4  1  0  0  0  0
  4  5  1  0  0  0  0
  5  6  2  0  0  0  0
  5  7  2  0  0  0  0
  5  8  1  0  0  0  0
  8  9  4  0  0  0  0
  9 10  4  0  0  0  0
 10 11  4  0  0  0  0
 11 12  1  0  0  0  0
 11 13  4  0  0  0  0
 13 14  4  0  0  0  0
  8 14  4  0  0  0  0
  1 15  1  0  0  0  0
  1 16  1  0  0  0  0
  1 17  1  0  0  0  0
  4 18  1  0  0  0  0
  9 19  1  0  0  0  0
 10 20  1  0  0  0  0
 12 21  1  0  0  0  0
 12 22  1  0  0  0  0
 13 23  1  0  0  0  0
 14 24  1  0  0  0  0
M  END
>  <InChIKey>
InChI=1S/C8H10N2O3S/c1-6(11)10-14(12,13)8-4-2-7(9)3-5-8/h2-5H,9H2,1H3,(H,10,11)

>  <CASRN>
144-80-9

> <Outcome>
1

>  <Index>
2820

>  <StandardizerResult>
Dearomatize (ID: Dearomatize)
Clear Stereo (ID: ClearStereo)
Wedge Clean (ID: WedgeClean)
Mesomerize (ID: Mesomerize)
Tautomerize (ID: Tautomerize)
Aromatize (ID: Aromatize)
Add Explicit Hydrogens (ID: AddExplicitH)
Neutralize (ID: Neutralize)
Clean 2D (ID: Clean2D)

> <knn Distance>


> <CpId>
2820

$$$$
2826
  Mrv1532301301811342D          

  8  7  0  0  0  0            999 V2000
    0.8250   -1.6500    0.0000 F   0  0  0  0  0  0  0  0  0  0  0  0
    0.8250   -0.8250    0.0000 C   0  0  0  0  0  0  0  0  0  0  0  0
    1.6500   -0.8250    0.0000 F   0  0  0  0  0  0  0  0  0  0  0  0
    0.0000   -0.8250    0.0000 Cl  0  0  0  0  0  0  0  0  0  0  0  0
    0.8250    0.0000    0.0000 C   0  0  0  0  0  0  0  0  0  0  0  0
    0.8250    0.8250    0.0000 Cl  0  0  0  0  0  0  0  0  0  0  0  0
    1.6500   -0.0000    0.0000 Cl  0  0  0  0  0  0  0  0  0  0  0  0
    0.0000    0.0000    0.0000 Cl  0  0  0  0  0  0  0  0  0  0  0  0
  1  2  1  0  0  0  0
  2  3  1  0  0  0  0
  2  4  1  0  0  0  0
  2  5  1  0  0  0  0
  5  6  1  0  0  0  0
  5  7  1  0  0  0  0
  5  8  1  0  0  0  0
M  END
>  <InChIKey>
InChI=1S/C2Cl4F2/c3-1(4,5)2(6,7)8

>  <CASRN>
76-11-9

> <Outcome>
1

>  <Index>
2826

>  <StandardizerResult>
Clear Stereo (ID: ClearStereo)
Wedge Clean (ID: WedgeClean)
Mesomerize (ID: Mesomerize)
Tautomerize (ID: Tautomerize)
Clean 2D (ID: Clean2D)

> <knn Distance>


> <CpId>
2826

$$$$
2832
  Mrv1532301301811342D          

 17 18  0  0  0  0            999 V2000
    0.7145   -1.2375    0.0000 C   0  0  0  0  0  0  0  0  0  0  0  0
    0.7145   -0.4125    0.0000 C   0  0  0  0  0  0  0  0  0  0  0  0
    1.4289    0.0000    0.0000 C   0  0  0  0  0  0  0  0  0  0  0  0
    2.1434   -0.4125    0.0000 C   0  0  0  0  0  0  0  0  0  0  0  0
    2.8579    0.0000    0.0000 N   0  0  0  0  0  0  0  0  0  0  0  0
    3.5724   -0.4125    0.0000 C   0  0  0  0  0  0  0  0  0  0  0  0
    3.5724   -1.2375    0.0000 C   0  0  0  0  0  0  0  0  0  0  0  0
    2.8579   -1.6500    0.0000 C   0  0  0  0  0  0  0  0  0  0  0  0
    2.1434   -1.2375    0.0000 C   0  0  0  0  0  0  0  0  0  0  0  0
    1.4289   -1.6500    0.0000 C   0  0  0  0  0  0  0  0  0  0  0  0
    0.0000   -1.6500    0.0000 H   0  0  0  0  0  0  0  0  0  0  0  0
    0.0000    0.0000    0.0000 H   0  0  0  0  0  0  0  0  0  0  0  0
    1.4289    0.8250    0.0000 H   0  0  0  0  0  0  0  0  0  0  0  0
    4.2868   -0.0000    0.0000 H   0  0  0  0  0  0  0  0  0  0  0  0
    4.2868   -1.6500    0.0000 H   0  0  0  0  0  0  0  0  0  0  0  0
    2.8579   -2.4750    0.0000 H   0  0  0  0  0  0  0  0  0  0  0  0
    1.4289   -2.4750    0.0000 H   0  0  0  0  0  0  0  0  0  0  0  0
  1  2  4  0  0  0  0
  2  3  4  0  0  0  0
  3  4  4  0  0  0  0
  4  5  4  0  0  0  0
  5  6  4  0  0  0  0
  6  7  4  0  0  0  0
  7  8  4  0  0  0  0
  8  9  4  0  0  0  0
  4  9  4  0  0  0  0
  9 10  4  0  0  0  0
  1 10  4  0  0  0  0
  1 11  1  0  0  0  0
  2 12  1  0  0  0  0
  3 13  1  0  0  0  0
  6 14  1  0  0  0  0
  7 15  1  0  0  0  0
  8 16  1  0  0  0  0
 10 17  1  0  0  0  0
M  END
>  <InChIKey>
InChI=1S/C9H7N/c1-2-6-9-8(4-1)5-3-7-10-9/h1-7H

>  <CASRN>
91-22-5

> <Outcome>
1

>  <Index>
2832

>  <StandardizerResult>
Dearomatize (ID: Dearomatize)
Clear Stereo (ID: ClearStereo)
Wedge Clean (ID: WedgeClean)
Mesomerize (ID: Mesomerize)
Tautomerize (ID: Tautomerize)
Aromatize (ID: Aromatize)
Add Explicit Hydrogens (ID: AddExplicitH)
Neutralize (ID: Neutralize)
Clean 2D (ID: Clean2D)

> <knn Distance>


> <CpId>
2832

$$$$
2833
  Mrv1532301301811342D          

 19 19  0  0  0  0            999 V2000
   -0.7137    3.7130    0.0000 O   0  0  0  0  0  0  0  0  0  0  0  0
    0.0008    3.3005    0.0000 C   0  0  0  0  0  0  0  0  0  0  0  0
    0.7153    3.7130    0.0000 O   0  0  0  0  0  0  0  0  0  0  0  0
    0.0008    2.4755    0.0000 C   0  0  0  0  0  0  0  0  0  0  0  0
    0.7153    2.0630    0.0000 O   0  0  0  0  0  0  0  0  0  0  0  0
    0.7153    1.2380    0.0000 C   0  0  0  0  0  0  0  0  0  0  0  0
    1.4297    0.8255    0.0000 C   0  0  0  0  0  0  0  0  0  0  0  0
    1.4297    0.0005    0.0000 C   0  0  0  0  0  0  0  0  0  0  0  0
    2.1442   -0.4120    0.0000 Cl  0  0  0  0  0  0  0  0  0  0  0  0
    0.7153   -0.4120    0.0000 C   0  0  0  0  0  0  0  0  0  0  0  0
    0.7153   -1.2370    0.0000 Cl  0  0  0  0  0  0  0  0  0  0  0  0
    0.0008    0.0005    0.0000 C   0  0  0  0  0  0  0  0  0  0  0  0
    0.0008    0.8255    0.0000 C   0  0  0  0  0  0  0  0  0  0  0  0
   -0.7137    1.2380    0.0000 Cl  0  0  0  0  0  0  0  0  0  0  0  0
   -0.7137    4.5380    0.0000 H   0  0  0  0  0  0  0  0  0  0  0  0
   -0.8228    2.4275    0.0000 H   0  0  0  0  0  0  0  0  0  0  0  0
   -0.4525    1.7862    0.0000 H   0  0  0  0  0  0  0  0  0  0  0  0
    2.1442    1.2380    0.0000 H   0  0  0  0  0  0  0  0  0  0  0  0
   -0.7137   -0.4120    0.0000 H   0  0  0  0  0  0  0  0  0  0  0  0
  1  2  1  0  0  0  0
  2  3  2  0  0  0  0
  2  4  1  0  0  0  0
  4  5  1  0  0  0  0
  5  6  1  0  0  0  0
  6  7  4  0  0  0  0
  7  8  4  0  0  0  0
  8  9  1  0  0  0  0
  8 10  4  0  0  0  0
 10 11  1  0  0  0  0
 10 12  4  0  0  0  0
 12 13  4  0  0  0  0
  6 13  4  0  0  0  0
 13 14  1  0  0  0  0
  1 15  1  0  0  0  0
  4 16  1  0  0  0  0
  4 17  1  0  0  0  0
  7 18  1  0  0  0  0
 12 19  1  0  0  0  0
M  END
>  <InChIKey>
InChI=1S/C8H5Cl3O3/c9-4-1-6(11)7(2-5(4)10)14-3-8(12)13/h1-2H,3H2,(H,12,13)

>  <CASRN>
93-76-5

> <Outcome>
1

>  <Index>
2833

>  <StandardizerResult>
Dearomatize (ID: Dearomatize)
Clear Stereo (ID: ClearStereo)
Wedge Clean (ID: WedgeClean)
Mesomerize (ID: Mesomerize)
Tautomerize (ID: Tautomerize)
Aromatize (ID: Aromatize)
Add Explicit Hydrogens (ID: AddExplicitH)
Neutralize (ID: Neutralize)
Clean 2D (ID: Clean2D)

> <knn Distance>


> <CpId>
2833

$$$$
2843
  Mrv1532301301811342D          

 16 15  0  0  0  0            999 V2000
    2.5067   -1.4953    0.0000 C   0  0  0  0  0  0  0  0  0  0  0  0
    2.0942   -0.7808    0.0000 O   0  0  0  0  0  0  0  0  0  0  0  0
    1.2692   -0.7808    0.0000 C   0  0  0  0  0  0  0  0  0  0  0  0
    0.8567   -1.4953    0.0000 C   0  0  0  0  0  0  0  0  0  0  0  0
    0.8567   -0.0664    0.0000 O   0  0  0  0  0  0  0  0  0  0  0  0
    0.0317   -0.0664    0.0000 C   0  0  0  0  0  0  0  0  0  0  0  0
    1.7923   -1.9078    0.0000 H   0  0  0  0  0  0  0  0  0  0  0  0
    2.9192   -2.2098    0.0000 H   0  0  0  0  0  0  0  0  0  0  0  0
    3.2212   -1.0828    0.0000 H   0  0  0  0  0  0  0  0  0  0  0  0
    1.6817   -1.4953    0.0000 H   0  0  0  0  0  0  0  0  0  0  0  0
    0.2734   -0.9119    0.0000 H   0  0  0  0  0  0  0  0  0  0  0  0
    0.1423   -1.9078    0.0000 H   0  0  0  0  0  0  0  0  0  0  0  0
    1.0703   -2.2922    0.0000 H   0  0  0  0  0  0  0  0  0  0  0  0
    0.2937    0.7160    0.0000 H   0  0  0  0  0  0  0  0  0  0  0  0
   -0.6269    0.4304    0.0000 H   0  0  0  0  0  0  0  0  0  0  0  0
   -0.6485   -0.5332    0.0000 H   0  0  0  0  0  0  0  0  0  0  0  0
  1  2  1  0  0  0  0
  2  3  1  0  0  0  0
  3  4  1  0  0  0  0
  3  5  1  0  0  0  0
  5  6  1  0  0  0  0
  1  7  1  0  0  0  0
  1  8  1  0  0  0  0
  1  9  1  0  0  0  0
  3 10  1  0  0  0  0
  4 11  1  0  0  0  0
  4 12  1  0  0  0  0
  4 13  1  0  0  0  0
  6 14  1  0  0  0  0
  6 15  1  0  0  0  0
  6 16  1  0  0  0  0
M  END
>  <InChIKey>
InChI=1S/C4H10O2/c1-4(5-2)6-3/h4H,1-3H3

>  <CASRN>
534-15-6

> <Outcome>
1

>  <Index>
2843

>  <StandardizerResult>
Clear Stereo (ID: ClearStereo)
Wedge Clean (ID: WedgeClean)
Mesomerize (ID: Mesomerize)
Tautomerize (ID: Tautomerize)
Add Explicit Hydrogens (ID: AddExplicitH)
Neutralize (ID: Neutralize)
Clean 2D (ID: Clean2D)

> <knn Distance>


> <CpId>
2843

$$$$
2845
  Mrv1532301301811342D          

 42 42  0  0  0  0            999 V2000
   -0.7276    3.6526    0.0000 C   0  0  0  0  0  0  0  0  0  0  0  0
   -0.0132    3.2401    0.0000 C   0  0  0  0  0  0  0  0  0  0  0  0
   -0.0132    2.4151    0.0000 C   0  0  0  0  0  0  0  0  0  0  0  0
   -0.7276    2.0026    0.0000 C   0  0  0  0  0  0  0  0  0  0  0  0
    0.7013    2.0026    0.0000 N   0  0  0  0  0  0  0  0  0  0  0  0
    0.7013    1.1776    0.0000 C   0  0  0  0  0  0  0  0  0  0  0  0
    1.4158    0.7651    0.0000 C   0  0  0  0  0  0  0  0  0  0  0  0
    1.4158   -0.0599    0.0000 C   0  0  0  0  0  0  0  0  0  0  0  0
    0.7013   -0.4724    0.0000 C   0  0  0  0  0  0  0  0  0  0  0  0
   -0.0132   -0.0599    0.0000 C   0  0  0  0  0  0  0  0  0  0  0  0
   -0.0132    0.7651    0.0000 C   0  0  0  0  0  0  0  0  0  0  0  0
   -0.7276    1.1776    0.0000 N   0  0  0  0  0  0  0  0  0  0  0  0
   -1.2126    1.8450    0.0000 O   0  0  0  0  0  0  0  0  0  0  0  0
   -1.4421    0.7651    0.0000 O   0  0  0  0  0  0  0  0  0  0  0  0
    0.7013   -1.2974    0.0000 C   0  0  0  0  0  0  0  0  0  0  0  0
    0.7013   -2.1224    0.0000 C   0  0  0  0  0  0  0  0  0  0  0  0
   -0.1237   -1.2974    0.0000 C   0  0  0  0  0  0  0  0  0  0  0  0
    1.5263   -1.2974    0.0000 C   0  0  0  0  0  0  0  0  0  0  0  0
    2.1303    1.1776    0.0000 N   0  0  0  0  0  0  0  0  0  0  0  0
    2.8447    0.7651    0.0000 O   0  0  0  0  0  0  0  0  0  0  0  0
    2.1303    2.0026    0.0000 O   0  0  0  0  0  0  0  0  0  0  0  0
   -0.3151    4.3671    0.0000 H   0  0  0  0  0  0  0  0  0  0  0  0
   -1.4421    4.0651    0.0000 H   0  0  0  0  0  0  0  0  0  0  0  0
   -1.1401    2.9381    0.0000 H   0  0  0  0  0  0  0  0  0  0  0  0
    0.8104    3.2881    0.0000 H   0  0  0  0  0  0  0  0  0  0  0  0
    0.4402    3.9294    0.0000 H   0  0  0  0  0  0  0  0  0  0  0  0
   -0.7276    2.8276    0.0000 H   0  0  0  0  0  0  0  0  0  0  0  0
   -0.1973    1.3706    0.0000 H   0  0  0  0  0  0  0  0  0  0  0  0
    0.0848    1.8593    0.0000 H   0  0  0  0  0  0  0  0  0  0  0  0
   -1.3951    2.4875    0.0000 H   0  0  0  0  0  0  0  0  0  0  0  0
    1.4158    2.4151    0.0000 H   0  0  0  0  0  0  0  0  0  0  0  0
    2.1303   -0.4724    0.0000 H   0  0  0  0  0  0  0  0  0  0  0  0
   -0.7276   -0.4724    0.0000 H   0  0  0  0  0  0  0  0  0  0  0  0
   -0.1237   -2.1224    0.0000 H   0  0  0  0  0  0  0  0  0  0  0  0
    0.7013   -2.9474    0.0000 H   0  0  0  0  0  0  0  0  0  0  0  0
    1.5263   -2.1224    0.0000 H   0  0  0  0  0  0  0  0  0  0  0  0
    0.1920   -0.5352    0.0000 H   0  0  0  0  0  0  0  0  0  0  0  0
   -0.7071   -0.7140    0.0000 H   0  0  0  0  0  0  0  0  0  0  0  0
   -0.8859   -1.6131    0.0000 H   0  0  0  0  0  0  0  0  0  0  0  0
    2.2885   -1.6131    0.0000 H   0  0  0  0  0  0  0  0  0  0  0  0
    2.1097   -0.7140    0.0000 H   0  0  0  0  0  0  0  0  0  0  0  0
    1.2106   -0.5352    0.0000 H   0  0  0  0  0  0  0  0  0  0  0  0
  1  2  1  0  0  0  0
  2  3  1  0  0  0  0
  3  4  1  0  0  0  0
  3  5  1  0  0  0  0
  5  6  1  0  0  0  0
  6  7  4  0  0  0  0
  7  8  4  0  0  0  0
  8  9  4  0  0  0  0
  9 10  4  0  0  0  0
 10 11  4  0  0  0  0
  6 11  4  0  0  0  0
 11 12  1  0  0  0  0
 12 13  2  0  0  0  0
 12 14  2  0  0  0  0
  9 15  1  0  0  0  0
 15 16  1  0  0  0  0
 15 17  1  0  0  0  0
 15 18  1  0  0  0  0
  7 19  1  0  0  0  0
 19 20  2  0  0  0  0
 19 21  2  0  0  0  0
  1 22  1  0  0  0  0
  1 23  1  0  0  0  0
  1 24  1  0  0  0  0
  2 25  1  0  0  0  0
  2 26  1  0  0  0  0
  3 27  1  0  0  0  0
  4 28  1  0  0  0  0
  4 29  1  0  0  0  0
  4 30  1  0  0  0  0
  5 31  1  0  0  0  0
  8 32  1  0  0  0  0
 10 33  1  0  0  0  0
 16 34  1  0  0  0  0
 16 35  1  0  0  0  0
 16 36  1  0  0  0  0
 17 37  1  0  0  0  0
 17 38  1  0  0  0  0
 17 39  1  0  0  0  0
 18 40  1  0  0  0  0
 18 41  1  0  0  0  0
 18 42  1  0  0  0  0
M  END
>  <InChIKey>
InChI=1S/C14H21N3O4/c1-6-9(2)15-13-11(16(18)19)7-10(14(3,4)5)8-12(13)17(20)21/h7-9,15H,6H2,1-5H3

>  <CASRN>
33629-47-9

> <Outcome>
1

>  <Index>
2845

>  <StandardizerResult>
Dearomatize (ID: Dearomatize)
Clear Stereo (ID: ClearStereo)
Wedge Clean (ID: WedgeClean)
Mesomerize (ID: Mesomerize)
Tautomerize (ID: Tautomerize)
Aromatize (ID: Aromatize)
Add Explicit Hydrogens (ID: AddExplicitH)
Neutralize (ID: Neutralize)
Clean 2D (ID: Clean2D)

> <knn Distance>


> <CpId>
2845

$$$$
2847
  Mrv1532301301811342D          

 17 16  0  0  0  0            999 V2000
   -0.1914    0.7145    0.0000 C   0  0  0  0  0  0  0  0  0  0  0  0
    0.5230    1.1270    0.0000 C   0  0  0  0  0  0  0  0  0  0  0  0
    1.2375    0.7145    0.0000 C   0  0  0  0  0  0  0  0  0  0  0  0
    1.9520    1.1270    0.0000 C   0  0  0  0  0  0  0  0  0  0  0  0
    2.6664    0.7145    0.0000 C   0  0  0  0  0  0  0  0  0  0  0  0
    3.3809    1.1270    0.0000 Cl  0  0  0  0  0  0  0  0  0  0  0  0
   -0.6039    1.4290    0.0000 H   0  0  0  0  0  0  0  0  0  0  0  0
   -0.9059    0.3020    0.0000 H   0  0  0  0  0  0  0  0  0  0  0  0
    0.2211    0.0000    0.0000 H   0  0  0  0  0  0  0  0  0  0  0  0
    0.8933    1.8642    0.0000 H   0  0  0  0  0  0  0  0  0  0  0  0
    0.1528    1.8642    0.0000 H   0  0  0  0  0  0  0  0  0  0  0  0
    0.8672   -0.0227    0.0000 H   0  0  0  0  0  0  0  0  0  0  0  0
    1.6078   -0.0227    0.0000 H   0  0  0  0  0  0  0  0  0  0  0  0
    2.3222    1.8642    0.0000 H   0  0  0  0  0  0  0  0  0  0  0  0
    1.5817    1.8642    0.0000 H   0  0  0  0  0  0  0  0  0  0  0  0
    2.2962   -0.0227    0.0000 H   0  0  0  0  0  0  0  0  0  0  0  0
    3.0367   -0.0227    0.0000 H   0  0  0  0  0  0  0  0  0  0  0  0
  1  2  1  0  0  0  0
  2  3  1  0  0  0  0
  3  4  1  0  0  0  0
  4  5  1  0  0  0  0
  5  6  1  0  0  0  0
  1  7  1  0  0  0  0
  1  8  1  0  0  0  0
  1  9  1  0  0  0  0
  2 10  1  0  0  0  0
  2 11  1  0  0  0  0
  3 12  1  0  0  0  0
  3 13  1  0  0  0  0
  4 14  1  0  0  0  0
  4 15  1  0  0  0  0
  5 16  1  0  0  0  0
  5 17  1  0  0  0  0
M  END
>  <InChIKey>
InChI=1S/C5H11Cl/c1-2-3-4-5-6/h2-5H2,1H3

>  <CASRN>
543-59-9

> <Outcome>
1

>  <Index>
2847

>  <StandardizerResult>
Clear Stereo (ID: ClearStereo)
Wedge Clean (ID: WedgeClean)
Mesomerize (ID: Mesomerize)
Tautomerize (ID: Tautomerize)
Add Explicit Hydrogens (ID: AddExplicitH)
Neutralize (ID: Neutralize)
Clean 2D (ID: Clean2D)

> <knn Distance>


> <CpId>
2847

$$$$
2850
  Mrv1532301301811342D          

 27 27  0  0  0  0            999 V2000
    1.4714   -2.4422    0.0000 C   0  0  0  0  0  0  0  0  0  0  0  0
    0.7570   -2.0297    0.0000 C   0  0  0  0  0  0  0  0  0  0  0  0
    0.0425   -2.4422    0.0000 C   0  0  0  0  0  0  0  0  0  0  0  0
   -0.6720   -2.0297    0.0000 C   0  0  0  0  0  0  0  0  0  0  0  0
   -0.6720   -1.2047    0.0000 C   0  0  0  0  0  0  0  0  0  0  0  0
    0.0425   -0.7922    0.0000 C   0  0  0  0  0  0  0  0  0  0  0  0
    0.7570   -1.2047    0.0000 C   0  0  0  0  0  0  0  0  0  0  0  0
    1.4714   -0.7922    0.0000 N   0  0  0  0  0  0  0  0  0  0  0  0
    2.1859   -1.2047    0.0000 C   0  0  0  0  0  0  0  0  0  0  0  0
    2.1859   -2.0297    0.0000 N   0  0  0  0  0  0  0  0  0  0  0  0
    2.9004   -0.7922    0.0000 N   0  0  0  0  0  0  0  0  0  0  0  0
    3.6148   -1.2047    0.0000 C   0  0  0  0  0  0  0  0  0  0  0  0
    4.3293   -0.7922    0.0000 N   0  0  0  0  0  0  0  0  0  0  0  0
    3.6148   -2.0297    0.0000 N   0  0  0  0  0  0  0  0  0  0  0  0
    0.7570   -2.8547    0.0000 H   0  0  0  0  0  0  0  0  0  0  0  0
    1.4714   -3.2672    0.0000 H   0  0  0  0  0  0  0  0  0  0  0  0
    2.1859   -2.8547    0.0000 H   0  0  0  0  0  0  0  0  0  0  0  0
   -0.3700   -3.1567    0.0000 H   0  0  0  0  0  0  0  0  0  0  0  0
   -1.3865   -2.4422    0.0000 H   0  0  0  0  0  0  0  0  0  0  0  0
   -1.3865   -0.7922    0.0000 H   0  0  0  0  0  0  0  0  0  0  0  0
    0.0425    0.0328    0.0000 H   0  0  0  0  0  0  0  0  0  0  0  0
    1.4714    0.0328    0.0000 H   0  0  0  0  0  0  0  0  0  0  0  0
    3.0109   -2.0297    0.0000 H   0  0  0  0  0  0  0  0  0  0  0  0
    2.9004    0.0328    0.0000 H   0  0  0  0  0  0  0  0  0  0  0  0
    5.0438   -1.2047    0.0000 H   0  0  0  0  0  0  0  0  0  0  0  0
    4.3293    0.0328    0.0000 H   0  0  0  0  0  0  0  0  0  0  0  0
    4.1982   -2.6131    0.0000 H   0  0  0  0  0  0  0  0  0  0  0  0
  1  2  1  0  0  0  0
  2  3  4  0  0  0  0
  3  4  4  0  0  0  0
  4  5  4  0  0  0  0
  5  6  4  0  0  0  0
  6  7  4  0  0  0  0
  2  7  4  0  0  0  0
  7  8  1  0  0  0  0
  8  9  1  0  0  0  0
  9 10  2  0  0  0  0
  9 11  1  0  0  0  0
 11 12  1  0  0  0  0
 12 13  1  0  0  0  0
 12 14  2  0  0  0  0
  1 15  1  0  0  0  0
  1 16  1  0  0  0  0
  1 17  1  0  0  0  0
  3 18  1  0  0  0  0
  4 19  1  0  0  0  0
  5 20  1  0  0  0  0
  6 21  1  0  0  0  0
  8 22  1  0  0  0  0
 10 23  1  0  0  0  0
 11 24  1  0  0  0  0
 13 25  1  0  0  0  0
 13 26  1  0  0  0  0
 14 27  1  0  0  0  0
M  END
>  <InChIKey>
InChI=1S/C9H13N5/c1-6-4-2-3-5-7(6)13-9(12)14-8(10)11/h2-5H,1H3,(H6,10,11,12,13,14)

>  <UN GHS>
1

>  <CASRN>
93-69-6

> <Outcome>
1

>  <Index>
2850

>  <StandardizerResult>
Dearomatize (ID: Dearomatize)
Clear Stereo (ID: ClearStereo)
Wedge Clean (ID: WedgeClean)
Mesomerize (ID: Mesomerize)
Tautomerize (ID: Tautomerize)
Aromatize (ID: Aromatize)
Add Explicit Hydrogens (ID: AddExplicitH)
Neutralize (ID: Neutralize)
Clean 2D (ID: Clean2D)

> <knn Distance>


> <CpId>
2850

$$$$
2852
  Mrv1532301301811342D          

 18 19  0  0  0  0            999 V2000
    4.0668    3.1729    0.0000 O   0  0  0  0  0  0  0  0  0  0  0  0
    4.0668    2.3479    0.0000 C   0  0  0  0  0  0  0  0  0  0  0  0
    4.7812    1.9354    0.0000 O   0  0  0  0  0  0  0  0  0  0  0  0
    3.3523    1.9354    0.0000 C   0  0  0  0  0  0  0  0  0  0  0  0
    3.3523    1.1104    0.0000 C   0  0  0  0  0  0  0  0  0  0  0  0
    2.6378    0.6979    0.0000 C   0  0  0  0  0  0  0  0  0  0  0  0
    1.9233    1.1104    0.0000 C   0  0  0  0  0  0  0  0  0  0  0  0
    1.1387    0.8555    0.0000 C   0  0  0  0  0  0  0  0  0  0  0  0
    0.8838    0.0709    0.0000 O   0  0  0  0  0  0  0  0  0  0  0  0
    0.6538    1.5229    0.0000 O   0  0  0  0  0  0  0  0  0  0  0  0
    1.1387    2.1903    0.0000 C   0  0  0  0  0  0  0  0  0  0  0  0
    0.8838    2.9750    0.0000 O   0  0  0  0  0  0  0  0  0  0  0  0
    1.9233    1.9354    0.0000 C   0  0  0  0  0  0  0  0  0  0  0  0
    2.6378    2.3479    0.0000 C   0  0  0  0  0  0  0  0  0  0  0  0
    4.7812    3.5854    0.0000 H   0  0  0  0  0  0  0  0  0  0  0  0
    4.0668    0.6979    0.0000 H   0  0  0  0  0  0  0  0  0  0  0  0
    2.6378   -0.1271    0.0000 H   0  0  0  0  0  0  0  0  0  0  0  0
    2.6378    3.1729    0.0000 H   0  0  0  0  0  0  0  0  0  0  0  0
  1  2  1  0  0  0  0
  2  3  2  0  0  0  0
  2  4  1  0  0  0  0
  4  5  4  0  0  0  0
  5  6  4  0  0  0  0
  6  7  4  0  0  0  0
  7  8  1  0  0  0  0
  8  9  2  0  0  0  0
  8 10  1  0  0  0  0
 10 11  1  0  0  0  0
 11 12  2  0  0  0  0
 11 13  1  0  0  0  0
  7 13  4  0  0  0  0
 13 14  4  0  0  0  0
  4 14  4  0  0  0  0
  1 15  1  0  0  0  0
  5 16  1  0  0  0  0
  6 17  1  0  0  0  0
 14 18  1  0  0  0  0
M  END
>  <InChIKey>
InChI=1S/C9H4O5/c10-7(11)4-1-2-5-6(3-4)9(13)14-8(5)12/h1-3H,(H,10,11)

>  <CASRN>
552-30-7

> <Outcome>
1

>  <Index>
2852

>  <StandardizerResult>
Dearomatize (ID: Dearomatize)
Clear Stereo (ID: ClearStereo)
Wedge Clean (ID: WedgeClean)
Mesomerize (ID: Mesomerize)
Tautomerize (ID: Tautomerize)
Aromatize (ID: Aromatize)
Add Explicit Hydrogens (ID: AddExplicitH)
Neutralize (ID: Neutralize)
Clean 2D (ID: Clean2D)

> <knn Distance>


> <CpId>
2852

$$$$
2853
  Mrv1532301301811342D          

 16 16  0  0  0  0            999 V2000
    0.7145    2.8875    0.0000 O   0  0  0  0  0  0  0  0  0  0  0  0
    0.7145    2.0625    0.0000 S   0  0  0  0  0  0  0  0  0  0  0  0
   -0.1105    2.0625    0.0000 O   0  0  0  0  0  0  0  0  0  0  0  0
    1.5395    2.0625    0.0000 O   0  0  0  0  0  0  0  0  0  0  0  0
    0.7145    1.2375    0.0000 C   0  0  0  0  0  0  0  0  0  0  0  0
    1.4289    0.8250    0.0000 C   0  0  0  0  0  0  0  0  0  0  0  0
    1.4289    0.0000    0.0000 C   0  0  0  0  0  0  0  0  0  0  0  0
    0.7145   -0.4125    0.0000 C   0  0  0  0  0  0  0  0  0  0  0  0
    0.0000    0.0000    0.0000 C   0  0  0  0  0  0  0  0  0  0  0  0
    0.0000    0.8250    0.0000 C   0  0  0  0  0  0  0  0  0  0  0  0
    1.4289    3.3000    0.0000 H   0  0  0  0  0  0  0  0  0  0  0  0
    2.1434    1.2375    0.0000 H   0  0  0  0  0  0  0  0  0  0  0  0
    2.1434   -0.4125    0.0000 H   0  0  0  0  0  0  0  0  0  0  0  0
    0.7145   -1.2375    0.0000 H   0  0  0  0  0  0  0  0  0  0  0  0
   -0.7145   -0.4125    0.0000 H   0  0  0  0  0  0  0  0  0  0  0  0
   -0.7145    1.2375    0.0000 H   0  0  0  0  0  0  0  0  0  0  0  0
  1  2  1  0  0  0  0
  2  3  2  0  0  0  0
  2  4  2  0  0  0  0
  2  5  1  0  0  0  0
  5  6  4  0  0  0  0
  6  7  4  0  0  0  0
  7  8  4  0  0  0  0
  8  9  4  0  0  0  0
  9 10  4  0  0  0  0
  5 10  4  0  0  0  0
  1 11  1  0  0  0  0
  6 12  1  0  0  0  0
  7 13  1  0  0  0  0
  8 14  1  0  0  0  0
  9 15  1  0  0  0  0
 10 16  1  0  0  0  0
M  END
>  <InChIKey>
InChI=1S/C6H6O3S/c7-10(8,9)6-4-2-1-3-5-6/h1-5H,(H,7,8,9)

>  <CASRN>
98-11-3

> <Outcome>
1

>  <Index>
2853

>  <StandardizerResult>
Dearomatize (ID: Dearomatize)
Clear Stereo (ID: ClearStereo)
Wedge Clean (ID: WedgeClean)
Mesomerize (ID: Mesomerize)
Tautomerize (ID: Tautomerize)
Aromatize (ID: Aromatize)
Add Explicit Hydrogens (ID: AddExplicitH)
Neutralize (ID: Neutralize)
Clean 2D (ID: Clean2D)

> <knn Distance>


> <CpId>
2853

$$$$
2862
  Mrv1532301301811342D          

 18 17  0  0  0  0            999 V2000
   -0.1914    0.7135    0.0000 C   0  0  0  0  0  0  0  0  0  0  0  0
    0.5230    1.1260    0.0000 C   0  0  0  0  0  0  0  0  0  0  0  0
    1.2375    0.7135    0.0000 O   0  0  0  0  0  0  0  0  0  0  0  0
    1.9520    1.1260    0.0000 C   0  0  0  0  0  0  0  0  0  0  0  0
    1.9520    1.9510    0.0000 O   0  0  0  0  0  0  0  0  0  0  0  0
    2.6664    0.7135    0.0000 C   0  0  0  0  0  0  0  0  0  0  0  0
    3.3809    1.1260    0.0000 C   0  0  0  0  0  0  0  0  0  0  0  0
    2.6664   -0.1115    0.0000 C   0  0  0  0  0  0  0  0  0  0  0  0
   -0.6039    1.4280    0.0000 H   0  0  0  0  0  0  0  0  0  0  0  0
   -0.9059    0.3010    0.0000 H   0  0  0  0  0  0  0  0  0  0  0  0
    0.2211   -0.0010    0.0000 H   0  0  0  0  0  0  0  0  0  0  0  0
    0.8933    1.8633    0.0000 H   0  0  0  0  0  0  0  0  0  0  0  0
    0.1528    1.8633    0.0000 H   0  0  0  0  0  0  0  0  0  0  0  0
    3.7934    0.4115    0.0000 H   0  0  0  0  0  0  0  0  0  0  0  0
    4.0954    1.5385    0.0000 H   0  0  0  0  0  0  0  0  0  0  0  0
    2.9684    1.8405    0.0000 H   0  0  0  0  0  0  0  0  0  0  0  0
    1.9520   -0.5240    0.0000 H   0  0  0  0  0  0  0  0  0  0  0  0
    3.3809   -0.5240    0.0000 H   0  0  0  0  0  0  0  0  0  0  0  0
  1  2  1  0  0  0  0
  2  3  1  0  0  0  0
  3  4  1  0  0  0  0
  4  5  2  0  0  0  0
  4  6  1  0  0  0  0
  6  7  1  0  0  0  0
  6  8  2  0  0  0  0
  1  9  1  0  0  0  0
  1 10  1  0  0  0  0
  1 11  1  0  0  0  0
  2 12  1  0  0  0  0
  2 13  1  0  0  0  0
  7 14  1  0  0  0  0
  7 15  1  0  0  0  0
  7 16  1  0  0  0  0
  8 17  1  0  0  0  0
  8 18  1  0  0  0  0
M  END
>  <InChIKey>
InChI=1S/C6H10O2/c1-4-8-6(7)5(2)3/h2,4H2,1,3H3

>  <CASRN>
97-63-2

> <Outcome>
1

>  <Index>
2862

>  <StandardizerResult>
Clear Stereo (ID: ClearStereo)
Wedge Clean (ID: WedgeClean)
Mesomerize (ID: Mesomerize)
Tautomerize (ID: Tautomerize)
Add Explicit Hydrogens (ID: AddExplicitH)
Neutralize (ID: Neutralize)
Clean 2D (ID: Clean2D)

> <knn Distance>


> <CpId>
2862

$$$$
2864
  Mrv1532301301811342D          

 12 11  0  0  0  0            999 V2000
    2.0625   -0.7145    0.0000 C   0  0  0  0  0  0  0  0  0  0  0  0
    1.2375   -0.7145    0.0000 C   0  0  0  0  0  0  0  0  0  0  0  0
    0.8250   -0.0000    0.0000 C   0  0  0  0  0  0  0  0  0  0  0  0
    0.0000   -0.0000    0.0000 S   0  0  0  0  0  0  0  0  0  0  0  0
    2.0625   -1.5395    0.0000 H   0  0  0  0  0  0  0  0  0  0  0  0
    2.8875   -0.7145    0.0000 H   0  0  0  0  0  0  0  0  0  0  0  0
    2.0625    0.1105    0.0000 H   0  0  0  0  0  0  0  0  0  0  0  0
    0.5482   -1.1678    0.0000 H   0  0  0  0  0  0  0  0  0  0  0  0
    1.1895   -1.5381    0.0000 H   0  0  0  0  0  0  0  0  0  0  0  0
    1.5143    0.4533    0.0000 H   0  0  0  0  0  0  0  0  0  0  0  0
    0.8730    0.8236    0.0000 H   0  0  0  0  0  0  0  0  0  0  0  0
   -0.4125    0.7145    0.0000 H   0  0  0  0  0  0  0  0  0  0  0  0
  1  2  1  0  0  0  0
  2  3  1  0  0  0  0
  3  4  1  0  0  0  0
  1  5  1  0  0  0  0
  1  6  1  0  0  0  0
  1  7  1  0  0  0  0
  2  8  1  0  0  0  0
  2  9  1  0  0  0  0
  3 10  1  0  0  0  0
  3 11  1  0  0  0  0
  4 12  1  0  0  0  0
M  END
>  <InChIKey>
InChI=1S/C3H8S/c1-2-3-4/h4H,2-3H2,1H3

>  <CASRN>
107-03-9

> <Outcome>
1

>  <Index>
2864

>  <StandardizerResult>
Clear Stereo (ID: ClearStereo)
Wedge Clean (ID: WedgeClean)
Mesomerize (ID: Mesomerize)
Tautomerize (ID: Tautomerize)
Add Explicit Hydrogens (ID: AddExplicitH)
Neutralize (ID: Neutralize)
Clean 2D (ID: Clean2D)

> <knn Distance>


> <CpId>
2864

$$$$
2866
  Mrv1532301301811342D          

 11 10  0  0  0  0            999 V2000
   -0.1915    0.7145    0.0000 Cl  0  0  0  0  0  0  0  0  0  0  0  0
    0.5230    1.1270    0.0000 C   0  0  0  0  0  0  0  0  0  0  0  0
    1.2375    0.7145    0.0000 C   0  0  0  0  0  0  0  0  0  0  0  0
    1.9520    1.1270    0.0000 O   0  0  0  0  0  0  0  0  0  0  0  0
    2.6664    0.7145    0.0000 C   0  0  0  0  0  0  0  0  0  0  0  0
    3.3809    1.1270    0.0000 Cl  0  0  0  0  0  0  0  0  0  0  0  0
    2.6664   -0.1105    0.0000 O   0  0  0  0  0  0  0  0  0  0  0  0
    0.8933    1.8642    0.0000 H   0  0  0  0  0  0  0  0  0  0  0  0
    0.1528    1.8642    0.0000 H   0  0  0  0  0  0  0  0  0  0  0  0
    0.8672   -0.0227    0.0000 H   0  0  0  0  0  0  0  0  0  0  0  0
    1.6077   -0.0227    0.0000 H   0  0  0  0  0  0  0  0  0  0  0  0
  1  2  1  0  0  0  0
  2  3  1  0  0  0  0
  3  4  1  0  0  0  0
  4  5  1  0  0  0  0
  5  6  1  0  0  0  0
  5  7  2  0  0  0  0
  2  8  1  0  0  0  0
  2  9  1  0  0  0  0
  3 10  1  0  0  0  0
  3 11  1  0  0  0  0
M  END
>  <InChIKey>
InChI=1S/C3H4Cl2O2/c4-1-2-7-3(5)6/h1-2H2

>  <CASRN>
627-11-2

> <Outcome>
1

>  <Index>
2866

>  <StandardizerResult>
Clear Stereo (ID: ClearStereo)
Wedge Clean (ID: WedgeClean)
Mesomerize (ID: Mesomerize)
Tautomerize (ID: Tautomerize)
Add Explicit Hydrogens (ID: AddExplicitH)
Neutralize (ID: Neutralize)
Clean 2D (ID: Clean2D)

> <knn Distance>


> <CpId>
2866

$$$$
2868
  Mrv1532301301811342D          

 21 20  0  0  0  0            999 V2000
    1.0461    1.4281    0.0000 C   0  0  0  0  0  0  0  0  0  0  0  0
    1.7605    1.8406    0.0000 C   0  0  0  0  0  0  0  0  0  0  0  0
    2.4750    1.4281    0.0000 O   0  0  0  0  0  0  0  0  0  0  0  0
    3.1895    1.8406    0.0000 C   0  0  0  0  0  0  0  0  0  0  0  0
    3.9040    1.4281    0.0000 C   0  0  0  0  0  0  0  0  0  0  0  0
    4.6184    1.8406    0.0000 O   0  0  0  0  0  0  0  0  0  0  0  0
    5.3329    1.4281    0.0000 C   0  0  0  0  0  0  0  0  0  0  0  0
    6.0474    1.8406    0.0000 C   0  0  0  0  0  0  0  0  0  0  0  0
    5.3329    0.6031    0.0000 O   0  0  0  0  0  0  0  0  0  0  0  0
    0.6336    2.1425    0.0000 H   0  0  0  0  0  0  0  0  0  0  0  0
    0.3316    1.0156    0.0000 H   0  0  0  0  0  0  0  0  0  0  0  0
    1.4586    0.7136    0.0000 H   0  0  0  0  0  0  0  0  0  0  0  0
    2.1308    2.5778    0.0000 H   0  0  0  0  0  0  0  0  0  0  0  0
    1.3903    2.5778    0.0000 H   0  0  0  0  0  0  0  0  0  0  0  0
    3.5597    2.5778    0.0000 H   0  0  0  0  0  0  0  0  0  0  0  0
    2.8192    2.5778    0.0000 H   0  0  0  0  0  0  0  0  0  0  0  0
    3.5337    0.6908    0.0000 H   0  0  0  0  0  0  0  0  0  0  0  0
    4.2742    0.6908    0.0000 H   0  0  0  0  0  0  0  0  0  0  0  0
    6.4599    1.1261    0.0000 H   0  0  0  0  0  0  0  0  0  0  0  0
    6.7618    2.2531    0.0000 H   0  0  0  0  0  0  0  0  0  0  0  0
    5.6349    2.5550    0.0000 H   0  0  0  0  0  0  0  0  0  0  0  0
  1  2  1  0  0  0  0
  2  3  1  0  0  0  0
  3  4  1  0  0  0  0
  4  5  1  0  0  0  0
  5  6  1  0  0  0  0
  6  7  1  0  0  0  0
  7  8  1  0  0  0  0
  7  9  2  0  0  0  0
  1 10  1  0  0  0  0
  1 11  1  0  0  0  0
  1 12  1  0  0  0  0
  2 13  1  0  0  0  0
  2 14  1  0  0  0  0
  4 15  1  0  0  0  0
  4 16  1  0  0  0  0
  5 17  1  0  0  0  0
  5 18  1  0  0  0  0
  8 19  1  0  0  0  0
  8 20  1  0  0  0  0
  8 21  1  0  0  0  0
M  END
>  <InChIKey>
InChI=1S/C6H12O3/c1-3-8-4-5-9-6(2)7/h3-5H2,1-2H3

>  <CASRN>
111-15-9  111-15-9

> <Outcome>
1

>  <Index>
2868

>  <StandardizerResult>
Clear Stereo (ID: ClearStereo)
Wedge Clean (ID: WedgeClean)
Mesomerize (ID: Mesomerize)
Tautomerize (ID: Tautomerize)
Add Explicit Hydrogens (ID: AddExplicitH)
Neutralize (ID: Neutralize)
Clean 2D (ID: Clean2D)

> <knn Distance>


> <CpId>
2868

$$$$
2869
  Mrv1532301301811342D          

 18 19  0  0  0  0            999 V2000
    0.0000   -1.6500    0.0000 Cl  0  0  0  0  0  0  0  0  0  0  0  0
    0.7145   -1.2375    0.0000 C   0  0  0  0  0  0  0  0  0  0  0  0
    0.7145   -0.4125    0.0000 C   0  0  0  0  0  0  0  0  0  0  0  0
    0.0000    0.0000    0.0000 Cl  0  0  0  0  0  0  0  0  0  0  0  0
    1.4289    0.0000    0.0000 C   0  0  0  0  0  0  0  0  0  0  0  0
    1.4289    0.8250    0.0000 O   0  0  0  0  0  0  0  0  0  0  0  0
    2.1434   -0.4125    0.0000 C   0  0  0  0  0  0  0  0  0  0  0  0
    2.8579    0.0000    0.0000 C   0  0  0  0  0  0  0  0  0  0  0  0
    3.5724   -0.4125    0.0000 C   0  0  0  0  0  0  0  0  0  0  0  0
    3.5724   -1.2375    0.0000 C   0  0  0  0  0  0  0  0  0  0  0  0
    2.8579   -1.6500    0.0000 C   0  0  0  0  0  0  0  0  0  0  0  0
    2.1434   -1.2375    0.0000 C   0  0  0  0  0  0  0  0  0  0  0  0
    1.4289   -1.6500    0.0000 C   0  0  0  0  0  0  0  0  0  0  0  0
    1.4289   -2.4750    0.0000 O   0  0  0  0  0  0  0  0  0  0  0  0
    2.8579    0.8250    0.0000 H   0  0  0  0  0  0  0  0  0  0  0  0
    4.2868   -0.0000    0.0000 H   0  0  0  0  0  0  0  0  0  0  0  0
    4.2868   -1.6500    0.0000 H   0  0  0  0  0  0  0  0  0  0  0  0
    2.8579   -2.4750    0.0000 H   0  0  0  0  0  0  0  0  0  0  0  0
  1  2  1  0  0  0  0
  2  3  2  0  0  0  0
  3  4  1  0  0  0  0
  3  5  1  0  0  0  0
  5  6  2  0  0  0  0
  5  7  1  0  0  0  0
  7  8  4  0  0  0  0
  8  9  4  0  0  0  0
  9 10  4  0  0  0  0
 10 11  4  0  0  0  0
 11 12  4  0  0  0  0
  7 12  4  0  0  0  0
 12 13  1  0  0  0  0
  2 13  1  0  0  0  0
 13 14  2  0  0  0  0
  8 15  1  0  0  0  0
  9 16  1  0  0  0  0
 10 17  1  0  0  0  0
 11 18  1  0  0  0  0
M  END
>  <InChIKey>
InChI=1S/C10H4Cl2O2/c11-7-8(12)10(14)6-4-2-1-3-5(6)9(7)13/h1-4H

>  <CASRN>
117-80-6

> <Outcome>
1

>  <Index>
2869

>  <StandardizerResult>
Dearomatize (ID: Dearomatize)
Clear Stereo (ID: ClearStereo)
Wedge Clean (ID: WedgeClean)
Mesomerize (ID: Mesomerize)
Tautomerize (ID: Tautomerize)
Aromatize (ID: Aromatize)
Add Explicit Hydrogens (ID: AddExplicitH)
Neutralize (ID: Neutralize)
Clean 2D (ID: Clean2D)

> <knn Distance>


> <CpId>
2869

$$$$
2873
  Mrv1532301301811342D          

 15 14  0  0  0  0            999 V2000
    0.8250    1.4289    0.0000 C   0  0  0  0  0  0  0  0  0  0  0  0
    1.2375    0.7145    0.0000 N   0  0  0  0  0  0  0  0  0  0  0  0
    2.0625    0.7145    0.0000 C   0  0  0  0  0  0  0  0  0  0  0  0
    0.8250   -0.0000    0.0000 C   0  0  0  0  0  0  0  0  0  0  0  0
    1.2375   -0.7145    0.0000 N   0  0  0  0  0  0  0  0  0  0  0  0
   -0.0000   -0.0000    0.0000 N   0  0  0  0  0  0  0  0  0  0  0  0
    1.5395    1.8414    0.0000 H   0  0  0  0  0  0  0  0  0  0  0  0
    0.4125    2.1434    0.0000 H   0  0  0  0  0  0  0  0  0  0  0  0
    0.1105    1.0164    0.0000 H   0  0  0  0  0  0  0  0  0  0  0  0
    2.0625   -0.1105    0.0000 H   0  0  0  0  0  0  0  0  0  0  0  0
    2.8875    0.7145    0.0000 H   0  0  0  0  0  0  0  0  0  0  0  0
    2.0625    1.5395    0.0000 H   0  0  0  0  0  0  0  0  0  0  0  0
    0.8250   -1.4290    0.0000 H   0  0  0  0  0  0  0  0  0  0  0  0
    2.0625   -0.7145    0.0000 H   0  0  0  0  0  0  0  0  0  0  0  0
   -0.4125    0.7145    0.0000 H   0  0  0  0  0  0  0  0  0  0  0  0
  1  2  1  0  0  0  0
  2  3  1  0  0  0  0
  2  4  1  0  0  0  0
  4  5  1  0  0  0  0
  4  6  2  0  0  0  0
  1  7  1  0  0  0  0
  1  8  1  0  0  0  0
  1  9  1  0  0  0  0
  3 10  1  0  0  0  0
  3 11  1  0  0  0  0
  3 12  1  0  0  0  0
  5 13  1  0  0  0  0
  5 14  1  0  0  0  0
  6 15  1  0  0  0  0
M  END
>  <InChIKey>
InChI=1S/C3H9N3/c1-6(2)3(4)5/h1-2H3,(H3,4,5)

>  <CASRN>
6145-42-2 598-65-2

> <Outcome>
1

>  <Index>
2873

>  <StandardizerResult>
Clear Stereo (ID: ClearStereo)
Wedge Clean (ID: WedgeClean)
Mesomerize (ID: Mesomerize)
Tautomerize (ID: Tautomerize)
Add Explicit Hydrogens (ID: AddExplicitH)
Neutralize (ID: Neutralize)
Clean 2D (ID: Clean2D)

> <knn Distance>


> <CpId>
2873

$$$$
2874
  Mrv1532301301811342D          

 18 17  0  0  0  0            999 V2000
    0.0922   -2.0947    0.0000 C   0  0  0  0  0  0  0  0  0  0  0  0
    0.0922   -1.2697    0.0000 C   0  0  0  0  0  0  0  0  0  0  0  0
   -0.6222   -0.8572    0.0000 C   0  0  0  0  0  0  0  0  0  0  0  0
    0.8067   -0.8572    0.0000 O   0  0  0  0  0  0  0  0  0  0  0  0
    0.8067   -0.0322    0.0000 S   0  0  0  0  0  0  0  0  0  0  0  0
    0.8067    0.7928    0.0000 C   0  0  0  0  0  0  0  0  0  0  0  0
    1.6317   -0.0322    0.0000 O   0  0  0  0  0  0  0  0  0  0  0  0
   -0.0183   -0.0322    0.0000 O   0  0  0  0  0  0  0  0  0  0  0  0
   -0.7328   -2.0947    0.0000 H   0  0  0  0  0  0  0  0  0  0  0  0
    0.0922   -2.9197    0.0000 H   0  0  0  0  0  0  0  0  0  0  0  0
    0.9172   -2.0947    0.0000 H   0  0  0  0  0  0  0  0  0  0  0  0
   -0.6222   -1.6822    0.0000 H   0  0  0  0  0  0  0  0  0  0  0  0
   -0.0389   -0.2738    0.0000 H   0  0  0  0  0  0  0  0  0  0  0  0
   -1.0347   -0.1427    0.0000 H   0  0  0  0  0  0  0  0  0  0  0  0
   -1.4191   -1.0707    0.0000 H   0  0  0  0  0  0  0  0  0  0  0  0
    1.6317    0.7928    0.0000 H   0  0  0  0  0  0  0  0  0  0  0  0
    0.8067    1.6178    0.0000 H   0  0  0  0  0  0  0  0  0  0  0  0
   -0.0183    0.7928    0.0000 H   0  0  0  0  0  0  0  0  0  0  0  0
  1  2  1  0  0  0  0
  2  3  1  0  0  0  0
  2  4  1  0  0  0  0
  4  5  1  0  0  0  0
  5  6  1  0  0  0  0
  5  7  2  0  0  0  0
  5  8  2  0  0  0  0
  1  9  1  0  0  0  0
  1 10  1  0  0  0  0
  1 11  1  0  0  0  0
  2 12  1  0  0  0  0
  3 13  1  0  0  0  0
  3 14  1  0  0  0  0
  3 15  1  0  0  0  0
  6 16  1  0  0  0  0
  6 17  1  0  0  0  0
  6 18  1  0  0  0  0
M  END
>  <InChIKey>
InChI=1S/C4H10O3S/c1-4(2)7-8(3,5)6/h4H,1-3H3

>  <CASRN>
926-06-7

> <Outcome>
1

>  <Index>
2874

>  <StandardizerResult>
Clear Stereo (ID: ClearStereo)
Wedge Clean (ID: WedgeClean)
Mesomerize (ID: Mesomerize)
Tautomerize (ID: Tautomerize)
Add Explicit Hydrogens (ID: AddExplicitH)
Neutralize (ID: Neutralize)
Clean 2D (ID: Clean2D)

> <knn Distance>


> <CpId>
2874

$$$$
2884
  Mrv1532301301811342D          

 15 15  0  0  0  0            999 V2000
   -0.0000    3.3000    0.0000 Cl  0  0  0  0  0  0  0  0  0  0  0  0
   -0.0000    2.4750    0.0000 C   0  0  0  0  0  0  0  0  0  0  0  0
   -0.7145    2.0625    0.0000 Cl  0  0  0  0  0  0  0  0  0  0  0  0
    0.7145    2.0625    0.0000 N   0  0  0  0  0  0  0  0  0  0  0  0
    0.7145    1.2375    0.0000 C   0  0  0  0  0  0  0  0  0  0  0  0
    1.4289    0.8250    0.0000 C   0  0  0  0  0  0  0  0  0  0  0  0
    1.4289    0.0000    0.0000 C   0  0  0  0  0  0  0  0  0  0  0  0
    0.7145   -0.4125    0.0000 C   0  0  0  0  0  0  0  0  0  0  0  0
   -0.0000    0.0000    0.0000 C   0  0  0  0  0  0  0  0  0  0  0  0
   -0.0000    0.8250    0.0000 C   0  0  0  0  0  0  0  0  0  0  0  0
    2.1434    1.2375    0.0000 H   0  0  0  0  0  0  0  0  0  0  0  0
    2.1434   -0.4125    0.0000 H   0  0  0  0  0  0  0  0  0  0  0  0
    0.7145   -1.2375    0.0000 H   0  0  0  0  0  0  0  0  0  0  0  0
   -0.7145   -0.4125    0.0000 H   0  0  0  0  0  0  0  0  0  0  0  0
   -0.7145    1.2375    0.0000 H   0  0  0  0  0  0  0  0  0  0  0  0
  1  2  1  0  0  0  0
  2  3  1  0  0  0  0
  2  4  2  0  0  0  0
  4  5  1  0  0  0  0
  5  6  4  0  0  0  0
  6  7  4  0  0  0  0
  7  8  4  0  0  0  0
  8  9  4  0  0  0  0
  9 10  4  0  0  0  0
  5 10  4  0  0  0  0
  6 11  1  0  0  0  0
  7 12  1  0  0  0  0
  8 13  1  0  0  0  0
  9 14  1  0  0  0  0
 10 15  1  0  0  0  0
M  END
>  <InChIKey>
InChI=1S/C7H5Cl2N/c8-7(9)10-6-4-2-1-3-5-6/h1-5H

>  <CASRN>
622-44-6

> <Outcome>
1

>  <Index>
2884

>  <StandardizerResult>
Dearomatize (ID: Dearomatize)
Clear Stereo (ID: ClearStereo)
Wedge Clean (ID: WedgeClean)
Mesomerize (ID: Mesomerize)
Tautomerize (ID: Tautomerize)
Aromatize (ID: Aromatize)
Add Explicit Hydrogens (ID: AddExplicitH)
Neutralize (ID: Neutralize)
Clean 2D (ID: Clean2D)

> <knn Distance>


> <CpId>
2884

$$$$
2885
  Mrv1532301301811342D          

 19 19  0  0  0  0            999 V2000
    0.7145    2.0625    0.0000 C   0  0  0  0  0  0  0  0  0  0  0  0
    0.7145    1.2375    0.0000 C   0  0  0  0  0  0  0  0  0  0  0  0
    1.4289    0.8250    0.0000 C   0  0  0  0  0  0  0  0  0  0  0  0
    1.4289    0.0000    0.0000 C   0  0  0  0  0  0  0  0  0  0  0  0
    2.1434   -0.4125    0.0000 C   0  0  0  0  0  0  0  0  0  0  0  0
    0.7145   -0.4125    0.0000 C   0  0  0  0  0  0  0  0  0  0  0  0
    0.0000    0.0000    0.0000 C   0  0  0  0  0  0  0  0  0  0  0  0
   -0.7145   -0.4125    0.0000 O   0  0  0  0  0  0  0  0  0  0  0  0
    0.0000    0.8250    0.0000 C   0  0  0  0  0  0  0  0  0  0  0  0
    1.5395    2.0625    0.0000 H   0  0  0  0  0  0  0  0  0  0  0  0
    0.7145    2.8875    0.0000 H   0  0  0  0  0  0  0  0  0  0  0  0
   -0.1105    2.0625    0.0000 H   0  0  0  0  0  0  0  0  0  0  0  0
    2.1434    1.2375    0.0000 H   0  0  0  0  0  0  0  0  0  0  0  0
    1.7309   -1.1270    0.0000 H   0  0  0  0  0  0  0  0  0  0  0  0
    2.8579   -0.8250    0.0000 H   0  0  0  0  0  0  0  0  0  0  0  0
    2.5559    0.3020    0.0000 H   0  0  0  0  0  0  0  0  0  0  0  0
    0.7145   -1.2375    0.0000 H   0  0  0  0  0  0  0  0  0  0  0  0
   -1.4289    0.0000    0.0000 H   0  0  0  0  0  0  0  0  0  0  0  0
   -0.7145    1.2375    0.0000 H   0  0  0  0  0  0  0  0  0  0  0  0
  1  2  1  0  0  0  0
  2  3  4  0  0  0  0
  3  4  4  0  0  0  0
  4  5  1  0  0  0  0
  4  6  4  0  0  0  0
  6  7  4  0  0  0  0
  7  8  1  0  0  0  0
  7  9  4  0  0  0  0
  2  9  4  0  0  0  0
  1 10  1  0  0  0  0
  1 11  1  0  0  0  0
  1 12  1  0  0  0  0
  3 13  1  0  0  0  0
  5 14  1  0  0  0  0
  5 15  1  0  0  0  0
  5 16  1  0  0  0  0
  6 17  1  0  0  0  0
  8 18  1  0  0  0  0
  9 19  1  0  0  0  0
M  END
>  <InChIKey>
InChI=1S/C8H10O/c1-6-3-7(2)5-8(9)4-6/h3-5,9H,1-2H3

>  <CASRN>
108-68-9

> <Outcome>
1

>  <Index>
2885

>  <StandardizerResult>
Dearomatize (ID: Dearomatize)
Clear Stereo (ID: ClearStereo)
Wedge Clean (ID: WedgeClean)
Mesomerize (ID: Mesomerize)
Tautomerize (ID: Tautomerize)
Aromatize (ID: Aromatize)
Add Explicit Hydrogens (ID: AddExplicitH)
Neutralize (ID: Neutralize)
Clean 2D (ID: Clean2D)

> <knn Distance>


> <CpId>
2885

$$$$
2888
  Mrv1532301301811342D          

 65 65  0  0  0  0            999 V2000
   -0.8874   -6.1819    0.0000 C   0  0  0  0  0  0  0  0  0  0  0  0
   -0.1730   -6.5944    0.0000 C   0  0  0  0  0  0  0  0  0  0  0  0
    0.5415   -6.1819    0.0000 C   0  0  0  0  0  0  0  0  0  0  0  0
    1.2560   -6.5944    0.0000 C   0  0  0  0  0  0  0  0  0  0  0  0
    1.9704   -6.1819    0.0000 C   0  0  0  0  0  0  0  0  0  0  0  0
    2.6849   -6.5944    0.0000 C   0  0  0  0  0  0  0  0  0  0  0  0
    3.3994   -6.1819    0.0000 C   0  0  0  0  0  0  0  0  0  0  0  0
    4.1139   -6.5944    0.0000 C   0  0  0  0  0  0  0  0  0  0  0  0
    4.1139   -7.4194    0.0000 O   0  0  0  0  0  0  0  0  0  0  0  0
    4.8283   -6.1819    0.0000 C   0  0  0  0  0  0  0  0  0  0  0  0
    5.5428   -6.5944    0.0000 C   0  0  0  0  0  0  0  0  0  0  0  0
    6.2573   -6.1819    0.0000 C   0  0  0  0  0  0  0  0  0  0  0  0
    6.3435   -5.3614    0.0000 C   0  0  0  0  0  0  0  0  0  0  0  0
    5.7304   -4.8094    0.0000 O   0  0  0  0  0  0  0  0  0  0  0  0
    7.1505   -5.1899    0.0000 C   0  0  0  0  0  0  0  0  0  0  0  0
    7.5630   -5.9044    0.0000 C   0  0  0  0  0  0  0  0  0  0  0  0
    8.3835   -5.9906    0.0000 O   0  0  0  0  0  0  0  0  0  0  0  0
    7.0109   -6.5175    0.0000 C   0  0  0  0  0  0  0  0  0  0  0  0
    7.1825   -7.3244    0.0000 C   0  0  0  0  0  0  0  0  0  0  0  0
    7.9671   -7.5794    0.0000 C   0  0  0  0  0  0  0  0  0  0  0  0
    8.1386   -8.3863    0.0000 C   0  0  0  0  0  0  0  0  0  0  0  0
    8.9232   -8.6413    0.0000 C   0  0  0  0  0  0  0  0  0  0  0  0
    9.0948   -9.4482    0.0000 C   0  0  0  0  0  0  0  0  0  0  0  0
    9.8794   -9.7032    0.0000 C   0  0  0  0  0  0  0  0  0  0  0  0
   10.0509  -10.5102    0.0000 C   0  0  0  0  0  0  0  0  0  0  0  0
   10.8355  -10.7651    0.0000 O   0  0  0  0  0  0  0  0  0  0  0  0
    9.4378  -11.0622    0.0000 O   0  0  0  0  0  0  0  0  0  0  0  0
   -0.4749   -5.4674    0.0000 H   0  0  0  0  0  0  0  0  0  0  0  0
   -1.6019   -5.7694    0.0000 H   0  0  0  0  0  0  0  0  0  0  0  0
   -1.2999   -6.8964    0.0000 H   0  0  0  0  0  0  0  0  0  0  0  0
   -0.5432   -7.3316    0.0000 H   0  0  0  0  0  0  0  0  0  0  0  0
    0.1973   -7.3316    0.0000 H   0  0  0  0  0  0  0  0  0  0  0  0
    0.9118   -5.4447    0.0000 H   0  0  0  0  0  0  0  0  0  0  0  0
    0.1712   -5.4447    0.0000 H   0  0  0  0  0  0  0  0  0  0  0  0
    0.8857   -7.3316    0.0000 H   0  0  0  0  0  0  0  0  0  0  0  0
    1.6262   -7.3316    0.0000 H   0  0  0  0  0  0  0  0  0  0  0  0
    2.3407   -5.4447    0.0000 H   0  0  0  0  0  0  0  0  0  0  0  0
    1.6002   -5.4447    0.0000 H   0  0  0  0  0  0  0  0  0  0  0  0
    2.3147   -7.3316    0.0000 H   0  0  0  0  0  0  0  0  0  0  0  0
    3.0552   -7.3316    0.0000 H   0  0  0  0  0  0  0  0  0  0  0  0
    3.7696   -5.4447    0.0000 H   0  0  0  0  0  0  0  0  0  0  0  0
    3.0291   -5.4447    0.0000 H   0  0  0  0  0  0  0  0  0  0  0  0
    5.1986   -5.4447    0.0000 H   0  0  0  0  0  0  0  0  0  0  0  0
    4.4581   -5.4447    0.0000 H   0  0  0  0  0  0  0  0  0  0  0  0
    5.1725   -7.3316    0.0000 H   0  0  0  0  0  0  0  0  0  0  0  0
    5.9131   -7.3316    0.0000 H   0  0  0  0  0  0  0  0  0  0  0  0
    6.3005   -7.0058    0.0000 H   0  0  0  0  0  0  0  0  0  0  0  0
    5.5733   -5.6571    0.0000 H   0  0  0  0  0  0  0  0  0  0  0  0
    5.6724   -3.9864    0.0000 H   0  0  0  0  0  0  0  0  0  0  0  0
    7.8006   -4.6820    0.0000 H   0  0  0  0  0  0  0  0  0  0  0  0
    7.0929   -4.3669    0.0000 H   0  0  0  0  0  0  0  0  0  0  0  0
    7.8586   -6.6746    0.0000 H   0  0  0  0  0  0  0  0  0  0  0  0
    9.1415   -5.6649    0.0000 H   0  0  0  0  0  0  0  0  0  0  0  0
    6.8394   -5.7105    0.0000 H   0  0  0  0  0  0  0  0  0  0  0  0
    6.6617   -7.9643    0.0000 H   0  0  0  0  0  0  0  0  0  0  0  0
    7.2008   -8.1492    0.0000 H   0  0  0  0  0  0  0  0  0  0  0  0
    8.7810   -7.4444    0.0000 H   0  0  0  0  0  0  0  0  0  0  0  0
    7.9099   -9.1790    0.0000 H   0  0  0  0  0  0  0  0  0  0  0  0
    9.7189   -8.4231    0.0000 H   0  0  0  0  0  0  0  0  0  0  0  0
    9.2234   -7.8728    0.0000 H   0  0  0  0  0  0  0  0  0  0  0  0
    8.2991   -9.6664    0.0000 H   0  0  0  0  0  0  0  0  0  0  0  0
    8.7946  -10.2167    0.0000 H   0  0  0  0  0  0  0  0  0  0  0  0
   10.6750   -9.4850    0.0000 H   0  0  0  0  0  0  0  0  0  0  0  0
   10.1795   -8.9347    0.0000 H   0  0  0  0  0  0  0  0  0  0  0  0
   11.0071  -11.5721    0.0000 H   0  0  0  0  0  0  0  0  0  0  0  0
  1  2  1  0  0  0  0
  2  3  1  0  0  0  0
  3  4  1  0  0  0  0
  4  5  1  0  0  0  0
  5  6  1  0  0  0  0
  6  7  1  0  0  0  0
  7  8  1  0  0  0  0
  8  9  2  0  0  0  0
  8 10  1  0  0  0  0
 10 11  1  0  0  0  0
 11 12  1  0  0  0  0
 12 13  1  0  0  0  0
 13 14  1  0  0  0  0
 13 15  1  0  0  0  0
 15 16  1  0  0  0  0
 16 17  1  0  0  0  0
 16 18  1  0  0  0  0
 12 18  1  0  0  0  0
 18 19  1  0  0  0  0
 20 19  1  4  0  0  0
 20 21  2  0  0  0  0
 21 22  1  0  0  0  0
 22 23  1  0  0  0  0
 23 24  1  0  0  0  0
 24 25  1  0  0  0  0
 25 26  1  0  0  0  0
 25 27  2  0  0  0  0
  1 28  1  0  0  0  0
  1 29  1  0  0  0  0
  1 30  1  0  0  0  0
  2 31  1  0  0  0  0
  2 32  1  0  0  0  0
  3 33  1  0  0  0  0
  3 34  1  0  0  0  0
  4 35  1  0  0  0  0
  4 36  1  0  0  0  0
  5 37  1  0  0  0  0
  5 38  1  0  0  0  0
  6 39  1  0  0  0  0
  6 40  1  0  0  0  0
  7 41  1  0  0  0  0
  7 42  1  0  0  0  0
 10 43  1  0  0  0  0
 10 44  1  0  0  0  0
 11 45  1  0  0  0  0
 11 46  1  0  0  0  0
 12 47  1  0  0  0  0
 13 48  1  0  0  0  0
 14 49  1  0  0  0  0
 15 50  1  0  0  0  0
 15 51  1  0  0  0  0
 16 52  1  0  0  0  0
 17 53  1  0  0  0  0
 18 54  1  0  0  0  0
 19 55  1  0  0  0  0
 19 56  1  0  0  0  0
 20 57  1  0  0  0  0
 21 58  1  0  0  0  0
 22 59  1  0  0  0  0
 22 60  1  0  0  0  0
 23 61  1  0  0  0  0
 23 62  1  0  0  0  0
 24 63  1  0  0  0  0
 24 64  1  0  0  0  0
 26 65  1  0  0  0  0
M  END
>  <InChIKey>
InChI=1S/C22H38O5/c1-2-3-4-5-8-11-17(23)14-15-19-18(20(24)16-21(19)25)12-9-6-7-10-13-22(26)27/h6,9,18-21,24-25H,2-5,7-8,10-16H2,1H3,(H,26,27)

>  <CASRN>
120373-36-6

> <Outcome>
1

>  <Index>
2888

>  <StandardizerResult>
Clear Stereo (ID: ClearStereo)
Wedge Clean (ID: WedgeClean)
Mesomerize (ID: Mesomerize)
Tautomerize (ID: Tautomerize)
Add Explicit Hydrogens (ID: AddExplicitH)
Neutralize (ID: Neutralize)
Clean 2D (ID: Clean2D)

> <knn Distance>


> <CpId>
2888

$$$$
2890
  Mrv1532301301811342D          

 54 58  0  0  0  0            999 V2000
   -0.7519   -5.3503    0.0000 C   0  0  0  0  0  0  0  0  0  0  0  0
   -0.0374   -4.9378    0.0000 C   0  0  0  0  0  0  0  0  0  0  0  0
   -0.0374   -4.1128    0.0000 C   0  0  0  0  0  0  0  0  0  0  0  0
    0.6771   -3.7003    0.0000 C   0  0  0  0  0  0  0  0  0  0  0  0
    1.3915   -4.1128    0.0000 C   0  0  0  0  0  0  0  0  0  0  0  0
    2.1060   -3.7003    0.0000 N   0  0  0  0  0  0  0  0  0  0  0  0
    2.1060   -2.8753    0.0000 C   0  0  0  0  0  0  0  0  0  0  0  0
    1.3915   -2.4628    0.0000 C   0  0  0  0  0  0  0  0  0  0  0  0
    1.3915   -1.6378    0.0000 C   0  0  0  0  0  0  0  0  0  0  0  0
    2.1060   -1.2253    0.0000 C   0  0  0  0  0  0  0  0  0  0  0  0
    2.1060   -0.4003    0.0000 N   0  0  0  0  0  0  0  0  0  0  0  0
    1.3915    0.0122    0.0000 C   0  0  0  0  0  0  0  0  0  0  0  0
    0.6771   -0.4003    0.0000 C   0  0  0  0  0  0  0  0  0  0  0  0
   -0.0374    0.0122    0.0000 C   0  0  0  0  0  0  0  0  0  0  0  0
   -0.0374    0.8372    0.0000 C   0  0  0  0  0  0  0  0  0  0  0  0
   -0.7519    1.2497    0.0000 C   0  0  0  0  0  0  0  0  0  0  0  0
    0.6771    1.2497    0.0000 C   0  0  0  0  0  0  0  0  0  0  0  0
    1.3915    0.8372    0.0000 C   0  0  0  0  0  0  0  0  0  0  0  0
    2.8205   -1.6378    0.0000 C   0  0  0  0  0  0  0  0  0  0  0  0
    3.5349   -1.2253    0.0000 C   0  0  0  0  0  0  0  0  0  0  0  0
    3.5349   -0.4003    0.0000 O   0  0  0  0  0  0  0  0  0  0  0  0
    4.2494   -1.6378    0.0000 C   0  0  0  0  0  0  0  0  0  0  0  0
    4.9639   -1.2253    0.0000 C   0  0  0  0  0  0  0  0  0  0  0  0
    5.6784   -1.6378    0.0000 C   0  0  0  0  0  0  0  0  0  0  0  0
    5.6784   -2.4628    0.0000 C   0  0  0  0  0  0  0  0  0  0  0  0
    4.9639   -2.8753    0.0000 C   0  0  0  0  0  0  0  0  0  0  0  0
    4.2494   -2.4628    0.0000 C   0  0  0  0  0  0  0  0  0  0  0  0
    3.5349   -2.8753    0.0000 C   0  0  0  0  0  0  0  0  0  0  0  0
    3.5349   -3.7003    0.0000 O   0  0  0  0  0  0  0  0  0  0  0  0
    2.8205   -2.4628    0.0000 C   0  0  0  0  0  0  0  0  0  0  0  0
    1.3915   -4.9378    0.0000 C   0  0  0  0  0  0  0  0  0  0  0  0
    0.6771   -5.3503    0.0000 C   0  0  0  0  0  0  0  0  0  0  0  0
   -1.1644   -4.6359    0.0000 H   0  0  0  0  0  0  0  0  0  0  0  0
   -1.4663   -5.7628    0.0000 H   0  0  0  0  0  0  0  0  0  0  0  0
   -0.3394   -6.0648    0.0000 H   0  0  0  0  0  0  0  0  0  0  0  0
   -0.7519   -3.7003    0.0000 H   0  0  0  0  0  0  0  0  0  0  0  0
    0.6771   -2.8753    0.0000 H   0  0  0  0  0  0  0  0  0  0  0  0
    2.8205   -4.1128    0.0000 H   0  0  0  0  0  0  0  0  0  0  0  0
    1.3915   -3.2878    0.0000 H   0  0  0  0  0  0  0  0  0  0  0  0
    0.6771   -1.2253    0.0000 H   0  0  0  0  0  0  0  0  0  0  0  0
    2.8205    0.0122    0.0000 H   0  0  0  0  0  0  0  0  0  0  0  0
    1.3915   -0.8128    0.0000 H   0  0  0  0  0  0  0  0  0  0  0  0
   -0.7519   -0.4003    0.0000 H   0  0  0  0  0  0  0  0  0  0  0  0
   -0.3394    1.9641    0.0000 H   0  0  0  0  0  0  0  0  0  0  0  0
   -1.4663    1.6622    0.0000 H   0  0  0  0  0  0  0  0  0  0  0  0
   -1.1644    0.5352    0.0000 H   0  0  0  0  0  0  0  0  0  0  0  0
    0.6771    2.0747    0.0000 H   0  0  0  0  0  0  0  0  0  0  0  0
    2.1060    1.2497    0.0000 H   0  0  0  0  0  0  0  0  0  0  0  0
    4.9639   -0.4003    0.0000 H   0  0  0  0  0  0  0  0  0  0  0  0
    6.3928   -1.2253    0.0000 H   0  0  0  0  0  0  0  0  0  0  0  0
    6.3928   -2.8753    0.0000 H   0  0  0  0  0  0  0  0  0  0  0  0
    4.9639   -3.7003    0.0000 H   0  0  0  0  0  0  0  0  0  0  0  0
    2.1060   -5.3503    0.0000 H   0  0  0  0  0  0  0  0  0  0  0  0
    0.6771   -6.1753    0.0000 H   0  0  0  0  0  0  0  0  0  0  0  0
  1  2  1  0  0  0  0
  2  3  4  0  0  0  0
  3  4  4  0  0  0  0
  4  5  4  0  0  0  0
  5  6  1  0  0  0  0
  6  7  1  0  0  0  0
  7  8  4  0  0  0  0
  8  9  4  0  0  0  0
  9 10  4  0  0  0  0
 10 11  1  0  0  0  0
 11 12  1  0  0  0  0
 12 13  4  0  0  0  0
 13 14  4  0  0  0  0
 14 15  4  0  0  0  0
 15 16  1  0  0  0  0
 15 17  4  0  0  0  0
 17 18  4  0  0  0  0
 12 18  4  0  0  0  0
 10 19  4  0  0  0  0
 19 20  1  0  0  0  0
 20 21  2  0  0  0  0
 20 22  1  0  0  0  0
 22 23  4  0  0  0  0
 23 24  4  0  0  0  0
 24 25  4  0  0  0  0
 25 26  4  0  0  0  0
 26 27  4  0  0  0  0
 22 27  4  0  0  0  0
 27 28  1  0  0  0  0
 28 29  2  0  0  0  0
 28 30  1  0  0  0  0
  7 30  4  0  0  0  0
 19 30  4  0  0  0  0
  5 31  4  0  0  0  0
 31 32  4  0  0  0  0
  2 32  4  0  0  0  0
  1 33  1  0  0  0  0
  1 34  1  0  0  0  0
  1 35  1  0  0  0  0
  3 36  1  0  0  0  0
  4 37  1  0  0  0  0
  6 38  1  0  0  0  0
  8 39  1  0  0  0  0
  9 40  1  0  0  0  0
 11 41  1  0  0  0  0
 13 42  1  0  0  0  0
 14 43  1  0  0  0  0
 16 44  1  0  0  0  0
 16 45  1  0  0  0  0
 16 46  1  0  0  0  0
 17 47  1  0  0  0  0
 18 48  1  0  0  0  0
 23 49  1  0  0  0  0
 24 50  1  0  0  0  0
 25 51  1  0  0  0  0
 26 52  1  0  0  0  0
 31 53  1  0  0  0  0
 32 54  1  0  0  0  0
M  END
>  <InChIKey>
InChI=1S/C28H22N2O2/c1-17-7-11-19(12-8-17)29-23-15-16-24(30-20-13-9-18(2)10-14-20)26-25(23)27(31)21-5-3-4-6-22(21)28(26)32/h3-16,29-30H,1-2H3

>  <CASRN>
128-80-3

> <Outcome>
1

>  <Index>
2890

>  <StandardizerResult>
Dearomatize (ID: Dearomatize)
Clear Stereo (ID: ClearStereo)
Wedge Clean (ID: WedgeClean)
Mesomerize (ID: Mesomerize)
Tautomerize (ID: Tautomerize)
Aromatize (ID: Aromatize)
Add Explicit Hydrogens (ID: AddExplicitH)
Neutralize (ID: Neutralize)
Clean 2D (ID: Clean2D)

> <knn Distance>


> <CpId>
2890

$$$$
2894
  Mrv1532301301811342D          

 17 18  0  0  0  0            999 V2000
    0.0000   -0.0000    0.0000 O   0  0  0  0  0  0  0  0  0  0  0  0
    0.7145   -0.4125    0.0000 C   0  0  0  0  0  0  0  0  0  0  0  0
    1.4289   -0.0000    0.0000 N   0  0  0  0  0  0  0  0  0  0  0  0
    2.1434   -0.4125    0.0000 C   0  0  0  0  0  0  0  0  0  0  0  0
    2.8579   -0.0000    0.0000 C   0  0  0  0  0  0  0  0  0  0  0  0
    3.5724   -0.4125    0.0000 C   0  0  0  0  0  0  0  0  0  0  0  0
    3.5724   -1.2375    0.0000 C   0  0  0  0  0  0  0  0  0  0  0  0
    2.8579   -1.6500    0.0000 C   0  0  0  0  0  0  0  0  0  0  0  0
    2.1434   -1.2375    0.0000 C   0  0  0  0  0  0  0  0  0  0  0  0
    1.4289   -1.6500    0.0000 C   0  0  0  0  0  0  0  0  0  0  0  0
    1.4289   -2.4750    0.0000 O   0  0  0  0  0  0  0  0  0  0  0  0
    0.7145   -1.2375    0.0000 O   0  0  0  0  0  0  0  0  0  0  0  0
    1.4289    0.8250    0.0000 H   0  0  0  0  0  0  0  0  0  0  0  0
    2.8579    0.8250    0.0000 H   0  0  0  0  0  0  0  0  0  0  0  0
    4.2868   -0.0000    0.0000 H   0  0  0  0  0  0  0  0  0  0  0  0
    4.2868   -1.6500    0.0000 H   0  0  0  0  0  0  0  0  0  0  0  0
    2.8579   -2.4750    0.0000 H   0  0  0  0  0  0  0  0  0  0  0  0
  1  2  2  0  0  0  0
  2  3  1  0  0  0  0
  3  4  1  0  0  0  0
  4  5  4  0  0  0  0
  5  6  4  0  0  0  0
  6  7  4  0  0  0  0
  7  8  4  0  0  0  0
  8  9  4  0  0  0  0
  4  9  4  0  0  0  0
  9 10  1  0  0  0  0
 10 11  2  0  0  0  0
 10 12  1  0  0  0  0
  2 12  1  0  0  0  0
  3 13  1  0  0  0  0
  5 14  1  0  0  0  0
  6 15  1  0  0  0  0
  7 16  1  0  0  0  0
  8 17  1  0  0  0  0
M  END
>  <InChIKey>
InChI=1S/C8H5NO3/c10-7-5-3-1-2-4-6(5)9-8(11)12-7/h1-4H,(H,9,11)

>  <CASRN>
118-48-9

> <Outcome>
1

>  <Index>
2894

>  <StandardizerResult>
Dearomatize (ID: Dearomatize)
Clear Stereo (ID: ClearStereo)
Wedge Clean (ID: WedgeClean)
Mesomerize (ID: Mesomerize)
Tautomerize (ID: Tautomerize)
Aromatize (ID: Aromatize)
Add Explicit Hydrogens (ID: AddExplicitH)
Neutralize (ID: Neutralize)
Clean 2D (ID: Clean2D)

> <knn Distance>


> <CpId>
2894

$$$$
2895
  Mrv1532301301811342D          

 16 16  0  0  0  0            999 V2000
    0.7145    2.0625    0.0000 N   0  0  0  0  0  0  0  0  0  0  0  0
    0.7145    1.2375    0.0000 C   0  0  0  0  0  0  0  0  0  0  0  0
    1.4289    0.8250    0.0000 C   0  0  0  0  0  0  0  0  0  0  0  0
    1.4289   -0.0000    0.0000 C   0  0  0  0  0  0  0  0  0  0  0  0
    0.7145   -0.4125    0.0000 C   0  0  0  0  0  0  0  0  0  0  0  0
   -0.0000    0.0000    0.0000 C   0  0  0  0  0  0  0  0  0  0  0  0
   -0.0000    0.8250    0.0000 C   0  0  0  0  0  0  0  0  0  0  0  0
    0.7145   -1.2375    0.0000 N   0  0  0  0  0  0  0  0  0  0  0  0
    1.4289   -1.6500    0.0000 O   0  0  0  0  0  0  0  0  0  0  0  0
   -0.0000   -1.6500    0.0000 O   0  0  0  0  0  0  0  0  0  0  0  0
    1.4289    2.4750    0.0000 H   0  0  0  0  0  0  0  0  0  0  0  0
   -0.0000    2.4750    0.0000 H   0  0  0  0  0  0  0  0  0  0  0  0
    2.1434    1.2375    0.0000 H   0  0  0  0  0  0  0  0  0  0  0  0
    2.1434   -0.4125    0.0000 H   0  0  0  0  0  0  0  0  0  0  0  0
   -0.7145   -0.4125    0.0000 H   0  0  0  0  0  0  0  0  0  0  0  0
   -0.7145    1.2375    0.0000 H   0  0  0  0  0  0  0  0  0  0  0  0
  1  2  1  0  0  0  0
  2  3  4  0  0  0  0
  3  4  4  0  0  0  0
  4  5  4  0  0  0  0
  5  6  4  0  0  0  0
  6  7  4  0  0  0  0
  2  7  4  0  0  0  0
  5  8  1  0  0  0  0
  8  9  2  0  0  0  0
  8 10  2  0  0  0  0
  1 11  1  0  0  0  0
  1 12  1  0  0  0  0
  3 13  1  0  0  0  0
  4 14  1  0  0  0  0
  6 15  1  0  0  0  0
  7 16  1  0  0  0  0
M  END
>  <InChIKey>
InChI=1S/C6H6N2O2/c7-5-1-3-6(4-2-5)8(9)10/h1-4H,7H2

>  <CASRN>
100-01-6

> <Outcome>
1

>  <Index>
2895

>  <StandardizerResult>
Dearomatize (ID: Dearomatize)
Clear Stereo (ID: ClearStereo)
Wedge Clean (ID: WedgeClean)
Mesomerize (ID: Mesomerize)
Tautomerize (ID: Tautomerize)
Aromatize (ID: Aromatize)
Add Explicit Hydrogens (ID: AddExplicitH)
Neutralize (ID: Neutralize)
Clean 2D (ID: Clean2D)

> <knn Distance>


> <CpId>
2895

$$$$
2898
  Mrv1532301301811342D          

 20 20  0  0  0  0            999 V2000
    2.4292   -0.7800    0.0000 O   0  0  0  0  0  0  0  0  0  0  0  0
    1.9443   -0.1126    0.0000 C   0  0  0  0  0  0  0  0  0  0  0  0
    1.1238   -0.1988    0.0000 C   0  0  0  0  0  0  0  0  0  0  0  0
    0.7883   -0.9525    0.0000 O   0  0  0  0  0  0  0  0  0  0  0  0
    0.6389    0.4686    0.0000 C   0  0  0  0  0  0  0  0  0  0  0  0
   -0.1861    0.4686    0.0000 C   0  0  0  0  0  0  0  0  0  0  0  0
   -0.6710   -0.1988    0.0000 O   0  0  0  0  0  0  0  0  0  0  0  0
   -0.4410    1.2532    0.0000 C   0  0  0  0  0  0  0  0  0  0  0  0
   -1.2257    1.5082    0.0000 O   0  0  0  0  0  0  0  0  0  0  0  0
    0.2264    1.7382    0.0000 C   0  0  0  0  0  0  0  0  0  0  0  0
    0.2264    2.5632    0.0000 O   0  0  0  0  0  0  0  0  0  0  0  0
    0.8938    1.2532    0.0000 O   0  0  0  0  0  0  0  0  0  0  0  0
    2.0937   -1.5337    0.0000 H   0  0  0  0  0  0  0  0  0  0  0  0
    2.5824    0.4103    0.0000 H   0  0  0  0  0  0  0  0  0  0  0  0
    1.9059    0.7115    0.0000 H   0  0  0  0  0  0  0  0  0  0  0  0
   -1.4915   -0.1126    0.0000 H   0  0  0  0  0  0  0  0  0  0  0  0
   -0.5701    2.0681    0.0000 H   0  0  0  0  0  0  0  0  0  0  0  0
   -2.0348    1.3472    0.0000 H   0  0  0  0  0  0  0  0  0  0  0  0
    0.9615    2.1127    0.0000 H   0  0  0  0  0  0  0  0  0  0  0  0
    0.2238    3.3882    0.0000 H   0  0  0  0  0  0  0  0  0  0  0  0
  1  2  1  0  0  0  0
  2  3  1  0  0  0  0
  3  4  2  0  0  0  0
  3  5  1  0  0  0  0
  5  6  2  0  0  0  0
  6  7  1  0  0  0  0
  6  8  1  0  0  0  0
  8  9  1  0  0  0  0
  8 10  1  0  0  0  0
 10 11  1  0  0  0  0
 10 12  1  0  0  0  0
  5 12  1  0  0  0  0
  1 13  1  0  0  0  0
  2 14  1  0  0  0  0
  2 15  1  0  0  0  0
  7 16  1  0  0  0  0
  8 17  1  0  0  0  0
  9 18  1  0  0  0  0
 10 19  1  0  0  0  0
 11 20  1  0  0  0  0
M  END
>  <InChIKey>
InChI=1S/C6H8O6/c7-1-2(8)5-3(9)4(10)6(11)12-5/h4,6-7,9-11H,1H2

>  <CASRN>
50-81-7

> <Outcome>
1

>  <Index>
2898

>  <StandardizerResult>
Clear Stereo (ID: ClearStereo)
Wedge Clean (ID: WedgeClean)
Mesomerize (ID: Mesomerize)
Tautomerize (ID: Tautomerize)
Add Explicit Hydrogens (ID: AddExplicitH)
Neutralize (ID: Neutralize)
Clean 2D (ID: Clean2D)

> <knn Distance>


> <CpId>
2898

$$$$
2908
  Mrv1532301301811342D          

 21 20  0  0  0  0            999 V2000
    2.5249   -0.0070    0.0000 C   0  0  0  0  0  0  0  0  0  0  0  0
    2.1124    0.7074    0.0000 C   0  0  0  0  0  0  0  0  0  0  0  0
    1.2874    0.7074    0.0000 C   0  0  0  0  0  0  0  0  0  0  0  0
    0.8749    1.4219    0.0000 C   0  0  0  0  0  0  0  0  0  0  0  0
    0.0499    1.4219    0.0000 C   0  0  0  0  0  0  0  0  0  0  0  0
    0.8749   -0.0070    0.0000 C   0  0  0  0  0  0  0  0  0  0  0  0
    0.0499   -0.0070    0.0000 O   0  0  0  0  0  0  0  0  0  0  0  0
    1.8104   -0.4195    0.0000 H   0  0  0  0  0  0  0  0  0  0  0  0
    2.9374   -0.7215    0.0000 H   0  0  0  0  0  0  0  0  0  0  0  0
    3.2394    0.4055    0.0000 H   0  0  0  0  0  0  0  0  0  0  0  0
    2.8017    1.1608    0.0000 H   0  0  0  0  0  0  0  0  0  0  0  0
    2.1604    1.5311    0.0000 H   0  0  0  0  0  0  0  0  0  0  0  0
    1.6999    1.4219    0.0000 H   0  0  0  0  0  0  0  0  0  0  0  0
    1.1571    2.1972    0.0000 H   0  0  0  0  0  0  0  0  0  0  0  0
    0.5928    2.1972    0.0000 H   0  0  0  0  0  0  0  0  0  0  0  0
   -0.4940    2.0422    0.0000 H   0  0  0  0  0  0  0  0  0  0  0  0
   -0.6819    1.0410    0.0000 H   0  0  0  0  0  0  0  0  0  0  0  0
    0.2460    0.6206    0.0000 H   0  0  0  0  0  0  0  0  0  0  0  0
    0.9229   -0.8306    0.0000 H   0  0  0  0  0  0  0  0  0  0  0  0
    1.5642   -0.4604    0.0000 H   0  0  0  0  0  0  0  0  0  0  0  0
   -0.6148   -0.4957    0.0000 H   0  0  0  0  0  0  0  0  0  0  0  0
  1  2  1  0  0  0  0
  2  3  1  0  0  0  0
  3  4  1  0  0  0  0
  4  5  1  0  0  0  0
  3  6  1  0  0  0  0
  6  7  1  0  0  0  0
  1  8  1  0  0  0  0
  1  9  1  0  0  0  0
  1 10  1  0  0  0  0
  2 11  1  0  0  0  0
  2 12  1  0  0  0  0
  3 13  1  0  0  0  0
  4 14  1  0  0  0  0
  4 15  1  0  0  0  0
  5 16  1  0  0  0  0
  5 17  1  0  0  0  0
  5 18  1  0  0  0  0
  6 19  1  0  0  0  0
  6 20  1  0  0  0  0
  7 21  1  0  0  0  0
M  END
>  <InChIKey>
InChI=1S/C6H14O/c1-3-6(4-2)5-7/h6-7H,3-5H2,1-2H3

>  <CASRN>
97-95-0

> <Outcome>
1

>  <Index>
2908

>  <StandardizerResult>
Clear Stereo (ID: ClearStereo)
Wedge Clean (ID: WedgeClean)
Mesomerize (ID: Mesomerize)
Tautomerize (ID: Tautomerize)
Add Explicit Hydrogens (ID: AddExplicitH)
Neutralize (ID: Neutralize)
Clean 2D (ID: Clean2D)

> <knn Distance>


> <CpId>
2908

$$$$
2909
  Mrv1532301301811342D          

 54 54  0  0  0  0            999 V2000
    4.2265   -6.6014    0.0000 C   0  0  0  0  0  0  0  0  0  0  0  0
    4.9410   -7.0139    0.0000 C   0  0  0  0  0  0  0  0  0  0  0  0
    5.6554   -6.6014    0.0000 C   0  0  0  0  0  0  0  0  0  0  0  0
    6.3699   -7.0139    0.0000 C   0  0  0  0  0  0  0  0  0  0  0  0
    7.0844   -6.6014    0.0000 C   0  0  0  0  0  0  0  0  0  0  0  0
    7.7988   -7.0139    0.0000 C   0  0  0  0  0  0  0  0  0  0  0  0
    8.5133   -6.6014    0.0000 C   0  0  0  0  0  0  0  0  0  0  0  0
    9.2278   -7.0139    0.0000 C   0  0  0  0  0  0  0  0  0  0  0  0
    9.9422   -6.6014    0.0000 C   0  0  0  0  0  0  0  0  0  0  0  0
   10.6567   -7.0139    0.0000 C   0  0  0  0  0  0  0  0  0  0  0  0
   11.3712   -6.6014    0.0000 N   0  3  0  0  0  0  0  0  0  0  0  0
   11.7837   -7.3159    0.0000 C   0  0  0  0  0  0  0  0  0  0  0  0
   10.9587   -5.8869    0.0000 C   0  0  0  0  0  0  0  0  0  0  0  0
   12.0857   -6.1889    0.0000 C   0  0  0  0  0  0  0  0  0  0  0  0
   12.8001   -6.6014    0.0000 C   0  0  0  0  0  0  0  0  0  0  0  0
   13.5146   -6.1889    0.0000 C   0  0  0  0  0  0  0  0  0  0  0  0
   14.2291   -6.6014    0.0000 C   0  0  0  0  0  0  0  0  0  0  0  0
   14.2291   -7.4264    0.0000 C   0  0  0  0  0  0  0  0  0  0  0  0
   13.5146   -7.8389    0.0000 C   0  0  0  0  0  0  0  0  0  0  0  0
   12.8001   -7.4264    0.0000 C   0  0  0  0  0  0  0  0  0  0  0  0
    4.6390   -5.8869    0.0000 H   0  0  0  0  0  0  0  0  0  0  0  0
    3.5120   -6.1889    0.0000 H   0  0  0  0  0  0  0  0  0  0  0  0
    3.8140   -7.3159    0.0000 H   0  0  0  0  0  0  0  0  0  0  0  0
    4.5707   -7.7511    0.0000 H   0  0  0  0  0  0  0  0  0  0  0  0
    5.3112   -7.7511    0.0000 H   0  0  0  0  0  0  0  0  0  0  0  0
    6.0257   -5.8642    0.0000 H   0  0  0  0  0  0  0  0  0  0  0  0
    5.2852   -5.8642    0.0000 H   0  0  0  0  0  0  0  0  0  0  0  0
    5.9996   -7.7511    0.0000 H   0  0  0  0  0  0  0  0  0  0  0  0
    6.7402   -7.7511    0.0000 H   0  0  0  0  0  0  0  0  0  0  0  0
    7.4546   -5.8642    0.0000 H   0  0  0  0  0  0  0  0  0  0  0  0
    6.7141   -5.8642    0.0000 H   0  0  0  0  0  0  0  0  0  0  0  0
    7.4286   -7.7511    0.0000 H   0  0  0  0  0  0  0  0  0  0  0  0
    8.1691   -7.7511    0.0000 H   0  0  0  0  0  0  0  0  0  0  0  0
    8.8836   -5.8642    0.0000 H   0  0  0  0  0  0  0  0  0  0  0  0
    8.1430   -5.8642    0.0000 H   0  0  0  0  0  0  0  0  0  0  0  0
    8.8575   -7.7511    0.0000 H   0  0  0  0  0  0  0  0  0  0  0  0
    9.5980   -7.7511    0.0000 H   0  0  0  0  0  0  0  0  0  0  0  0
   10.3125   -5.8642    0.0000 H   0  0  0  0  0  0  0  0  0  0  0  0
    9.5720   -5.8642    0.0000 H   0  0  0  0  0  0  0  0  0  0  0  0
   10.2865   -7.7511    0.0000 H   0  0  0  0  0  0  0  0  0  0  0  0
   11.0270   -7.7511    0.0000 H   0  0  0  0  0  0  0  0  0  0  0  0
   11.8904   -8.1339    0.0000 H   0  0  0  0  0  0  0  0  0  0  0  0
   12.5804   -7.5300    0.0000 H   0  0  0  0  0  0  0  0  0  0  0  0
   12.2862   -6.6616    0.0000 H   0  0  0  0  0  0  0  0  0  0  0  0
   11.7837   -5.8942    0.0000 H   0  0  0  0  0  0  0  0  0  0  0  0
   11.3837   -5.1798    0.0000 H   0  0  0  0  0  0  0  0  0  0  0  0
   10.5652   -5.1618    0.0000 H   0  0  0  0  0  0  0  0  0  0  0  0
   12.8319   -5.8372    0.0000 H   0  0  0  0  0  0  0  0  0  0  0  0
   12.2223   -5.3753    0.0000 H   0  0  0  0  0  0  0  0  0  0  0  0
   13.9099   -5.4648    0.0000 H   0  0  0  0  0  0  0  0  0  0  0  0
   14.9435   -6.1889    0.0000 H   0  0  0  0  0  0  0  0  0  0  0  0
   14.9435   -7.8389    0.0000 H   0  0  0  0  0  0  0  0  0  0  0  0
   13.5146   -8.6639    0.0000 H   0  0  0  0  0  0  0  0  0  0  0  0
   12.7660   -8.2507    0.0000 H   0  0  0  0  0  0  0  0  0  0  0  0
  1  2  1  0  0  0  0
  2  3  1  0  0  0  0
  3  4  1  0  0  0  0
  4  5  1  0  0  0  0
  5  6  1  0  0  0  0
  6  7  1  0  0  0  0
  7  8  1  0  0  0  0
  8  9  1  0  0  0  0
  9 10  1  0  0  0  0
 10 11  1  0  0  0  0
 11 12  1  0  0  0  0
 11 13  1  0  0  0  0
 11 14  1  0  0  0  0
 14 15  1  0  0  0  0
 15 16  4  0  0  0  0
 16 17  4  0  0  0  0
 17 18  4  0  0  0  0
 18 19  4  0  0  0  0
 19 20  4  0  0  0  0
 15 20  4  0  0  0  0
  1 21  1  0  0  0  0
  1 22  1  0  0  0  0
  1 23  1  0  0  0  0
  2 24  1  0  0  0  0
  2 25  1  0  0  0  0
  3 26  1  0  0  0  0
  3 27  1  0  0  0  0
  4 28  1  0  0  0  0
  4 29  1  0  0  0  0
  5 30  1  0  0  0  0
  5 31  1  0  0  0  0
  6 32  1  0  0  0  0
  6 33  1  0  0  0  0
  7 34  1  0  0  0  0
  7 35  1  0  0  0  0
  8 36  1  0  0  0  0
  8 37  1  0  0  0  0
  9 38  1  0  0  0  0
  9 39  1  0  0  0  0
 10 40  1  0  0  0  0
 10 41  1  0  0  0  0
 12 42  1  0  0  0  0
 12 43  1  0  0  0  0
 12 44  1  0  0  0  0
 13 45  1  0  0  0  0
 13 46  1  0  0  0  0
 13 47  1  0  0  0  0
 14 48  1  0  0  0  0
 14 49  1  0  0  0  0
 16 50  1  0  0  0  0
 17 51  1  0  0  0  0
 18 52  1  0  0  0  0
 19 53  1  0  0  0  0
 20 54  1  0  0  0  0
M  CHG  1  11   1
M  END
>  <InChIKey>
InChI=1S/C19H34N/c1-4-5-6-7-8-9-10-14-17-20(2,3)18-19-15-12-11-13-16-19/h11-13,15-16H,4-10,14,17-18H2,1-3H3/q+1

>  <UN GHS>
1

>  <CASRN>
63449-41-2

> <Outcome>
1

>  <Index>
2909

>  <StandardizerResult>
Dearomatize (ID: Dearomatize)
Clear Stereo (ID: ClearStereo)
Wedge Clean (ID: WedgeClean)
Mesomerize (ID: Mesomerize)
Tautomerize (ID: Tautomerize)
Aromatize (ID: Aromatize)
Add Explicit Hydrogens (ID: AddExplicitH)
Clean 2D (ID: Clean2D)

> <knn Distance>


> <CpId>
2909

$$$$
2910
  Mrv1532301301811342D          

 67 66  0  0  0  0            999 V2000
   -1.6717    3.9849    0.0000 C   0  0  0  0  0  0  0  0  0  0  0  0
   -0.9572    3.5724    0.0000 C   0  0  0  0  0  0  0  0  0  0  0  0
   -0.2427    3.9849    0.0000 C   0  0  0  0  0  0  0  0  0  0  0  0
    0.4717    3.5724    0.0000 C   0  0  0  0  0  0  0  0  0  0  0  0
    1.1862    3.9849    0.0000 C   0  0  0  0  0  0  0  0  0  0  0  0
    1.9007    3.5724    0.0000 C   0  0  0  0  0  0  0  0  0  0  0  0
    2.6151    3.9849    0.0000 C   0  0  0  0  0  0  0  0  0  0  0  0
    3.3296    3.5724    0.0000 C   0  0  0  0  0  0  0  0  0  0  0  0
    4.0441    3.9849    0.0000 C   0  0  0  0  0  0  0  0  0  0  0  0
    4.7586    3.5724    0.0000 C   0  0  0  0  0  0  0  0  0  0  0  0
    5.4730    3.9849    0.0000 C   0  0  0  0  0  0  0  0  0  0  0  0
    6.1875    3.5724    0.0000 C   0  0  0  0  0  0  0  0  0  0  0  0
    6.9020    3.9849    0.0000 C   0  0  0  0  0  0  0  0  0  0  0  0
    7.6164    3.5724    0.0000 C   0  0  0  0  0  0  0  0  0  0  0  0
    8.3309    3.9849    0.0000 C   0  0  0  0  0  0  0  0  0  0  0  0
    9.0454    3.5724    0.0000 C   0  0  0  0  0  0  0  0  0  0  0  0
    9.7599    3.9849    0.0000 C   0  0  0  0  0  0  0  0  0  0  0  0
   10.4743    3.5724    0.0000 C   0  0  0  0  0  0  0  0  0  0  0  0
   11.1888    3.9849    0.0000 C   0  0  0  0  0  0  0  0  0  0  0  0
   11.9033    3.5724    0.0000 C   0  0  0  0  0  0  0  0  0  0  0  0
   12.6177    3.9849    0.0000 C   0  0  0  0  0  0  0  0  0  0  0  0
   13.3322    3.5724    0.0000 C   0  0  0  0  0  0  0  0  0  0  0  0
   14.0467    3.9849    0.0000 N   0  0  0  0  0  0  0  0  0  0  0  0
   13.3322    2.7474    0.0000 O   0  0  0  0  0  0  0  0  0  0  0  0
   -1.2592    4.6994    0.0000 H   0  0  0  0  0  0  0  0  0  0  0  0
   -2.3862    4.3974    0.0000 H   0  0  0  0  0  0  0  0  0  0  0  0
   -2.0842    3.2704    0.0000 H   0  0  0  0  0  0  0  0  0  0  0  0
   -1.3275    2.8352    0.0000 H   0  0  0  0  0  0  0  0  0  0  0  0
   -0.5870    2.8352    0.0000 H   0  0  0  0  0  0  0  0  0  0  0  0
    0.1275    4.7221    0.0000 H   0  0  0  0  0  0  0  0  0  0  0  0
   -0.6130    4.7221    0.0000 H   0  0  0  0  0  0  0  0  0  0  0  0
    0.1015    2.8352    0.0000 H   0  0  0  0  0  0  0  0  0  0  0  0
    0.8420    2.8352    0.0000 H   0  0  0  0  0  0  0  0  0  0  0  0
    1.5565    4.7221    0.0000 H   0  0  0  0  0  0  0  0  0  0  0  0
    0.8159    4.7221    0.0000 H   0  0  0  0  0  0  0  0  0  0  0  0
    1.5304    2.8352    0.0000 H   0  0  0  0  0  0  0  0  0  0  0  0
    2.2709    2.8352    0.0000 H   0  0  0  0  0  0  0  0  0  0  0  0
    2.9854    4.7221    0.0000 H   0  0  0  0  0  0  0  0  0  0  0  0
    2.2449    4.7221    0.0000 H   0  0  0  0  0  0  0  0  0  0  0  0
    2.9594    2.8352    0.0000 H   0  0  0  0  0  0  0  0  0  0  0  0
    3.6999    2.8352    0.0000 H   0  0  0  0  0  0  0  0  0  0  0  0
    4.0441    4.8099    0.0000 H   0  0  0  0  0  0  0  0  0  0  0  0
    4.7586    2.7474    0.0000 H   0  0  0  0  0  0  0  0  0  0  0  0
    5.8433    4.7221    0.0000 H   0  0  0  0  0  0  0  0  0  0  0  0
    5.1028    4.7221    0.0000 H   0  0  0  0  0  0  0  0  0  0  0  0
    5.8172    2.8352    0.0000 H   0  0  0  0  0  0  0  0  0  0  0  0
    6.5578    2.8352    0.0000 H   0  0  0  0  0  0  0  0  0  0  0  0
    7.2722    4.7221    0.0000 H   0  0  0  0  0  0  0  0  0  0  0  0
    6.5317    4.7221    0.0000 H   0  0  0  0  0  0  0  0  0  0  0  0
    7.2462    2.8352    0.0000 H   0  0  0  0  0  0  0  0  0  0  0  0
    7.9867    2.8352    0.0000 H   0  0  0  0  0  0  0  0  0  0  0  0
    8.7012    4.7221    0.0000 H   0  0  0  0  0  0  0  0  0  0  0  0
    7.9607    4.7221    0.0000 H   0  0  0  0  0  0  0  0  0  0  0  0
    8.6751    2.8352    0.0000 H   0  0  0  0  0  0  0  0  0  0  0  0
    9.4156    2.8352    0.0000 H   0  0  0  0  0  0  0  0  0  0  0  0
   10.1301    4.7221    0.0000 H   0  0  0  0  0  0  0  0  0  0  0  0
    9.3896    4.7221    0.0000 H   0  0  0  0  0  0  0  0  0  0  0  0
   10.1041    2.8352    0.0000 H   0  0  0  0  0  0  0  0  0  0  0  0
   10.8446    2.8352    0.0000 H   0  0  0  0  0  0  0  0  0  0  0  0
   11.5591    4.7221    0.0000 H   0  0  0  0  0  0  0  0  0  0  0  0
   10.8185    4.7221    0.0000 H   0  0  0  0  0  0  0  0  0  0  0  0
   11.5330    2.8352    0.0000 H   0  0  0  0  0  0  0  0  0  0  0  0
   12.2735    2.8352    0.0000 H   0  0  0  0  0  0  0  0  0  0  0  0
   12.9880    4.7221    0.0000 H   0  0  0  0  0  0  0  0  0  0  0  0
   12.2475    4.7221    0.0000 H   0  0  0  0  0  0  0  0  0  0  0  0
   14.7612    3.5724    0.0000 H   0  0  0  0  0  0  0  0  0  0  0  0
   14.0467    4.8099    0.0000 H   0  0  0  0  0  0  0  0  0  0  0  0
  1  2  1  0  0  0  0
  2  3  1  0  0  0  0
  3  4  1  0  0  0  0
  4  5  1  0  0  0  0
  5  6  1  0  0  0  0
  6  7  1  0  0  0  0
  7  8  1  0  0  0  0
  9  8  1  4  0  0  0
  9 10  2  0  0  0  0
 10 11  1  0  0  0  0
 11 12  1  0  0  0  0
 12 13  1  0  0  0  0
 13 14  1  0  0  0  0
 14 15  1  0  0  0  0
 15 16  1  0  0  0  0
 16 17  1  0  0  0  0
 17 18  1  0  0  0  0
 18 19  1  0  0  0  0
 19 20  1  0  0  0  0
 20 21  1  0  0  0  0
 21 22  1  0  0  0  0
 22 23  1  0  0  0  0
 22 24  2  0  0  0  0
  1 25  1  0  0  0  0
  1 26  1  0  0  0  0
  1 27  1  0  0  0  0
  2 28  1  0  0  0  0
  2 29  1  0  0  0  0
  3 30  1  0  0  0  0
  3 31  1  0  0  0  0
  4 32  1  0  0  0  0
  4 33  1  0  0  0  0
  5 34  1  0  0  0  0
  5 35  1  0  0  0  0
  6 36  1  0  0  0  0
  6 37  1  0  0  0  0
  7 38  1  0  0  0  0
  7 39  1  0  0  0  0
  8 40  1  0  0  0  0
  8 41  1  0  0  0  0
  9 42  1  0  0  0  0
 10 43  1  0  0  0  0
 11 44  1  0  0  0  0
 11 45  1  0  0  0  0
 12 46  1  0  0  0  0
 12 47  1  0  0  0  0
 13 48  1  0  0  0  0
 13 49  1  0  0  0  0
 14 50  1  0  0  0  0
 14 51  1  0  0  0  0
 15 52  1  0  0  0  0
 15 53  1  0  0  0  0
 16 54  1  0  0  0  0
 16 55  1  0  0  0  0
 17 56  1  0  0  0  0
 17 57  1  0  0  0  0
 18 58  1  0  0  0  0
 18 59  1  0  0  0  0
 19 60  1  0  0  0  0
 19 61  1  0  0  0  0
 20 62  1  0  0  0  0
 20 63  1  0  0  0  0
 21 64  1  0  0  0  0
 21 65  1  0  0  0  0
 23 66  1  0  0  0  0
 23 67  1  0  0  0  0
M  END
>  <InChIKey>
InChI=1S/C22H43NO/c1-2-3-4-5-6-7-8-9-10-11-12-13-14-15-16-17-18-19-20-21-22(23)24/h9-10H,2-8,11-21H2,1H3,(H2,23,24)

>  <CASRN>
112-84-5

> <Outcome>
1

>  <Index>
2910

>  <StandardizerResult>
Clear Stereo (ID: ClearStereo)
Wedge Clean (ID: WedgeClean)
Mesomerize (ID: Mesomerize)
Tautomerize (ID: Tautomerize)
Add Explicit Hydrogens (ID: AddExplicitH)
Neutralize (ID: Neutralize)
Clean 2D (ID: Clean2D)

> <knn Distance>


> <CpId>
2910

$$$$
2912
  Mrv1532301301811342D          

  8  7  0  0  0  0            999 V2000
    0.8228    1.4289    0.0000 Cl  0  0  0  0  0  0  0  0  0  0  0  0
    1.2353    0.7145    0.0000 C   0  0  0  0  0  0  0  0  0  0  0  0
    0.8228    0.0000    0.0000 C   0  0  0  0  0  0  0  0  0  0  0  0
    1.2353   -0.7145    0.0000 Cl  0  0  0  0  0  0  0  0  0  0  0  0
   -0.0022    0.0000    0.0000 Cl  0  0  0  0  0  0  0  0  0  0  0  0
    1.9725    0.3442    0.0000 H   0  0  0  0  0  0  0  0  0  0  0  0
    1.9725    1.0847    0.0000 H   0  0  0  0  0  0  0  0  0  0  0  0
    1.6478    0.0000    0.0000 H   0  0  0  0  0  0  0  0  0  0  0  0
  1  2  1  0  0  0  0
  2  3  1  0  0  0  0
  3  4  1  0  0  0  0
  3  5  1  0  0  0  0
  2  6  1  0  0  0  0
  2  7  1  0  0  0  0
  3  8  1  0  0  0  0
M  END
>  <InChIKey>
InChI=1S/C2H3Cl3/c3-1-2(4)5/h2H,1H2

>  <CASRN>
79-00-5

> <Outcome>
1

>  <Index>
2912

>  <StandardizerResult>
Clear Stereo (ID: ClearStereo)
Wedge Clean (ID: WedgeClean)
Mesomerize (ID: Mesomerize)
Tautomerize (ID: Tautomerize)
Add Explicit Hydrogens (ID: AddExplicitH)
Neutralize (ID: Neutralize)
Clean 2D (ID: Clean2D)

> <knn Distance>


> <CpId>
2912

$$$$
2925
  Mrv1532301301811342D          

 26 25  0  0  0  0            999 V2000
    2.2836    2.1434    0.0000 C   0  0  0  0  0  0  0  0  0  0  0  0
    2.9980    2.5559    0.0000 O   0  0  0  0  0  0  0  0  0  0  0  0
    3.7125    2.1434    0.0000 C   0  0  0  0  0  0  0  0  0  0  0  0
    3.7125    1.3184    0.0000 O   0  0  0  0  0  0  0  0  0  0  0  0
    4.4270    2.5559    0.0000 C   0  0  0  0  0  0  0  0  0  0  0  0
    5.1415    2.1434    0.0000 C   0  0  0  0  0  0  0  0  0  0  0  0
    5.8559    2.5559    0.0000 C   0  0  0  0  0  0  0  0  0  0  0  0
    6.5704    2.1434    0.0000 C   0  0  0  0  0  0  0  0  0  0  0  0
    7.2849    2.5559    0.0000 C   0  0  0  0  0  0  0  0  0  0  0  0
    7.2849    3.3809    0.0000 O   0  0  0  0  0  0  0  0  0  0  0  0
    7.9993    2.1434    0.0000 O   0  0  0  0  0  0  0  0  0  0  0  0
    8.7138    2.5559    0.0000 C   0  0  0  0  0  0  0  0  0  0  0  0
    1.8711    2.8579    0.0000 H   0  0  0  0  0  0  0  0  0  0  0  0
    1.5691    1.7309    0.0000 H   0  0  0  0  0  0  0  0  0  0  0  0
    2.6961    1.4289    0.0000 H   0  0  0  0  0  0  0  0  0  0  0  0
    4.7972    3.2931    0.0000 H   0  0  0  0  0  0  0  0  0  0  0  0
    4.0567    3.2931    0.0000 H   0  0  0  0  0  0  0  0  0  0  0  0
    4.7712    1.4062    0.0000 H   0  0  0  0  0  0  0  0  0  0  0  0
    5.5117    1.4062    0.0000 H   0  0  0  0  0  0  0  0  0  0  0  0
    6.2262    3.2931    0.0000 H   0  0  0  0  0  0  0  0  0  0  0  0
    5.4857    3.2931    0.0000 H   0  0  0  0  0  0  0  0  0  0  0  0
    6.2001    1.4062    0.0000 H   0  0  0  0  0  0  0  0  0  0  0  0
    6.9407    1.4062    0.0000 H   0  0  0  0  0  0  0  0  0  0  0  0
    9.1263    1.8414    0.0000 H   0  0  0  0  0  0  0  0  0  0  0  0
    9.4283    2.9684    0.0000 H   0  0  0  0  0  0  0  0  0  0  0  0
    8.3013    3.2704    0.0000 H   0  0  0  0  0  0  0  0  0  0  0  0
  1  2  1  0  0  0  0
  2  3  1  0  0  0  0
  3  4  2  0  0  0  0
  3  5  1  0  0  0  0
  5  6  1  0  0  0  0
  6  7  1  0  0  0  0
  7  8  1  0  0  0  0
  8  9  1  0  0  0  0
  9 10  2  0  0  0  0
  9 11  1  0  0  0  0
 11 12  1  0  0  0  0
  1 13  1  0  0  0  0
  1 14  1  0  0  0  0
  1 15  1  0  0  0  0
  5 16  1  0  0  0  0
  5 17  1  0  0  0  0
  6 18  1  0  0  0  0
  6 19  1  0  0  0  0
  7 20  1  0  0  0  0
  7 21  1  0  0  0  0
  8 22  1  0  0  0  0
  8 23  1  0  0  0  0
 12 24  1  0  0  0  0
 12 25  1  0  0  0  0
 12 26  1  0  0  0  0
M  END
>  <InChIKey>
InChI=1S/C8H14O4/c1-11-7(9)5-3-4-6-8(10)12-2/h3-6H2,1-2H3

>  <CASRN>
627-93-0

> <Outcome>
1

>  <Index>
2925

>  <StandardizerResult>
Clear Stereo (ID: ClearStereo)
Wedge Clean (ID: WedgeClean)
Mesomerize (ID: Mesomerize)
Tautomerize (ID: Tautomerize)
Add Explicit Hydrogens (ID: AddExplicitH)
Neutralize (ID: Neutralize)
Clean 2D (ID: Clean2D)

> <knn Distance>


> <CpId>
2925

$$$$
2929
  Mrv1532301301811342D          

 17 17  0  0  0  0            999 V2000
    0.7145    2.0625    0.0000 O   0  0  0  0  0  0  0  0  0  0  0  0
    0.7145    1.2375    0.0000 C   0  0  0  0  0  0  0  0  0  0  0  0
    1.4289    0.8250    0.0000 C   0  0  0  0  0  0  0  0  0  0  0  0
    1.4289   -0.0000    0.0000 C   0  0  0  0  0  0  0  0  0  0  0  0
    0.7145   -0.4125    0.0000 C   0  0  0  0  0  0  0  0  0  0  0  0
   -0.0000   -0.0000    0.0000 C   0  0  0  0  0  0  0  0  0  0  0  0
   -0.0000    0.8250    0.0000 C   0  0  0  0  0  0  0  0  0  0  0  0
   -0.7145    1.2375    0.0000 N   0  0  0  0  0  0  0  0  0  0  0  0
   -0.7145    2.0625    0.0000 O   0  0  0  0  0  0  0  0  0  0  0  0
   -1.4289    0.8250    0.0000 O   0  0  0  0  0  0  0  0  0  0  0  0
    0.7145   -1.2375    0.0000 N   0  0  0  0  0  0  0  0  0  0  0  0
    1.4289   -1.6500    0.0000 O   0  0  0  0  0  0  0  0  0  0  0  0
   -0.0000   -1.6500    0.0000 O   0  0  0  0  0  0  0  0  0  0  0  0
    1.4289    2.4750    0.0000 H   0  0  0  0  0  0  0  0  0  0  0  0
    2.1434    1.2375    0.0000 H   0  0  0  0  0  0  0  0  0  0  0  0
    2.1434   -0.4125    0.0000 H   0  0  0  0  0  0  0  0  0  0  0  0
   -0.7145   -0.4125    0.0000 H   0  0  0  0  0  0  0  0  0  0  0  0
  1  2  1  0  0  0  0
  2  3  4  0  0  0  0
  3  4  4  0  0  0  0
  4  5  4  0  0  0  0
  5  6  4  0  0  0  0
  6  7  4  0  0  0  0
  2  7  4  0  0  0  0
  7  8  1  0  0  0  0
  8  9  2  0  0  0  0
  8 10  2  0  0  0  0
  5 11  1  0  0  0  0
 11 12  2  0  0  0  0
 11 13  2  0  0  0  0
  1 14  1  0  0  0  0
  3 15  1  0  0  0  0
  4 16  1  0  0  0  0
  6 17  1  0  0  0  0
M  END
>  <InChIKey>
InChI=1S/C6H4N2O5/c9-6-2-1-4(7(10)11)3-5(6)8(12)13/h1-3,9H

>  <CASRN>
51-28-5

> <Outcome>
1

>  <Index>
2929

>  <StandardizerResult>
Dearomatize (ID: Dearomatize)
Clear Stereo (ID: ClearStereo)
Wedge Clean (ID: WedgeClean)
Mesomerize (ID: Mesomerize)
Tautomerize (ID: Tautomerize)
Aromatize (ID: Aromatize)
Add Explicit Hydrogens (ID: AddExplicitH)
Neutralize (ID: Neutralize)
Clean 2D (ID: Clean2D)

> <knn Distance>


> <CpId>
2929

$$$$
2934
  Mrv1532301301811342D          

  8  7  0  0  0  0            999 V2000
    0.8250   -1.6500    0.0000 F   0  0  0  0  0  0  0  0  0  0  0  0
    0.8250   -0.8250    0.0000 C   0  0  0  0  0  0  0  0  0  0  0  0
    1.6500   -0.8250    0.0000 Cl  0  0  0  0  0  0  0  0  0  0  0  0
    0.0000   -0.8250    0.0000 Cl  0  0  0  0  0  0  0  0  0  0  0  0
    0.8250    0.0000    0.0000 C   0  0  0  0  0  0  0  0  0  0  0  0
    0.8250    0.8250    0.0000 F   0  0  0  0  0  0  0  0  0  0  0  0
    1.6500   -0.0000    0.0000 Cl  0  0  0  0  0  0  0  0  0  0  0  0
    0.0000    0.0000    0.0000 Cl  0  0  0  0  0  0  0  0  0  0  0  0
  1  2  1  0  0  0  0
  2  3  1  0  0  0  0
  2  4  1  0  0  0  0
  2  5  1  0  0  0  0
  5  6  1  0  0  0  0
  5  7  1  0  0  0  0
  5  8  1  0  0  0  0
M  END
>  <InChIKey>
InChI=1S/C2Cl4F2/c3-1(4,7)2(5,6)8

>  <CASRN>
76-12-0

> <Outcome>
1

>  <Index>
2934

>  <StandardizerResult>
Clear Stereo (ID: ClearStereo)
Wedge Clean (ID: WedgeClean)
Mesomerize (ID: Mesomerize)
Tautomerize (ID: Tautomerize)
Clean 2D (ID: Clean2D)

> <knn Distance>


> <CpId>
2934

$$$$
2938
  Mrv1532301301811342D          

 31 33  0  0  0  0            999 V2000
   -0.6838    3.5256    0.0000 O   0  0  0  0  0  0  0  0  0  0  0  0
   -0.1318    2.9125    0.0000 C   0  0  0  0  0  0  0  0  0  0  0  0
   -0.3867    2.1279    0.0000 C   0  0  0  0  0  0  0  0  0  0  0  0
    0.0982    1.4605    0.0000 O   0  0  0  0  0  0  0  0  0  0  0  0
   -0.3867    0.7930    0.0000 C   0  0  0  0  0  0  0  0  0  0  0  0
   -1.1713    1.0480    0.0000 C   0  0  0  0  0  0  0  0  0  0  0  0
   -1.8388    0.5631    0.0000 O   0  0  0  0  0  0  0  0  0  0  0  0
   -1.1713    1.8730    0.0000 C   0  0  0  0  0  0  0  0  0  0  0  0
   -1.8388    2.3579    0.0000 O   0  0  0  0  0  0  0  0  0  0  0  0
   -0.1318    0.0084    0.0000 N   0  0  0  0  0  0  0  0  0  0  0  0
   -0.6167   -0.6590    0.0000 C   0  0  0  0  0  0  0  0  0  0  0  0
   -0.1318   -1.3265    0.0000 N   0  0  0  0  0  0  0  0  0  0  0  0
    0.6528   -1.0715    0.0000 C   0  0  0  0  0  0  0  0  0  0  0  0
    0.6528   -0.2465    0.0000 C   0  0  0  0  0  0  0  0  0  0  0  0
    1.3673    0.1660    0.0000 N   0  0  0  0  0  0  0  0  0  0  0  0
    2.0818   -0.2465    0.0000 C   0  0  0  0  0  0  0  0  0  0  0  0
    2.0818   -1.0715    0.0000 N   0  0  0  0  0  0  0  0  0  0  0  0
    1.3673   -1.4840    0.0000 C   0  0  0  0  0  0  0  0  0  0  0  0
    1.3673   -2.3090    0.0000 O   0  0  0  0  0  0  0  0  0  0  0  0
   -0.4289    4.3103    0.0000 H   0  0  0  0  0  0  0  0  0  0  0  0
    0.6663    2.7037    0.0000 H   0  0  0  0  0  0  0  0  0  0  0  0
    0.5124    3.4280    0.0000 H   0  0  0  0  0  0  0  0  0  0  0  0
   -0.9701    2.7113    0.0000 H   0  0  0  0  0  0  0  0  0  0  0  0
   -0.9701    0.2097    0.0000 H   0  0  0  0  0  0  0  0  0  0  0  0
   -1.9064    1.4225    0.0000 H   0  0  0  0  0  0  0  0  0  0  0  0
   -2.5047    0.0760    0.0000 H   0  0  0  0  0  0  0  0  0  0  0  0
   -0.5039    1.3881    0.0000 H   0  0  0  0  0  0  0  0  0  0  0  0
   -2.5062    2.8428    0.0000 H   0  0  0  0  0  0  0  0  0  0  0  0
   -1.3378   -1.0598    0.0000 H   0  0  0  0  0  0  0  0  0  0  0  0
    2.7963    0.1660    0.0000 H   0  0  0  0  0  0  0  0  0  0  0  0
    2.7963   -1.4840    0.0000 H   0  0  0  0  0  0  0  0  0  0  0  0
  1  2  1  0  0  0  0
  2  3  1  0  0  0  0
  3  4  1  0  0  0  0
  4  5  1  0  0  0  0
  5  6  1  0  0  0  0
  6  7  1  0  0  0  0
  6  8  1  0  0  0  0
  3  8  1  0  0  0  0
  8  9  1  0  0  0  0
  5 10  1  0  0  0  0
 10 11  4  0  0  0  0
 11 12  4  0  0  0  0
 12 13  4  0  0  0  0
 13 14  4  0  0  0  0
 10 14  4  0  0  0  0
 14 15  1  0  0  0  0
 15 16  2  0  0  0  0
 16 17  1  0  0  0  0
 17 18  1  0  0  0  0
 13 18  1  0  0  0  0
 18 19  2  0  0  0  0
  1 20  1  0  0  0  0
  2 21  1  0  0  0  0
  2 22  1  0  0  0  0
  3 23  1  0  0  0  0
  5 24  1  0  0  0  0
  6 25  1  0  0  0  0
  7 26  1  0  0  0  0
  8 27  1  0  0  0  0
  9 28  1  0  0  0  0
 11 29  1  0  0  0  0
 16 30  1  0  0  0  0
 17 31  1  0  0  0  0
M  END
>  <InChIKey>
InChI=1S/C10H12N4O5/c15-1-4-6(16)7(17)10(19-4)14-3-13-5-8(14)11-2-12-9(5)18/h2-4,6-7,10,15-17H,1H2,(H,11,12,18)

>  <CASRN>
58-63-9

> <Outcome>
1

>  <Index>
2938

>  <StandardizerResult>
Dearomatize (ID: Dearomatize)
Clear Stereo (ID: ClearStereo)
Wedge Clean (ID: WedgeClean)
Mesomerize (ID: Mesomerize)
Tautomerize (ID: Tautomerize)
Aromatize (ID: Aromatize)
Add Explicit Hydrogens (ID: AddExplicitH)
Neutralize (ID: Neutralize)
Clean 2D (ID: Clean2D)

> <knn Distance>


> <CpId>
2938

$$$$
2939
  Mrv1532301301811342D          

 24 25  0  0  0  0            999 V2000
    2.0934   -0.4019    0.0000 Cl  0  0  0  0  0  0  0  0  0  0  0  0
    2.0934   -1.2269    0.0000 C   0  0  0  0  0  0  0  0  0  0  0  0
    2.8079   -1.6394    0.0000 C   0  0  0  0  0  0  0  0  0  0  0  0
    2.8079   -2.4644    0.0000 C   0  0  0  0  0  0  0  0  0  0  0  0
    2.0934   -2.8769    0.0000 C   0  0  0  0  0  0  0  0  0  0  0  0
    1.3790   -2.4644    0.0000 C   0  0  0  0  0  0  0  0  0  0  0  0
    1.3790   -1.6394    0.0000 C   0  0  0  0  0  0  0  0  0  0  0  0
    2.0934   -3.7019    0.0000 C   0  0  0  0  0  0  0  0  0  0  0  0
    2.8079   -4.1144    0.0000 O   0  0  0  0  0  0  0  0  0  0  0  0
    1.3790   -4.1144    0.0000 C   0  0  0  0  0  0  0  0  0  0  0  0
    1.3790   -4.9394    0.0000 C   0  0  0  0  0  0  0  0  0  0  0  0
    0.6645   -5.3519    0.0000 C   0  0  0  0  0  0  0  0  0  0  0  0
   -0.0500   -4.9394    0.0000 C   0  0  0  0  0  0  0  0  0  0  0  0
   -0.0500   -4.1144    0.0000 C   0  0  0  0  0  0  0  0  0  0  0  0
    0.6645   -3.7019    0.0000 C   0  0  0  0  0  0  0  0  0  0  0  0
    3.5224   -1.2269    0.0000 H   0  0  0  0  0  0  0  0  0  0  0  0
    3.5224   -2.8769    0.0000 H   0  0  0  0  0  0  0  0  0  0  0  0
    0.6645   -2.8769    0.0000 H   0  0  0  0  0  0  0  0  0  0  0  0
    0.6645   -1.2269    0.0000 H   0  0  0  0  0  0  0  0  0  0  0  0
    2.0934   -5.3519    0.0000 H   0  0  0  0  0  0  0  0  0  0  0  0
    0.6645   -6.1769    0.0000 H   0  0  0  0  0  0  0  0  0  0  0  0
   -0.7644   -5.3519    0.0000 H   0  0  0  0  0  0  0  0  0  0  0  0
   -0.7644   -3.7019    0.0000 H   0  0  0  0  0  0  0  0  0  0  0  0
    1.3790   -3.2894    0.0000 H   0  0  0  0  0  0  0  0  0  0  0  0
  1  2  1  0  0  0  0
  2  3  4  0  0  0  0
  3  4  4  0  0  0  0
  4  5  4  0  0  0  0
  5  6  4  0  0  0  0
  6  7  4  0  0  0  0
  2  7  4  0  0  0  0
  5  8  1  0  0  0  0
  8  9  2  0  0  0  0
  8 10  1  0  0  0  0
 10 11  4  0  0  0  0
 11 12  4  0  0  0  0
 12 13  4  0  0  0  0
 13 14  4  0  0  0  0
 14 15  4  0  0  0  0
 10 15  4  0  0  0  0
  3 16  1  0  0  0  0
  4 17  1  0  0  0  0
  6 18  1  0  0  0  0
  7 19  1  0  0  0  0
 11 20  1  0  0  0  0
 12 21  1  0  0  0  0
 13 22  1  0  0  0  0
 14 23  1  0  0  0  0
 15 24  1  0  0  0  0
M  END
>  <InChIKey>
InChI=1S/C13H9ClO/c14-12-8-6-11(7-9-12)13(15)10-4-2-1-3-5-10/h1-9H

>  <CASRN>
134-85-0

> <Outcome>
1

>  <Index>
2939

>  <StandardizerResult>
Dearomatize (ID: Dearomatize)
Clear Stereo (ID: ClearStereo)
Wedge Clean (ID: WedgeClean)
Mesomerize (ID: Mesomerize)
Tautomerize (ID: Tautomerize)
Aromatize (ID: Aromatize)
Add Explicit Hydrogens (ID: AddExplicitH)
Neutralize (ID: Neutralize)
Clean 2D (ID: Clean2D)

> <knn Distance>


> <CpId>
2939

$$$$
2941
  Mrv1532301301811342D          

 12 12  0  0  0  0            999 V2000
    0.7145    1.2375    0.0000 C   0  0  0  0  0  0  0  0  0  0  0  0
    1.4289    0.8250    0.0000 C   0  0  0  0  0  0  0  0  0  0  0  0
    1.4289   -0.0000    0.0000 C   0  0  0  0  0  0  0  0  0  0  0  0
    0.7145   -0.4125    0.0000 C   0  0  0  0  0  0  0  0  0  0  0  0
    0.0000    0.0000    0.0000 C   0  0  0  0  0  0  0  0  0  0  0  0
    0.0000    0.8250    0.0000 C   0  0  0  0  0  0  0  0  0  0  0  0
    0.7145    2.0625    0.0000 H   0  0  0  0  0  0  0  0  0  0  0  0
    2.1434    1.2375    0.0000 H   0  0  0  0  0  0  0  0  0  0  0  0
    2.1434   -0.4125    0.0000 H   0  0  0  0  0  0  0  0  0  0  0  0
    0.7145   -1.2375    0.0000 H   0  0  0  0  0  0  0  0  0  0  0  0
   -0.7145   -0.4125    0.0000 H   0  0  0  0  0  0  0  0  0  0  0  0
   -0.7145    1.2375    0.0000 H   0  0  0  0  0  0  0  0  0  0  0  0
  1  2  4  0  0  0  0
  2  3  4  0  0  0  0
  3  4  4  0  0  0  0
  4  5  4  0  0  0  0
  5  6  4  0  0  0  0
  1  6  4  0  0  0  0
  1  7  1  0  0  0  0
  2  8  1  0  0  0  0
  3  9  1  0  0  0  0
  4 10  1  0  0  0  0
  5 11  1  0  0  0  0
  6 12  1  0  0  0  0
M  END
>  <InChIKey>
InChI=1S/C6H6/c1-2-4-6-5-3-1/h1-6H

>  <CASRN>
71-43-2

> <Outcome>
1

>  <Index>
2941

>  <StandardizerResult>
Dearomatize (ID: Dearomatize)
Clear Stereo (ID: ClearStereo)
Wedge Clean (ID: WedgeClean)
Mesomerize (ID: Mesomerize)
Tautomerize (ID: Tautomerize)
Aromatize (ID: Aromatize)
Add Explicit Hydrogens (ID: AddExplicitH)
Neutralize (ID: Neutralize)
Clean 2D (ID: Clean2D)

> <knn Distance>


> <CpId>
2941

$$$$
2944
  Mrv1532301301811342D          

 17 17  0  0  0  0            999 V2000
   -0.0000    2.4750    0.0000 O   0  0  0  0  0  0  0  0  0  0  0  0
    0.7145    2.0625    0.0000 C   0  0  0  0  0  0  0  0  0  0  0  0
    1.4289    2.4750    0.0000 O   0  0  0  0  0  0  0  0  0  0  0  0
    0.7145    1.2375    0.0000 C   0  0  0  0  0  0  0  0  0  0  0  0
    1.4289    0.8250    0.0000 C   0  0  0  0  0  0  0  0  0  0  0  0
    1.4289   -0.0000    0.0000 C   0  0  0  0  0  0  0  0  0  0  0  0
    0.7145   -0.4125    0.0000 C   0  0  0  0  0  0  0  0  0  0  0  0
    0.7145   -1.2375    0.0000 O   0  0  0  0  0  0  0  0  0  0  0  0
   -0.0000   -0.0000    0.0000 C   0  0  0  0  0  0  0  0  0  0  0  0
   -0.0000    0.8250    0.0000 C   0  0  0  0  0  0  0  0  0  0  0  0
   -0.7145    1.2375    0.0000 O   0  0  0  0  0  0  0  0  0  0  0  0
   -0.0000    3.3000    0.0000 H   0  0  0  0  0  0  0  0  0  0  0  0
    2.1434    1.2375    0.0000 H   0  0  0  0  0  0  0  0  0  0  0  0
    2.1434   -0.4125    0.0000 H   0  0  0  0  0  0  0  0  0  0  0  0
   -0.0000   -1.6500    0.0000 H   0  0  0  0  0  0  0  0  0  0  0  0
   -0.7145   -0.4125    0.0000 H   0  0  0  0  0  0  0  0  0  0  0  0
   -0.7145    2.0625    0.0000 H   0  0  0  0  0  0  0  0  0  0  0  0
  1  2  1  0  0  0  0
  2  3  2  0  0  0  0
  2  4  1  0  0  0  0
  4  5  4  0  0  0  0
  5  6  4  0  0  0  0
  6  7  4  0  0  0  0
  7  8  1  0  0  0  0
  7  9  4  0  0  0  0
  9 10  4  0  0  0  0
  4 10  4  0  0  0  0
 10 11  1  0  0  0  0
  1 12  1  0  0  0  0
  5 13  1  0  0  0  0
  6 14  1  0  0  0  0
  8 15  1  0  0  0  0
  9 16  1  0  0  0  0
 11 17  1  0  0  0  0
M  END
>  <InChIKey>
InChI=1S/C7H6O4/c8-4-1-2-5(7(10)11)6(9)3-4/h1-3,8-9H,(H,10,11)

>  <UN GHS>
1

>  <CASRN>
89-86-1

> <Outcome>
1

>  <Index>
2944

>  <StandardizerResult>
Dearomatize (ID: Dearomatize)
Clear Stereo (ID: ClearStereo)
Wedge Clean (ID: WedgeClean)
Mesomerize (ID: Mesomerize)
Tautomerize (ID: Tautomerize)
Aromatize (ID: Aromatize)
Add Explicit Hydrogens (ID: AddExplicitH)
Neutralize (ID: Neutralize)
Clean 2D (ID: Clean2D)

> <knn Distance>


> <CpId>
2944

$$$$
2946
  Mrv1532301301811342D          

 39 40  0  0  0  0            999 V2000
   -2.5014   -1.0445    0.0000 O   0  0  0  0  0  0  0  0  0  0  0  0
   -1.6889   -0.9012    0.0000 O   0  0  0  0  0  0  0  0  0  0  0  0
   -1.1586   -1.5332    0.0000 C   0  0  0  0  0  0  0  0  0  0  0  0
   -0.4441   -1.9457    0.0000 C   0  0  0  0  0  0  0  0  0  0  0  0
   -0.4441   -2.7707    0.0000 C   0  0  0  0  0  0  0  0  0  0  0  0
   -1.1586   -3.1832    0.0000 C   0  0  0  0  0  0  0  0  0  0  0  0
   -1.8731   -2.7707    0.0000 C   0  0  0  0  0  0  0  0  0  0  0  0
   -1.8731   -1.9457    0.0000 C   0  0  0  0  0  0  0  0  0  0  0  0
   -0.6283   -0.9012    0.0000 O   0  0  0  0  0  0  0  0  0  0  0  0
    0.1842   -1.0445    0.0000 O   0  0  0  0  0  0  0  0  0  0  0  0
    0.7145   -0.4125    0.0000 C   0  0  0  0  0  0  0  0  0  0  0  0
    1.2448   -1.0445    0.0000 O   0  0  0  0  0  0  0  0  0  0  0  0
   -0.0000    0.0000    0.0000 C   0  0  0  0  0  0  0  0  0  0  0  0
   -0.0000    0.8250    0.0000 C   0  0  0  0  0  0  0  0  0  0  0  0
    0.7145    1.2375    0.0000 C   0  0  0  0  0  0  0  0  0  0  0  0
    1.4289    0.8250    0.0000 C   0  0  0  0  0  0  0  0  0  0  0  0
    1.4289    0.0000    0.0000 C   0  0  0  0  0  0  0  0  0  0  0  0
   -3.0317   -0.4125    0.0000 H   0  0  0  0  0  0  0  0  0  0  0  0
    0.3795   -1.8977    0.0000 H   0  0  0  0  0  0  0  0  0  0  0  0
    0.0092   -1.2564    0.0000 H   0  0  0  0  0  0  0  0  0  0  0  0
    0.0092   -3.4600    0.0000 H   0  0  0  0  0  0  0  0  0  0  0  0
    0.3795   -2.8187    0.0000 H   0  0  0  0  0  0  0  0  0  0  0  0
   -1.5289   -3.9205    0.0000 H   0  0  0  0  0  0  0  0  0  0  0  0
   -0.7883   -3.9205    0.0000 H   0  0  0  0  0  0  0  0  0  0  0  0
   -2.6967   -2.8187    0.0000 H   0  0  0  0  0  0  0  0  0  0  0  0
   -2.3264   -3.4600    0.0000 H   0  0  0  0  0  0  0  0  0  0  0  0
   -2.3264   -1.2564    0.0000 H   0  0  0  0  0  0  0  0  0  0  0  0
   -2.6967   -1.8977    0.0000 H   0  0  0  0  0  0  0  0  0  0  0  0
    0.9626   -1.8197    0.0000 H   0  0  0  0  0  0  0  0  0  0  0  0
   -0.8236   -0.0480    0.0000 H   0  0  0  0  0  0  0  0  0  0  0  0
   -0.4533   -0.6893    0.0000 H   0  0  0  0  0  0  0  0  0  0  0  0
   -0.4533    1.5143    0.0000 H   0  0  0  0  0  0  0  0  0  0  0  0
   -0.8236    0.8730    0.0000 H   0  0  0  0  0  0  0  0  0  0  0  0
    1.0847    1.9748    0.0000 H   0  0  0  0  0  0  0  0  0  0  0  0
    0.3442    1.9748    0.0000 H   0  0  0  0  0  0  0  0  0  0  0  0
    2.2525    0.8730    0.0000 H   0  0  0  0  0  0  0  0  0  0  0  0
    1.8823    1.5143    0.0000 H   0  0  0  0  0  0  0  0  0  0  0  0
    1.8823   -0.6893    0.0000 H   0  0  0  0  0  0  0  0  0  0  0  0
    2.2525   -0.0480    0.0000 H   0  0  0  0  0  0  0  0  0  0  0  0
  1  2  1  0  0  0  0
  2  3  1  0  0  0  0
  3  4  1  0  0  0  0
  4  5  1  0  0  0  0
  5  6  1  0  0  0  0
  6  7  1  0  0  0  0
  7  8  1  0  0  0  0
  3  8  1  0  0  0  0
  3  9  1  0  0  0  0
  9 10  1  0  0  0  0
 10 11  1  0  0  0  0
 11 12  1  0  0  0  0
 11 13  1  0  0  0  0
 13 14  1  0  0  0  0
 14 15  1  0  0  0  0
 15 16  1  0  0  0  0
 16 17  1  0  0  0  0
 11 17  1  0  0  0  0
  1 18  1  0  0  0  0
  4 19  1  0  0  0  0
  4 20  1  0  0  0  0
  5 21  1  0  0  0  0
  5 22  1  0  0  0  0
  6 23  1  0  0  0  0
  6 24  1  0  0  0  0
  7 25  1  0  0  0  0
  7 26  1  0  0  0  0
  8 27  1  0  0  0  0
  8 28  1  0  0  0  0
 12 29  1  0  0  0  0
 13 30  1  0  0  0  0
 13 31  1  0  0  0  0
 14 32  1  0  0  0  0
 14 33  1  0  0  0  0
 15 34  1  0  0  0  0
 15 35  1  0  0  0  0
 16 36  1  0  0  0  0
 16 37  1  0  0  0  0
 17 38  1  0  0  0  0
 17 39  1  0  0  0  0
M  END
>  <InChIKey>
InChI=1S/C12H22O5/c13-11(7-3-1-4-8-11)16-17-12(15-14)9-5-2-6-10-12/h13-14H,1-10H2

>  <CASRN>
78-18-2

> <Outcome>
1

>  <Index>
2946

>  <StandardizerResult>
Clear Stereo (ID: ClearStereo)
Wedge Clean (ID: WedgeClean)
Mesomerize (ID: Mesomerize)
Tautomerize (ID: Tautomerize)
Add Explicit Hydrogens (ID: AddExplicitH)
Neutralize (ID: Neutralize)
Clean 2D (ID: Clean2D)

> <knn Distance>


> <CpId>
2946

$$$$
2954
  Mrv1532301301811342D          

 68 67  0  0  0  0            999 V2000
   11.6605    7.5575    0.0000 C   0  0  0  0  0  0  0  0  0  0  0  0
   12.3750    7.1450    0.0000 C   0  0  0  0  0  0  0  0  0  0  0  0
   13.0895    7.5575    0.0000 C   0  0  0  0  0  0  0  0  0  0  0  0
   13.8039    7.1450    0.0000 C   0  0  0  0  0  0  0  0  0  0  0  0
   14.5184    7.5575    0.0000 C   0  0  0  0  0  0  0  0  0  0  0  0
   15.2329    7.1450    0.0000 C   0  0  0  0  0  0  0  0  0  0  0  0
   15.9474    7.5575    0.0000 C   0  0  0  0  0  0  0  0  0  0  0  0
   16.6618    7.1450    0.0000 C   0  0  0  0  0  0  0  0  0  0  0  0
   17.3763    7.5575    0.0000 C   0  0  0  0  0  0  0  0  0  0  0  0
   18.0908    7.1450    0.0000 C   0  0  0  0  0  0  0  0  0  0  0  0
   18.8052    7.5575    0.0000 C   0  0  0  0  0  0  0  0  0  0  0  0
   19.5197    7.1450    0.0000 C   0  0  0  0  0  0  0  0  0  0  0  0
   20.2342    7.5575    0.0000 C   0  0  0  0  0  0  0  0  0  0  0  0
   20.9487    7.1450    0.0000 C   0  0  0  0  0  0  0  0  0  0  0  0
   21.6631    7.5575    0.0000 C   0  0  0  0  0  0  0  0  0  0  0  0
   22.3776    7.1450    0.0000 C   0  0  0  0  0  0  0  0  0  0  0  0
   23.0921    7.5575    0.0000 C   0  0  0  0  0  0  0  0  0  0  0  0
   23.8065    7.1450    0.0000 C   0  0  0  0  0  0  0  0  0  0  0  0
   23.8065    6.3200    0.0000 O   0  0  0  0  0  0  0  0  0  0  0  0
   24.5210    7.5575    0.0000 O   0  0  0  0  0  0  0  0  0  0  0  0
   25.2355    7.1450    0.0000 C   0  0  0  0  0  0  0  0  0  0  0  0
   25.9499    7.5575    0.0000 C   0  0  0  0  0  0  0  0  0  0  0  0
   26.6644    7.1450    0.0000 C   0  0  0  0  0  0  0  0  0  0  0  0
   27.3789    7.5575    0.0000 C   0  0  0  0  0  0  0  0  0  0  0  0
   12.0730    8.2719    0.0000 H   0  0  0  0  0  0  0  0  0  0  0  0
   10.9461    7.9700    0.0000 H   0  0  0  0  0  0  0  0  0  0  0  0
   11.2480    6.8430    0.0000 H   0  0  0  0  0  0  0  0  0  0  0  0
   12.0047    6.4077    0.0000 H   0  0  0  0  0  0  0  0  0  0  0  0
   12.7453    6.4077    0.0000 H   0  0  0  0  0  0  0  0  0  0  0  0
   13.4597    8.2947    0.0000 H   0  0  0  0  0  0  0  0  0  0  0  0
   12.7192    8.2947    0.0000 H   0  0  0  0  0  0  0  0  0  0  0  0
   13.4337    6.4077    0.0000 H   0  0  0  0  0  0  0  0  0  0  0  0
   14.1742    6.4077    0.0000 H   0  0  0  0  0  0  0  0  0  0  0  0
   14.8887    8.2947    0.0000 H   0  0  0  0  0  0  0  0  0  0  0  0
   14.1482    8.2947    0.0000 H   0  0  0  0  0  0  0  0  0  0  0  0
   14.8626    6.4077    0.0000 H   0  0  0  0  0  0  0  0  0  0  0  0
   15.6031    6.4077    0.0000 H   0  0  0  0  0  0  0  0  0  0  0  0
   16.3176    8.2947    0.0000 H   0  0  0  0  0  0  0  0  0  0  0  0
   15.5771    8.2947    0.0000 H   0  0  0  0  0  0  0  0  0  0  0  0
   16.2916    6.4077    0.0000 H   0  0  0  0  0  0  0  0  0  0  0  0
   17.0321    6.4077    0.0000 H   0  0  0  0  0  0  0  0  0  0  0  0
   17.7466    8.2947    0.0000 H   0  0  0  0  0  0  0  0  0  0  0  0
   17.0060    8.2947    0.0000 H   0  0  0  0  0  0  0  0  0  0  0  0
   17.7205    6.4077    0.0000 H   0  0  0  0  0  0  0  0  0  0  0  0
   18.4610    6.4077    0.0000 H   0  0  0  0  0  0  0  0  0  0  0  0
   19.1755    8.2947    0.0000 H   0  0  0  0  0  0  0  0  0  0  0  0
   18.4350    8.2947    0.0000 H   0  0  0  0  0  0  0  0  0  0  0  0
   19.1495    6.4077    0.0000 H   0  0  0  0  0  0  0  0  0  0  0  0
   19.8900    6.4077    0.0000 H   0  0  0  0  0  0  0  0  0  0  0  0
   20.6044    8.2947    0.0000 H   0  0  0  0  0  0  0  0  0  0  0  0
   19.8639    8.2947    0.0000 H   0  0  0  0  0  0  0  0  0  0  0  0
   20.5784    6.4077    0.0000 H   0  0  0  0  0  0  0  0  0  0  0  0
   21.3189    6.4077    0.0000 H   0  0  0  0  0  0  0  0  0  0  0  0
   22.0334    8.2947    0.0000 H   0  0  0  0  0  0  0  0  0  0  0  0
   21.2929    8.2947    0.0000 H   0  0  0  0  0  0  0  0  0  0  0  0
   22.0073    6.4077    0.0000 H   0  0  0  0  0  0  0  0  0  0  0  0
   22.7479    6.4077    0.0000 H   0  0  0  0  0  0  0  0  0  0  0  0
   23.4623    8.2947    0.0000 H   0  0  0  0  0  0  0  0  0  0  0  0
   22.7218    8.2947    0.0000 H   0  0  0  0  0  0  0  0  0  0  0  0
   24.8652    6.4077    0.0000 H   0  0  0  0  0  0  0  0  0  0  0  0
   25.6057    6.4077    0.0000 H   0  0  0  0  0  0  0  0  0  0  0  0
   26.3202    8.2947    0.0000 H   0  0  0  0  0  0  0  0  0  0  0  0
   25.5797    8.2947    0.0000 H   0  0  0  0  0  0  0  0  0  0  0  0
   26.2942    6.4077    0.0000 H   0  0  0  0  0  0  0  0  0  0  0  0
   27.0347    6.4077    0.0000 H   0  0  0  0  0  0  0  0  0  0  0  0
   27.7914    6.8430    0.0000 H   0  0  0  0  0  0  0  0  0  0  0  0
   28.0934    7.9700    0.0000 H   0  0  0  0  0  0  0  0  0  0  0  0
   26.9664    8.2719    0.0000 H   0  0  0  0  0  0  0  0  0  0  0  0
  1  2  1  0  0  0  0
  2  3  1  0  0  0  0
  3  4  1  0  0  0  0
  4  5  1  0  0  0  0
  5  6  1  0  0  0  0
  6  7  1  0  0  0  0
  7  8  1  0  0  0  0
  8  9  1  0  0  0  0
  9 10  1  0  0  0  0
 10 11  1  0  0  0  0
 11 12  1  0  0  0  0
 12 13  1  0  0  0  0
 13 14  1  0  0  0  0
 14 15  1  0  0  0  0
 15 16  1  0  0  0  0
 16 17  1  0  0  0  0
 17 18  1  0  0  0  0
 18 19  2  0  0  0  0
 18 20  1  0  0  0  0
 20 21  1  0  0  0  0
 21 22  1  0  0  0  0
 22 23  1  0  0  0  0
 23 24  1  0  0  0  0
  1 25  1  0  0  0  0
  1 26  1  0  0  0  0
  1 27  1  0  0  0  0
  2 28  1  0  0  0  0
  2 29  1  0  0  0  0
  3 30  1  0  0  0  0
  3 31  1  0  0  0  0
  4 32  1  0  0  0  0
  4 33  1  0  0  0  0
  5 34  1  0  0  0  0
  5 35  1  0  0  0  0
  6 36  1  0  0  0  0
  6 37  1  0  0  0  0
  7 38  1  0  0  0  0
  7 39  1  0  0  0  0
  8 40  1  0  0  0  0
  8 41  1  0  0  0  0
  9 42  1  0  0  0  0
  9 43  1  0  0  0  0
 10 44  1  0  0  0  0
 10 45  1  0  0  0  0
 11 46  1  0  0  0  0
 11 47  1  0  0  0  0
 12 48  1  0  0  0  0
 12 49  1  0  0  0  0
 13 50  1  0  0  0  0
 13 51  1  0  0  0  0
 14 52  1  0  0  0  0
 14 53  1  0  0  0  0
 15 54  1  0  0  0  0
 15 55  1  0  0  0  0
 16 56  1  0  0  0  0
 16 57  1  0  0  0  0
 17 58  1  0  0  0  0
 17 59  1  0  0  0  0
 21 60  1  0  0  0  0
 21 61  1  0  0  0  0
 22 62  1  0  0  0  0
 22 63  1  0  0  0  0
 23 64  1  0  0  0  0
 23 65  1  0  0  0  0
 24 66  1  0  0  0  0
 24 67  1  0  0  0  0
 24 68  1  0  0  0  0
M  END
>  <InChIKey>
InChI=1S/C22H44O2/c1-3-5-7-8-9-10-11-12-13-14-15-16-17-18-19-20-22(23)24-21-6-4-2/h3-21H2,1-2H3

>  <CASRN>
123-95-5

> <Outcome>
1

>  <Index>
2954

>  <StandardizerResult>
Clear Stereo (ID: ClearStereo)
Wedge Clean (ID: WedgeClean)
Mesomerize (ID: Mesomerize)
Tautomerize (ID: Tautomerize)
Add Explicit Hydrogens (ID: AddExplicitH)
Neutralize (ID: Neutralize)
Clean 2D (ID: Clean2D)

> <knn Distance>


> <CpId>
2954

$$$$
2959
  Mrv1532301301811342D          

 14 13  0  0  0  0            999 V2000
   -0.1915    0.7145    0.0000 Br  0  0  0  0  0  0  0  0  0  0  0  0
    0.5230    1.1270    0.0000 C   0  0  0  0  0  0  0  0  0  0  0  0
    1.2375    0.7145    0.0000 C   0  0  0  0  0  0  0  0  0  0  0  0
    1.9520    1.1270    0.0000 C   0  0  0  0  0  0  0  0  0  0  0  0
    2.6664    0.7145    0.0000 C   0  0  0  0  0  0  0  0  0  0  0  0
    3.3809    1.1270    0.0000 Br  0  0  0  0  0  0  0  0  0  0  0  0
    0.8933    1.8642    0.0000 H   0  0  0  0  0  0  0  0  0  0  0  0
    0.1528    1.8642    0.0000 H   0  0  0  0  0  0  0  0  0  0  0  0
    0.8672   -0.0227    0.0000 H   0  0  0  0  0  0  0  0  0  0  0  0
    1.6077   -0.0227    0.0000 H   0  0  0  0  0  0  0  0  0  0  0  0
    2.3222    1.8642    0.0000 H   0  0  0  0  0  0  0  0  0  0  0  0
    1.5817    1.8642    0.0000 H   0  0  0  0  0  0  0  0  0  0  0  0
    2.2962   -0.0227    0.0000 H   0  0  0  0  0  0  0  0  0  0  0  0
    3.0367   -0.0227    0.0000 H   0  0  0  0  0  0  0  0  0  0  0  0
  1  2  1  0  0  0  0
  2  3  1  0  0  0  0
  3  4  1  0  0  0  0
  4  5  1  0  0  0  0
  5  6  1  0  0  0  0
  2  7  1  0  0  0  0
  2  8  1  0  0  0  0
  3  9  1  0  0  0  0
  3 10  1  0  0  0  0
  4 11  1  0  0  0  0
  4 12  1  0  0  0  0
  5 13  1  0  0  0  0
  5 14  1  0  0  0  0
M  END
>  <InChIKey>
InChI=1S/C4H8Br2/c5-3-1-2-4-6/h1-4H2

>  <CASRN>
110-52-1  110-52-1

> <Outcome>
1

>  <Index>
2959

>  <StandardizerResult>
Clear Stereo (ID: ClearStereo)
Wedge Clean (ID: WedgeClean)
Mesomerize (ID: Mesomerize)
Tautomerize (ID: Tautomerize)
Add Explicit Hydrogens (ID: AddExplicitH)
Neutralize (ID: Neutralize)
Clean 2D (ID: Clean2D)

> <knn Distance>


> <CpId>
2959

$$$$
2961
  Mrv1532301301811342D          

  9  8  0  0  0  0            999 V2000
    2.0635    0.7128    0.0000 Cl  0  0  0  0  0  0  0  0  0  0  0  0
    1.2385    0.7128    0.0000 C   0  0  0  0  0  0  0  0  0  0  0  0
    0.8260   -0.0017    0.0000 C   0  0  0  0  0  0  0  0  0  0  0  0
    1.2385   -0.7162    0.0000 Cl  0  0  0  0  0  0  0  0  0  0  0  0
    0.0010   -0.0017    0.0000 C   0  0  0  0  0  0  0  0  0  0  0  0
   -0.4115   -0.7162    0.0000 Cl  0  0  0  0  0  0  0  0  0  0  0  0
   -0.4115    0.7128    0.0000 Cl  0  0  0  0  0  0  0  0  0  0  0  0
    1.1905    1.5364    0.0000 H   0  0  0  0  0  0  0  0  0  0  0  0
    0.5492    1.1661    0.0000 H   0  0  0  0  0  0  0  0  0  0  0  0
  1  2  1  0  0  0  0
  2  3  1  0  0  0  0
  3  4  1  0  0  0  0
  3  5  2  0  0  0  0
  5  6  1  0  0  0  0
  5  7  1  0  0  0  0
  2  8  1  0  0  0  0
  2  9  1  0  0  0  0
M  END
>  <InChIKey>
InChI=1S/C3H2Cl4/c4-1-2(5)3(6)7/h1H2

>  <CASRN>
10436-39-2

> <Outcome>
1

>  <Index>
2961

>  <StandardizerResult>
Clear Stereo (ID: ClearStereo)
Wedge Clean (ID: WedgeClean)
Mesomerize (ID: Mesomerize)
Tautomerize (ID: Tautomerize)
Add Explicit Hydrogens (ID: AddExplicitH)
Neutralize (ID: Neutralize)
Clean 2D (ID: Clean2D)

> <knn Distance>


> <CpId>
2961

$$$$
2964
  Mrv1532301301811342D          

 18 18  0  0  0  0            999 V2000
    0.7988    2.1166    0.0000 Cl  0  0  0  0  0  0  0  0  0  0  0  0
    0.7988    1.2916    0.0000 C   0  0  0  0  0  0  0  0  0  0  0  0
    1.5133    0.8791    0.0000 C   0  0  0  0  0  0  0  0  0  0  0  0
    1.5133    0.0541    0.0000 C   0  0  0  0  0  0  0  0  0  0  0  0
    0.7988   -0.3584    0.0000 C   0  0  0  0  0  0  0  0  0  0  0  0
    0.0844    0.0541    0.0000 C   0  0  0  0  0  0  0  0  0  0  0  0
    0.0844    0.8791    0.0000 C   0  0  0  0  0  0  0  0  0  0  0  0
    0.0844    1.7041    0.0000 H   0  0  0  0  0  0  0  0  0  0  0  0
    2.3369    0.9271    0.0000 H   0  0  0  0  0  0  0  0  0  0  0  0
    1.9666    1.5684    0.0000 H   0  0  0  0  0  0  0  0  0  0  0  0
    1.9666   -0.6351    0.0000 H   0  0  0  0  0  0  0  0  0  0  0  0
    2.3369    0.0062    0.0000 H   0  0  0  0  0  0  0  0  0  0  0  0
    0.4286   -1.0956    0.0000 H   0  0  0  0  0  0  0  0  0  0  0  0
    1.1691   -1.0956    0.0000 H   0  0  0  0  0  0  0  0  0  0  0  0
   -0.7393    0.0062    0.0000 H   0  0  0  0  0  0  0  0  0  0  0  0
   -0.3690   -0.6351    0.0000 H   0  0  0  0  0  0  0  0  0  0  0  0
   -0.6909    1.1613    0.0000 H   0  0  0  0  0  0  0  0  0  0  0  0
   -0.6909    0.5970    0.0000 H   0  0  0  0  0  0  0  0  0  0  0  0
  1  2  1  0  0  0  0
  2  3  1  0  0  0  0
  3  4  1  0  0  0  0
  4  5  1  0  0  0  0
  5  6  1  0  0  0  0
  6  7  1  0  0  0  0
  2  7  1  0  0  0  0
  2  8  1  0  0  0  0
  3  9  1  0  0  0  0
  3 10  1  0  0  0  0
  4 11  1  0  0  0  0
  4 12  1  0  0  0  0
  5 13  1  0  0  0  0
  5 14  1  0  0  0  0
  6 15  1  0  0  0  0
  6 16  1  0  0  0  0
  7 17  1  0  0  0  0
  7 18  1  0  0  0  0
M  END
>  <InChIKey>
InChI=1S/C6H11Cl/c7-6-4-2-1-3-5-6/h6H,1-5H2

>  <CASRN>
542-18-7

> <Outcome>
1

>  <Index>
2964

>  <StandardizerResult>
Clear Stereo (ID: ClearStereo)
Wedge Clean (ID: WedgeClean)
Mesomerize (ID: Mesomerize)
Tautomerize (ID: Tautomerize)
Add Explicit Hydrogens (ID: AddExplicitH)
Neutralize (ID: Neutralize)
Clean 2D (ID: Clean2D)

> <knn Distance>


> <CpId>
2964

$$$$
2968
  Mrv1532301301811342D          

 29 30  0  0  0  0            999 V2000
   -0.1288   -1.3301    0.0000 O   0  0  0  0  0  0  0  0  0  0  0  0
    0.6962   -1.3301    0.0000 C   0  0  0  0  0  0  0  0  0  0  0  0
    0.6962   -2.1551    0.0000 C   0  0  0  0  0  0  0  0  0  0  0  0
    1.4107   -2.5676    0.0000 C   0  0  0  0  0  0  0  0  0  0  0  0
    1.4107   -3.3926    0.0000 C   0  0  0  0  0  0  0  0  0  0  0  0
    0.6962   -3.8051    0.0000 C   0  0  0  0  0  0  0  0  0  0  0  0
    0.6962   -4.6301    0.0000 Cl  0  0  0  0  0  0  0  0  0  0  0  0
   -0.0183   -3.3926    0.0000 C   0  0  0  0  0  0  0  0  0  0  0  0
   -0.0183   -2.5676    0.0000 C   0  0  0  0  0  0  0  0  0  0  0  0
    0.6962   -0.5051    0.0000 C   0  0  0  0  0  0  0  0  0  0  0  0
   -0.0183   -0.0926    0.0000 C   0  0  0  0  0  0  0  0  0  0  0  0
   -0.0183    0.7324    0.0000 C   0  0  0  0  0  0  0  0  0  0  0  0
    0.6962    1.1449    0.0000 C   0  0  0  0  0  0  0  0  0  0  0  0
    0.6962    1.9699    0.0000 Cl  0  0  0  0  0  0  0  0  0  0  0  0
    1.4107    0.7324    0.0000 C   0  0  0  0  0  0  0  0  0  0  0  0
    1.4107   -0.0926    0.0000 C   0  0  0  0  0  0  0  0  0  0  0  0
    1.5212   -1.3301    0.0000 C   0  0  0  0  0  0  0  0  0  0  0  0
    2.3462   -1.3301    0.0000 Cl  0  0  0  0  0  0  0  0  0  0  0  0
    1.5212   -2.1551    0.0000 Cl  0  0  0  0  0  0  0  0  0  0  0  0
    1.5212   -0.5051    0.0000 Cl  0  0  0  0  0  0  0  0  0  0  0  0
   -0.5413   -0.6157    0.0000 H   0  0  0  0  0  0  0  0  0  0  0  0
    2.2286   -2.6753    0.0000 H   0  0  0  0  0  0  0  0  0  0  0  0
    2.1251   -3.8051    0.0000 H   0  0  0  0  0  0  0  0  0  0  0  0
   -0.7328   -3.8051    0.0000 H   0  0  0  0  0  0  0  0  0  0  0  0
   -0.7328   -2.1551    0.0000 H   0  0  0  0  0  0  0  0  0  0  0  0
   -0.7805    0.2231    0.0000 H   0  0  0  0  0  0  0  0  0  0  0  0
   -0.4539    1.4330    0.0000 H   0  0  0  0  0  0  0  0  0  0  0  0
    2.1251    1.1449    0.0000 H   0  0  0  0  0  0  0  0  0  0  0  0
    2.2286    0.0151    0.0000 H   0  0  0  0  0  0  0  0  0  0  0  0
  1  2  1  0  0  0  0
  2  3  1  0  0  0  0
  3  4  4  0  0  0  0
  4  5  4  0  0  0  0
  5  6  4  0  0  0  0
  6  7  1  0  0  0  0
  6  8  4  0  0  0  0
  8  9  4  0  0  0  0
  3  9  4  0  0  0  0
  2 10  1  0  0  0  0
 10 11  4  0  0  0  0
 11 12  4  0  0  0  0
 12 13  4  0  0  0  0
 13 14  1  0  0  0  0
 13 15  4  0  0  0  0
 15 16  4  0  0  0  0
 10 16  4  0  0  0  0
  2 17  1  0  0  0  0
 17 18  1  0  0  0  0
 17 19  1  0  0  0  0
 17 20  1  0  0  0  0
  1 21  1  0  0  0  0
  4 22  1  0  0  0  0
  5 23  1  0  0  0  0
  8 24  1  0  0  0  0
  9 25  1  0  0  0  0
 11 26  1  0  0  0  0
 12 27  1  0  0  0  0
 15 28  1  0  0  0  0
 16 29  1  0  0  0  0
M  END
>  <InChIKey>
InChI=1S/C14H9Cl5O/c15-11-5-1-9(2-6-11)13(20,14(17,18)19)10-3-7-12(16)8-4-10/h1-8,20H

>  <CASRN>
115-32-2

> <Outcome>
1

>  <Index>
2968

>  <StandardizerResult>
Dearomatize (ID: Dearomatize)
Clear Stereo (ID: ClearStereo)
Wedge Clean (ID: WedgeClean)
Mesomerize (ID: Mesomerize)
Tautomerize (ID: Tautomerize)
Aromatize (ID: Aromatize)
Add Explicit Hydrogens (ID: AddExplicitH)
Neutralize (ID: Neutralize)
Clean 2D (ID: Clean2D)

> <knn Distance>


> <CpId>
2968

$$$$
2969
  Mrv1532301301811342D          

  9  8  0  0  0  0            999 V2000
    2.0635    0.7128    0.0000 Cl  0  0  0  0  0  0  0  0  0  0  0  0
    1.2385    0.7128    0.0000 C   0  0  0  0  0  0  0  0  0  0  0  0
    0.8260   -0.0017    0.0000 C   0  0  0  0  0  0  0  0  0  0  0  0
    0.0010   -0.0017    0.0000 C   0  0  0  0  0  0  0  0  0  0  0  0
   -0.4115   -0.7162    0.0000 Cl  0  0  0  0  0  0  0  0  0  0  0  0
    1.1905    1.5364    0.0000 H   0  0  0  0  0  0  0  0  0  0  0  0
    0.5492    1.1661    0.0000 H   0  0  0  0  0  0  0  0  0  0  0  0
    1.2385   -0.7162    0.0000 H   0  0  0  0  0  0  0  0  0  0  0  0
   -0.4115    0.7128    0.0000 H   0  0  0  0  0  0  0  0  0  0  0  0
  1  2  1  0  0  0  0
  2  3  1  0  0  0  0
  3  4  2  0  0  0  0
  4  5  1  4  0  0  0
  2  6  1  0  0  0  0
  2  7  1  0  0  0  0
  3  8  1  0  0  0  0
  4  9  1  0  0  0  0
M  END
>  <InChIKey>
InChI=1S/C3H4Cl2/c4-2-1-3-5/h1-2H,3H2

>  <CASRN>
10061-02-6 542-75-6

> <Outcome>
1

>  <Index>
2969

>  <StandardizerResult>
Clear Stereo (ID: ClearStereo)
Wedge Clean (ID: WedgeClean)
Mesomerize (ID: Mesomerize)
Tautomerize (ID: Tautomerize)
Add Explicit Hydrogens (ID: AddExplicitH)
Neutralize (ID: Neutralize)
Clean 2D (ID: Clean2D)

> <knn Distance>


> <CpId>
2969

$$$$
2977
  Mrv1532301301811342D          

 22 23  0  0  0  0            999 V2000
    0.7145   -0.4125    0.0000 Cl  0  0  0  0  0  0  0  0  0  0  0  0
    0.7145   -1.2375    0.0000 C   0  0  0  0  0  0  0  0  0  0  0  0
    1.4289   -1.6500    0.0000 C   0  0  0  0  0  0  0  0  0  0  0  0
    1.4289   -2.4750    0.0000 C   0  0  0  0  0  0  0  0  0  0  0  0
    0.7145   -2.8875    0.0000 C   0  0  0  0  0  0  0  0  0  0  0  0
   -0.0000   -2.4750    0.0000 C   0  0  0  0  0  0  0  0  0  0  0  0
   -0.0000   -1.6500    0.0000 C   0  0  0  0  0  0  0  0  0  0  0  0
   -0.7145   -1.2375    0.0000 Cl  0  0  0  0  0  0  0  0  0  0  0  0
    0.7145   -3.7125    0.0000 C   0  0  0  0  0  0  0  0  0  0  0  0
    1.4289   -4.1250    0.0000 C   0  0  0  0  0  0  0  0  0  0  0  0
    1.4289   -4.9500    0.0000 C   0  0  0  0  0  0  0  0  0  0  0  0
    0.7145   -5.3625    0.0000 C   0  0  0  0  0  0  0  0  0  0  0  0
    0.7145   -6.1875    0.0000 Cl  0  0  0  0  0  0  0  0  0  0  0  0
   -0.0000   -4.9500    0.0000 C   0  0  0  0  0  0  0  0  0  0  0  0
   -0.7145   -5.3625    0.0000 Cl  0  0  0  0  0  0  0  0  0  0  0  0
   -0.0000   -4.1250    0.0000 C   0  0  0  0  0  0  0  0  0  0  0  0
    2.1434   -1.2375    0.0000 H   0  0  0  0  0  0  0  0  0  0  0  0
    2.1434   -2.8875    0.0000 H   0  0  0  0  0  0  0  0  0  0  0  0
   -0.7145   -2.8875    0.0000 H   0  0  0  0  0  0  0  0  0  0  0  0
    2.1434   -3.7125    0.0000 H   0  0  0  0  0  0  0  0  0  0  0  0
    2.1434   -5.3625    0.0000 H   0  0  0  0  0  0  0  0  0  0  0  0
   -0.7145   -3.7125    0.0000 H   0  0  0  0  0  0  0  0  0  0  0  0
  1  2  1  0  0  0  0
  2  3  4  0  0  0  0
  3  4  4  0  0  0  0
  4  5  4  0  0  0  0
  5  6  4  0  0  0  0
  6  7  4  0  0  0  0
  2  7  4  0  0  0  0
  7  8  1  0  0  0  0
  5  9  1  0  0  0  0
  9 10  4  0  0  0  0
 10 11  4  0  0  0  0
 11 12  4  0  0  0  0
 12 13  1  0  0  0  0
 12 14  4  0  0  0  0
 14 15  1  0  0  0  0
 14 16  4  0  0  0  0
  9 16  4  0  0  0  0
  3 17  1  0  0  0  0
  4 18  1  0  0  0  0
  6 19  1  0  0  0  0
 10 20  1  0  0  0  0
 11 21  1  0  0  0  0
 16 22  1  0  0  0  0
M  END
>  <InChIKey>
InChI=1S/C12H6Cl4/c13-9-3-1-7(5-11(9)15)8-2-4-10(14)12(16)6-8/h1-6H

>  <CASRN>
32598-13-3

> <Outcome>
1

>  <Index>
2977

>  <StandardizerResult>
Dearomatize (ID: Dearomatize)
Clear Stereo (ID: ClearStereo)
Wedge Clean (ID: WedgeClean)
Mesomerize (ID: Mesomerize)
Tautomerize (ID: Tautomerize)
Aromatize (ID: Aromatize)
Add Explicit Hydrogens (ID: AddExplicitH)
Neutralize (ID: Neutralize)
Clean 2D (ID: Clean2D)

> <knn Distance>


> <CpId>
2977

$$$$
2978
  Mrv1532301301811342D          

 31 31  0  0  0  0            999 V2000
    2.1434   -5.3625    0.0000 C   0  0  0  0  0  0  0  0  0  0  0  0
    2.8579   -4.9500    0.0000 C   0  0  0  0  0  0  0  0  0  0  0  0
    3.5724   -5.3625    0.0000 C   0  0  0  0  0  0  0  0  0  0  0  0
    4.2868   -4.9500    0.0000 C   0  0  0  0  0  0  0  0  0  0  0  0
    5.0013   -5.3625    0.0000 O   0  0  0  0  0  0  0  0  0  0  0  0
    5.7158   -4.9500    0.0000 C   0  0  0  0  0  0  0  0  0  0  0  0
    5.7158   -4.1250    0.0000 O   0  0  0  0  0  0  0  0  0  0  0  0
    6.4302   -5.3625    0.0000 C   0  0  0  0  0  0  0  0  0  0  0  0
    7.1447   -4.9500    0.0000 O   0  0  0  0  0  0  0  0  0  0  0  0
    7.8592   -5.3625    0.0000 C   0  0  0  0  0  0  0  0  0  0  0  0
    8.5737   -4.9500    0.0000 C   0  0  0  0  0  0  0  0  0  0  0  0
    9.2881   -5.3625    0.0000 C   0  0  0  0  0  0  0  0  0  0  0  0
    9.2881   -6.1875    0.0000 C   0  0  0  0  0  0  0  0  0  0  0  0
   10.0026   -6.6000    0.0000 Cl  0  0  0  0  0  0  0  0  0  0  0  0
    8.5737   -6.6000    0.0000 C   0  0  0  0  0  0  0  0  0  0  0  0
    7.8592   -6.1875    0.0000 C   0  0  0  0  0  0  0  0  0  0  0  0
    7.1447   -6.6000    0.0000 Cl  0  0  0  0  0  0  0  0  0  0  0  0
    1.7309   -4.6480    0.0000 H   0  0  0  0  0  0  0  0  0  0  0  0
    1.4289   -5.7750    0.0000 H   0  0  0  0  0  0  0  0  0  0  0  0
    2.5559   -6.0770    0.0000 H   0  0  0  0  0  0  0  0  0  0  0  0
    3.2281   -4.2128    0.0000 H   0  0  0  0  0  0  0  0  0  0  0  0
    2.4876   -4.2128    0.0000 H   0  0  0  0  0  0  0  0  0  0  0  0
    3.2021   -6.0997    0.0000 H   0  0  0  0  0  0  0  0  0  0  0  0
    3.9426   -6.0997    0.0000 H   0  0  0  0  0  0  0  0  0  0  0  0
    4.6571   -4.2128    0.0000 H   0  0  0  0  0  0  0  0  0  0  0  0
    3.9166   -4.2128    0.0000 H   0  0  0  0  0  0  0  0  0  0  0  0
    6.0600   -6.0997    0.0000 H   0  0  0  0  0  0  0  0  0  0  0  0
    6.8005   -6.0997    0.0000 H   0  0  0  0  0  0  0  0  0  0  0  0
    8.5737   -4.1250    0.0000 H   0  0  0  0  0  0  0  0  0  0  0  0
   10.0026   -4.9500    0.0000 H   0  0  0  0  0  0  0  0  0  0  0  0
    8.5737   -7.4250    0.0000 H   0  0  0  0  0  0  0  0  0  0  0  0
  1  2  1  0  0  0  0
  2  3  1  0  0  0  0
  3  4  1  0  0  0  0
  4  5  1  0  0  0  0
  5  6  1  0  0  0  0
  6  7  2  0  0  0  0
  6  8  1  0  0  0  0
  8  9  1  0  0  0  0
  9 10  1  0  0  0  0
 10 11  4  0  0  0  0
 11 12  4  0  0  0  0
 12 13  4  0  0  0  0
 13 14  1  0  0  0  0
 13 15  4  0  0  0  0
 15 16  4  0  0  0  0
 10 16  4  0  0  0  0
 16 17  1  0  0  0  0
  1 18  1  0  0  0  0
  1 19  1  0  0  0  0
  1 20  1  0  0  0  0
  2 21  1  0  0  0  0
  2 22  1  0  0  0  0
  3 23  1  0  0  0  0
  3 24  1  0  0  0  0
  4 25  1  0  0  0  0
  4 26  1  0  0  0  0
  8 27  1  0  0  0  0
  8 28  1  0  0  0  0
 11 29  1  0  0  0  0
 12 30  1  0  0  0  0
 15 31  1  0  0  0  0
M  END
>  <InChIKey>
InChI=1S/C12H14Cl2O3/c1-2-3-6-16-12(15)8-17-11-5-4-9(13)7-10(11)14/h4-5,7H,2-3,6,8H2,1H3

>  <CASRN>
94-80-4

> <Outcome>
1

>  <Index>
2978

>  <StandardizerResult>
Dearomatize (ID: Dearomatize)
Clear Stereo (ID: ClearStereo)
Wedge Clean (ID: WedgeClean)
Mesomerize (ID: Mesomerize)
Tautomerize (ID: Tautomerize)
Aromatize (ID: Aromatize)
Add Explicit Hydrogens (ID: AddExplicitH)
Neutralize (ID: Neutralize)
Clean 2D (ID: Clean2D)

> <knn Distance>


> <CpId>
2978

$$$$
2982
  Mrv1532301301811342D          

 18 18  0  0  0  0            999 V2000
    0.7145    2.0625    0.0000 C   0  0  0  0  0  0  0  0  0  0  0  0
    0.7145    1.2375    0.0000 C   0  0  0  0  0  0  0  0  0  0  0  0
    1.4290    0.8250    0.0000 C   0  0  0  0  0  0  0  0  0  0  0  0
    1.4290   -0.0000    0.0000 C   0  0  0  0  0  0  0  0  0  0  0  0
    0.7145   -0.4125    0.0000 C   0  0  0  0  0  0  0  0  0  0  0  0
    0.7145   -1.2375    0.0000 C   0  0  0  0  0  0  0  0  0  0  0  0
    0.0000    0.0000    0.0000 C   0  0  0  0  0  0  0  0  0  0  0  0
    0.0000    0.8250    0.0000 C   0  0  0  0  0  0  0  0  0  0  0  0
    1.5395    2.0625    0.0000 H   0  0  0  0  0  0  0  0  0  0  0  0
    0.7145    2.8875    0.0000 H   0  0  0  0  0  0  0  0  0  0  0  0
   -0.1105    2.0625    0.0000 H   0  0  0  0  0  0  0  0  0  0  0  0
    2.1434    1.2375    0.0000 H   0  0  0  0  0  0  0  0  0  0  0  0
    2.1434   -0.4125    0.0000 H   0  0  0  0  0  0  0  0  0  0  0  0
   -0.1105   -1.2375    0.0000 H   0  0  0  0  0  0  0  0  0  0  0  0
    0.7145   -2.0625    0.0000 H   0  0  0  0  0  0  0  0  0  0  0  0
    1.5395   -1.2375    0.0000 H   0  0  0  0  0  0  0  0  0  0  0  0
   -0.7145   -0.4125    0.0000 H   0  0  0  0  0  0  0  0  0  0  0  0
   -0.7145    1.2375    0.0000 H   0  0  0  0  0  0  0  0  0  0  0  0
  1  2  1  0  0  0  0
  2  3  4  0  0  0  0
  3  4  4  0  0  0  0
  4  5  4  0  0  0  0
  5  6  1  0  0  0  0
  5  7  4  0  0  0  0
  7  8  4  0  0  0  0
  2  8  4  0  0  0  0
  1  9  1  0  0  0  0
  1 10  1  0  0  0  0
  1 11  1  0  0  0  0
  3 12  1  0  0  0  0
  4 13  1  0  0  0  0
  6 14  1  0  0  0  0
  6 15  1  0  0  0  0
  6 16  1  0  0  0  0
  7 17  1  0  0  0  0
  8 18  1  0  0  0  0
M  END
>  <InChIKey>
InChI=1S/C8H10/c1-7-3-5-8(2)6-4-7/h3-6H,1-2H3

>  <UN GHS>
1

>  <CASRN>
106-42-3

> <Outcome>
1

>  <Index>
2982

>  <StandardizerResult>
Dearomatize (ID: Dearomatize)
Clear Stereo (ID: ClearStereo)
Wedge Clean (ID: WedgeClean)
Mesomerize (ID: Mesomerize)
Tautomerize (ID: Tautomerize)
Aromatize (ID: Aromatize)
Add Explicit Hydrogens (ID: AddExplicitH)
Neutralize (ID: Neutralize)
Clean 2D (ID: Clean2D)

> <knn Distance>


> <CpId>
2982

$$$$
2983
  Mrv1532301301811342D          

 43 44  0  0  0  0            999 V2000
    2.4253    1.8323    0.0000 C   0  0  0  0  0  0  0  0  0  0  0  0
    1.6003    1.8323    0.0000 N   0  0  0  0  0  0  0  0  0  0  0  0
    1.1878    2.5468    0.0000 C   0  0  0  0  0  0  0  0  0  0  0  0
    1.1878    1.1179    0.0000 C   0  0  0  0  0  0  0  0  0  0  0  0
    0.3628    1.1179    0.0000 C   0  0  0  0  0  0  0  0  0  0  0  0
   -0.0497    0.4034    0.0000 O   0  0  0  0  0  0  0  0  0  0  0  0
   -0.8747    0.4034    0.0000 C   0  0  0  0  0  0  0  0  0  0  0  0
   -0.8747    1.2284    0.0000 C   0  0  0  0  0  0  0  0  0  0  0  0
   -0.8747   -0.4216    0.0000 C   0  0  0  0  0  0  0  0  0  0  0  0
   -0.1603   -0.8341    0.0000 C   0  0  0  0  0  0  0  0  0  0  0  0
   -0.1603   -1.6591    0.0000 C   0  0  0  0  0  0  0  0  0  0  0  0
   -0.8747   -2.0716    0.0000 C   0  0  0  0  0  0  0  0  0  0  0  0
   -1.5892   -1.6591    0.0000 C   0  0  0  0  0  0  0  0  0  0  0  0
   -1.5892   -0.8341    0.0000 C   0  0  0  0  0  0  0  0  0  0  0  0
   -1.6997    0.4034    0.0000 C   0  0  0  0  0  0  0  0  0  0  0  0
   -2.1122   -0.3111    0.0000 C   0  0  0  0  0  0  0  0  0  0  0  0
   -2.9372   -0.3111    0.0000 C   0  0  0  0  0  0  0  0  0  0  0  0
   -3.3497    0.4034    0.0000 C   0  0  0  0  0  0  0  0  0  0  0  0
   -4.1747    0.4034    0.0000 Br  0  0  0  0  0  0  0  0  0  0  0  0
   -2.9372    1.1179    0.0000 C   0  0  0  0  0  0  0  0  0  0  0  0
   -2.1122    1.1179    0.0000 C   0  0  0  0  0  0  0  0  0  0  0  0
    2.4253    1.0073    0.0000 H   0  0  0  0  0  0  0  0  0  0  0  0
    3.2503    1.8323    0.0000 H   0  0  0  0  0  0  0  0  0  0  0  0
    2.4253    2.6573    0.0000 H   0  0  0  0  0  0  0  0  0  0  0  0
    1.9022    2.9593    0.0000 H   0  0  0  0  0  0  0  0  0  0  0  0
    0.7753    3.2613    0.0000 H   0  0  0  0  0  0  0  0  0  0  0  0
    0.4733    2.1343    0.0000 H   0  0  0  0  0  0  0  0  0  0  0  0
    1.2357    0.2943    0.0000 H   0  0  0  0  0  0  0  0  0  0  0  0
    1.8770    0.6645    0.0000 H   0  0  0  0  0  0  0  0  0  0  0  0
    0.3148    1.9415    0.0000 H   0  0  0  0  0  0  0  0  0  0  0  0
   -0.3265    1.5712    0.0000 H   0  0  0  0  0  0  0  0  0  0  0  0
   -0.8965    2.0531    0.0000 H   0  0  0  0  0  0  0  0  0  0  0  0
   -1.5964    1.6283    0.0000 H   0  0  0  0  0  0  0  0  0  0  0  0
   -1.5856    0.8096    0.0000 H   0  0  0  0  0  0  0  0  0  0  0  0
    0.5542   -0.4216    0.0000 H   0  0  0  0  0  0  0  0  0  0  0  0
    0.5542   -2.0716    0.0000 H   0  0  0  0  0  0  0  0  0  0  0  0
   -0.8747   -2.8966    0.0000 H   0  0  0  0  0  0  0  0  0  0  0  0
   -2.3037   -2.0716    0.0000 H   0  0  0  0  0  0  0  0  0  0  0  0
   -2.3514   -1.1498    0.0000 H   0  0  0  0  0  0  0  0  0  0  0  0
   -2.5247    0.4034    0.0000 H   0  0  0  0  0  0  0  0  0  0  0  0
   -3.3497   -1.0255    0.0000 H   0  0  0  0  0  0  0  0  0  0  0  0
   -3.3497    1.8323    0.0000 H   0  0  0  0  0  0  0  0  0  0  0  0
   -2.4259    1.8809    0.0000 H   0  0  0  0  0  0  0  0  0  0  0  0
  1  2  1  0  0  0  0
  2  3  1  0  0  0  0
  2  4  1  0  0  0  0
  4  5  1  0  0  0  0
  5  6  1  0  0  0  0
  6  7  1  0  0  0  0
  7  8  1  0  0  0  0
  7  9  1  0  0  0  0
  9 10  4  0  0  0  0
 10 11  4  0  0  0  0
 11 12  4  0  0  0  0
 12 13  4  0  0  0  0
 13 14  4  0  0  0  0
  9 14  4  0  0  0  0
  7 15  1  0  0  0  0
 15 16  4  0  0  0  0
 16 17  4  0  0  0  0
 17 18  4  0  0  0  0
 18 19  1  0  0  0  0
 18 20  4  0  0  0  0
 20 21  4  0  0  0  0
 15 21  4  0  0  0  0
  1 22  1  0  0  0  0
  1 23  1  0  0  0  0
  1 24  1  0  0  0  0
  3 25  1  0  0  0  0
  3 26  1  0  0  0  0
  3 27  1  0  0  0  0
  4 28  1  0  0  0  0
  4 29  1  0  0  0  0
  5 30  1  0  0  0  0
  5 31  1  0  0  0  0
  8 32  1  0  0  0  0
  8 33  1  0  0  0  0
  8 34  1  0  0  0  0
 10 35  1  0  0  0  0
 11 36  1  0  0  0  0
 12 37  1  0  0  0  0
 13 38  1  0  0  0  0
 14 39  1  0  0  0  0
 16 40  1  0  0  0  0
 17 41  1  0  0  0  0
 20 42  1  0  0  0  0
 21 43  1  0  0  0  0
M  END
>  <InChIKey>
InChI=1S/C18H22BrNO/c1-18(21-14-13-20(2)3,15-7-5-4-6-8-15)16-9-11-17(19)12-10-16/h4-12H,13-14H2,1-3H3

>  <UN GHS>
1

>  <CASRN>
13977-28-1

> <Outcome>
1

>  <Index>
2983

>  <StandardizerResult>
Dearomatize (ID: Dearomatize)
Clear Stereo (ID: ClearStereo)
Wedge Clean (ID: WedgeClean)
Mesomerize (ID: Mesomerize)
Tautomerize (ID: Tautomerize)
Aromatize (ID: Aromatize)
Add Explicit Hydrogens (ID: AddExplicitH)
Neutralize (ID: Neutralize)
Clean 2D (ID: Clean2D)

> <knn Distance>


> <CpId>
2983

$$$$
2985
  Mrv1532301301811342D          

 22 22  0  0  0  0            999 V2000
    0.9954    1.4892    0.0000 C   0  0  0  0  0  0  0  0  0  0  0  0
    1.7576    1.1735    0.0000 C   0  0  0  0  0  0  0  0  0  0  0  0
    2.0733    0.4113    0.0000 C   0  0  0  0  0  0  0  0  0  0  0  0
    1.7576   -0.3509    0.0000 C   0  0  0  0  0  0  0  0  0  0  0  0
    0.9954   -0.6666    0.0000 C   0  0  0  0  0  0  0  0  0  0  0  0
    0.2332   -0.3509    0.0000 C   0  0  0  0  0  0  0  0  0  0  0  0
   -0.0825    0.4113    0.0000 C   0  0  0  0  0  0  0  0  0  0  0  0
    0.2332    1.1735    0.0000 C   0  0  0  0  0  0  0  0  0  0  0  0
    1.3441    2.2369    0.0000 H   0  0  0  0  0  0  0  0  0  0  0  0
    0.6467    2.2369    0.0000 H   0  0  0  0  0  0  0  0  0  0  0  0
    2.5328    1.4557    0.0000 H   0  0  0  0  0  0  0  0  0  0  0  0
    2.0398    1.9487    0.0000 H   0  0  0  0  0  0  0  0  0  0  0  0
    2.8210    0.0626    0.0000 H   0  0  0  0  0  0  0  0  0  0  0  0
    2.8210    0.7600    0.0000 H   0  0  0  0  0  0  0  0  0  0  0  0
    2.0398   -1.1262    0.0000 H   0  0  0  0  0  0  0  0  0  0  0  0
    2.5328   -0.6331    0.0000 H   0  0  0  0  0  0  0  0  0  0  0  0
    0.9954   -1.4916    0.0000 H   0  0  0  0  0  0  0  0  0  0  0  0
   -0.3502   -0.9343    0.0000 H   0  0  0  0  0  0  0  0  0  0  0  0
   -0.8302    0.7600    0.0000 H   0  0  0  0  0  0  0  0  0  0  0  0
   -0.8302    0.0626    0.0000 H   0  0  0  0  0  0  0  0  0  0  0  0
   -0.0490    1.9487    0.0000 H   0  0  0  0  0  0  0  0  0  0  0  0
   -0.5421    1.4557    0.0000 H   0  0  0  0  0  0  0  0  0  0  0  0
  1  2  1  0  0  0  0
  2  3  1  0  0  0  0
  3  4  1  0  0  0  0
  5  4  1  4  0  0  0
  5  6  2  0  0  0  0
  6  7  1  0  0  0  0
  7  8  1  0  0  0  0
  1  8  1  0  0  0  0
  1  9  1  0  0  0  0
  1 10  1  0  0  0  0
  2 11  1  0  0  0  0
  2 12  1  0  0  0  0
  3 13  1  0  0  0  0
  3 14  1  0  0  0  0
  4 15  1  0  0  0  0
  4 16  1  0  0  0  0
  5 17  1  0  0  0  0
  6 18  1  0  0  0  0
  7 19  1  0  0  0  0
  7 20  1  0  0  0  0
  8 21  1  0  0  0  0
  8 22  1  0  0  0  0
M  END
>  <InChIKey>
InChI=1S/C8H14/c1-2-4-6-8-7-5-3-1/h1-2H,3-8H2

>  <CASRN>
931-87-3

> <Outcome>
1

>  <Index>
2985

>  <StandardizerResult>
Clear Stereo (ID: ClearStereo)
Wedge Clean (ID: WedgeClean)
Mesomerize (ID: Mesomerize)
Tautomerize (ID: Tautomerize)
Add Explicit Hydrogens (ID: AddExplicitH)
Neutralize (ID: Neutralize)
Clean 2D (ID: Clean2D)

> <knn Distance>


> <CpId>
2985

$$$$
2986
  Mrv1532301301811342D          

 23 24  0  0  0  0            999 V2000
    2.1956   -0.4236    0.0000 O   0  0  0  0  0  0  0  0  0  0  0  0
    2.1956   -1.2486    0.0000 C   0  0  0  0  0  0  0  0  0  0  0  0
    2.9100   -1.6611    0.0000 C   0  0  0  0  0  0  0  0  0  0  0  0
    2.9100   -2.4861    0.0000 C   0  0  0  0  0  0  0  0  0  0  0  0
    2.1956   -2.8986    0.0000 C   0  0  0  0  0  0  0  0  0  0  0  0
    1.4811   -2.4861    0.0000 C   0  0  0  0  0  0  0  0  0  0  0  0
    1.4811   -1.6611    0.0000 C   0  0  0  0  0  0  0  0  0  0  0  0
    2.9100   -0.0111    0.0000 C   0  0  0  0  0  0  0  0  0  0  0  0
    2.9100    0.8139    0.0000 C   0  0  0  0  0  0  0  0  0  0  0  0
    3.6245    1.2264    0.0000 C   0  0  0  0  0  0  0  0  0  0  0  0
    4.3390    0.8139    0.0000 C   0  0  0  0  0  0  0  0  0  0  0  0
    4.3390   -0.0111    0.0000 C   0  0  0  0  0  0  0  0  0  0  0  0
    3.6245   -0.4236    0.0000 C   0  0  0  0  0  0  0  0  0  0  0  0
    3.6245   -1.2486    0.0000 H   0  0  0  0  0  0  0  0  0  0  0  0
    3.6245   -2.8986    0.0000 H   0  0  0  0  0  0  0  0  0  0  0  0
    2.1956   -3.7236    0.0000 H   0  0  0  0  0  0  0  0  0  0  0  0
    0.7666   -2.8986    0.0000 H   0  0  0  0  0  0  0  0  0  0  0  0
    0.7666   -1.2486    0.0000 H   0  0  0  0  0  0  0  0  0  0  0  0
    2.1956    1.2264    0.0000 H   0  0  0  0  0  0  0  0  0  0  0  0
    3.6245    2.0514    0.0000 H   0  0  0  0  0  0  0  0  0  0  0  0
    5.0534    1.2264    0.0000 H   0  0  0  0  0  0  0  0  0  0  0  0
    5.0534   -0.4236    0.0000 H   0  0  0  0  0  0  0  0  0  0  0  0
    2.9100   -0.8361    0.0000 H   0  0  0  0  0  0  0  0  0  0  0  0
  1  2  1  0  0  0  0
  2  3  4  0  0  0  0
  3  4  4  0  0  0  0
  4  5  4  0  0  0  0
  5  6  4  0  0  0  0
  6  7  4  0  0  0  0
  2  7  4  0  0  0  0
  1  8  1  0  0  0  0
  8  9  4  0  0  0  0
  9 10  4  0  0  0  0
 10 11  4  0  0  0  0
 11 12  4  0  0  0  0
 12 13  4  0  0  0  0
  8 13  4  0  0  0  0
  3 14  1  0  0  0  0
  4 15  1  0  0  0  0
  5 16  1  0  0  0  0
  6 17  1  0  0  0  0
  7 18  1  0  0  0  0
  9 19  1  0  0  0  0
 10 20  1  0  0  0  0
 11 21  1  0  0  0  0
 12 22  1  0  0  0  0
 13 23  1  0  0  0  0
M  END
>  <InChIKey>
InChI=1S/C12H10O/c1-3-7-11(8-4-1)13-12-9-5-2-6-10-12/h1-10H

>  <CASRN>
101-84-8

> <Outcome>
1

>  <Index>
2986

>  <StandardizerResult>
Dearomatize (ID: Dearomatize)
Clear Stereo (ID: ClearStereo)
Wedge Clean (ID: WedgeClean)
Mesomerize (ID: Mesomerize)
Tautomerize (ID: Tautomerize)
Aromatize (ID: Aromatize)
Add Explicit Hydrogens (ID: AddExplicitH)
Neutralize (ID: Neutralize)
Clean 2D (ID: Clean2D)

> <knn Distance>


> <CpId>
2986

$$$$
2999
  Mrv1532301301811342D          

 14 13  0  0  0  0            999 V2000
    2.4658   -1.4017    0.0000 S   0  0  0  0  0  0  0  0  0  0  0  0
    2.0533   -0.6872    0.0000 C   0  0  0  0  0  0  0  0  0  0  0  0
    1.2283   -0.6872    0.0000 C   0  0  0  0  0  0  0  0  0  0  0  0
    0.8158   -1.4017    0.0000 S   0  0  0  0  0  0  0  0  0  0  0  0
    0.8158    0.0273    0.0000 C   0  0  0  0  0  0  0  0  0  0  0  0
   -0.0092    0.0273    0.0000 S   0  0  0  0  0  0  0  0  0  0  0  0
    2.0533   -2.1161    0.0000 H   0  0  0  0  0  0  0  0  0  0  0  0
    2.7426   -0.2338    0.0000 H   0  0  0  0  0  0  0  0  0  0  0  0
    2.1013    0.1364    0.0000 H   0  0  0  0  0  0  0  0  0  0  0  0
    1.6408   -1.4017    0.0000 H   0  0  0  0  0  0  0  0  0  0  0  0
    0.1014   -1.8142    0.0000 H   0  0  0  0  0  0  0  0  0  0  0  0
    1.5051    0.4806    0.0000 H   0  0  0  0  0  0  0  0  0  0  0  0
    0.8638    0.8509    0.0000 H   0  0  0  0  0  0  0  0  0  0  0  0
   -0.4217    0.7418    0.0000 H   0  0  0  0  0  0  0  0  0  0  0  0
  1  2  1  0  0  0  0
  2  3  1  0  0  0  0
  3  4  1  0  0  0  0
  3  5  1  0  0  0  0
  5  6  1  0  0  0  0
  1  7  1  0  0  0  0
  2  8  1  0  0  0  0
  2  9  1  0  0  0  0
  3 10  1  0  0  0  0
  4 11  1  0  0  0  0
  5 12  1  0  0  0  0
  5 13  1  0  0  0  0
  6 14  1  0  0  0  0
M  END
>  <InChIKey>
InChI=1S/C3H8S3/c4-1-3(6)2-5/h3-6H,1-2H2

>  <CASRN>
4756-13-2

> <Outcome>
1

>  <Index>
2999

>  <StandardizerResult>
Clear Stereo (ID: ClearStereo)
Wedge Clean (ID: WedgeClean)
Mesomerize (ID: Mesomerize)
Tautomerize (ID: Tautomerize)
Add Explicit Hydrogens (ID: AddExplicitH)
Neutralize (ID: Neutralize)
Clean 2D (ID: Clean2D)

> <knn Distance>


> <CpId>
2999

$$$$
3000
  Mrv1532301301811342D          

 34 33  0  0  0  0            999 V2000
    1.2615    0.7158    0.0000 C   0  0  0  0  0  0  0  0  0  0  0  0
    0.8490    0.0014    0.0000 C   0  0  0  0  0  0  0  0  0  0  0  0
    1.2615   -0.7131    0.0000 C   0  0  0  0  0  0  0  0  0  0  0  0
    0.0240    0.0014    0.0000 C   0  0  0  0  0  0  0  0  0  0  0  0
   -0.3885   -0.7131    0.0000 C   0  0  0  0  0  0  0  0  0  0  0  0
   -1.2135   -0.7131    0.0000 C   0  0  0  0  0  0  0  0  0  0  0  0
   -1.6260   -1.4276    0.0000 C   0  0  0  0  0  0  0  0  0  0  0  0
   -2.3405   -1.0151    0.0000 C   0  0  0  0  0  0  0  0  0  0  0  0
   -2.0385   -2.1421    0.0000 O   0  0  0  0  0  0  0  0  0  0  0  0
   -2.8635   -2.1421    0.0000 C   0  0  0  0  0  0  0  0  0  0  0  0
   -3.2760   -2.8565    0.0000 C   0  0  0  0  0  0  0  0  0  0  0  0
   -3.2760   -1.4276    0.0000 O   0  0  0  0  0  0  0  0  0  0  0  0
   -0.9115   -1.8401    0.0000 C   0  0  0  0  0  0  0  0  0  0  0  0
   -0.9115   -2.6651    0.0000 C   0  0  0  0  0  0  0  0  0  0  0  0
    1.9760    0.3033    0.0000 H   0  0  0  0  0  0  0  0  0  0  0  0
    1.6740    1.4303    0.0000 H   0  0  0  0  0  0  0  0  0  0  0  0
    0.5470    1.1283    0.0000 H   0  0  0  0  0  0  0  0  0  0  0  0
    0.5470   -1.1256    0.0000 H   0  0  0  0  0  0  0  0  0  0  0  0
    1.6740   -1.4276    0.0000 H   0  0  0  0  0  0  0  0  0  0  0  0
    1.9760   -0.3006    0.0000 H   0  0  0  0  0  0  0  0  0  0  0  0
   -0.3885    0.7158    0.0000 H   0  0  0  0  0  0  0  0  0  0  0  0
   -0.3405   -1.5367    0.0000 H   0  0  0  0  0  0  0  0  0  0  0  0
    0.3008   -1.1665    0.0000 H   0  0  0  0  0  0  0  0  0  0  0  0
   -1.2615    0.1105    0.0000 H   0  0  0  0  0  0  0  0  0  0  0  0
   -1.9028   -0.2598    0.0000 H   0  0  0  0  0  0  0  0  0  0  0  0
   -2.8419   -0.3600    0.0000 H   0  0  0  0  0  0  0  0  0  0  0  0
   -3.1375   -1.2280    0.0000 H   0  0  0  0  0  0  0  0  0  0  0  0
   -2.4485   -1.8330    0.0000 H   0  0  0  0  0  0  0  0  0  0  0  0
   -3.9905   -2.4440    0.0000 H   0  0  0  0  0  0  0  0  0  0  0  0
   -3.6885   -3.5710    0.0000 H   0  0  0  0  0  0  0  0  0  0  0  0
   -2.5615   -3.2690    0.0000 H   0  0  0  0  0  0  0  0  0  0  0  0
   -0.8970   -1.0152    0.0000 H   0  0  0  0  0  0  0  0  0  0  0  0
   -1.6260   -3.0776    0.0000 H   0  0  0  0  0  0  0  0  0  0  0  0
   -0.1970   -3.0776    0.0000 H   0  0  0  0  0  0  0  0  0  0  0  0
  1  2  1  0  0  0  0
  2  3  1  0  0  0  0
  2  4  2  0  0  0  0
  4  5  1  0  0  0  0
  5  6  1  0  0  0  0
  6  7  1  0  0  0  0
  7  8  1  0  0  0  0
  7  9  1  0  0  0  0
  9 10  1  0  0  0  0
 10 11  1  0  0  0  0
 10 12  2  0  0  0  0
  7 13  1  0  0  0  0
 13 14  2  0  0  0  0
  1 15  1  0  0  0  0
  1 16  1  0  0  0  0
  1 17  1  0  0  0  0
  3 18  1  0  0  0  0
  3 19  1  0  0  0  0
  3 20  1  0  0  0  0
  4 21  1  0  0  0  0
  5 22  1  0  0  0  0
  5 23  1  0  0  0  0
  6 24  1  0  0  0  0
  6 25  1  0  0  0  0
  8 26  1  0  0  0  0
  8 27  1  0  0  0  0
  8 28  1  0  0  0  0
 11 29  1  0  0  0  0
 11 30  1  0  0  0  0
 11 31  1  0  0  0  0
 13 32  1  0  0  0  0
 14 33  1  0  0  0  0
 14 34  1  0  0  0  0
M  END
>  <InChIKey>
InChI=1S/C12H20O2/c1-6-12(5,14-11(4)13)9-7-8-10(2)3/h6,8H,1,7,9H2,2-5H3

>  <CASRN>
115-95-7

> <Outcome>
1

>  <Index>
3000

>  <StandardizerResult>
Clear Stereo (ID: ClearStereo)
Wedge Clean (ID: WedgeClean)
Mesomerize (ID: Mesomerize)
Tautomerize (ID: Tautomerize)
Add Explicit Hydrogens (ID: AddExplicitH)
Neutralize (ID: Neutralize)
Clean 2D (ID: Clean2D)

> <knn Distance>


> <CpId>
3000

$$$$
3002
  Mrv1532301301811342D          

  6  5  0  0  0  0            999 V2000
    1.2375    0.7145    0.0000 Br  0  0  0  0  0  0  0  0  0  0  0  0
    0.8250    0.0000    0.0000 C   0  0  0  0  0  0  0  0  0  0  0  0
    0.0000    0.0000    0.0000 C   0  0  0  0  0  0  0  0  0  0  0  0
   -0.4125   -0.7145    0.0000 Br  0  0  0  0  0  0  0  0  0  0  0  0
    1.2375   -0.7145    0.0000 H   0  0  0  0  0  0  0  0  0  0  0  0
   -0.4125    0.7145    0.0000 H   0  0  0  0  0  0  0  0  0  0  0  0
  2  1  1  4  0  0  0
  2  3  2  0  0  0  0
  3  4  1  0  0  0  0
  2  5  1  0  0  0  0
  3  6  1  0  0  0  0
M  END
>  <InChIKey>
InChI=1S/C2H2Br2/c3-1-2-4/h1-2H

>  <CASRN>
540-49-8

> <Outcome>
1

>  <Index>
3002

>  <StandardizerResult>
Clear Stereo (ID: ClearStereo)
Wedge Clean (ID: WedgeClean)
Mesomerize (ID: Mesomerize)
Tautomerize (ID: Tautomerize)
Add Explicit Hydrogens (ID: AddExplicitH)
Neutralize (ID: Neutralize)
Clean 2D (ID: Clean2D)

> <knn Distance>


> <CpId>
3002

$$$$
3007
  Mrv1532301301811342D          

 33 34  0  0  0  0            999 V2000
   -0.7092    0.4061    0.0000 F   0  0  0  0  0  0  0  0  0  0  0  0
   -0.7092   -0.4189    0.0000 C   0  0  0  0  0  0  0  0  0  0  0  0
   -1.5342   -0.4189    0.0000 F   0  0  0  0  0  0  0  0  0  0  0  0
    0.1158   -0.4189    0.0000 F   0  0  0  0  0  0  0  0  0  0  0  0
   -0.7092   -1.2439    0.0000 C   0  0  0  0  0  0  0  0  0  0  0  0
    0.0053   -1.6564    0.0000 C   0  0  0  0  0  0  0  0  0  0  0  0
    0.0053   -2.4814    0.0000 N   0  0  0  0  0  0  0  0  0  0  0  0
   -0.7092   -2.8939    0.0000 C   0  0  0  0  0  0  0  0  0  0  0  0
   -0.7092   -3.7189    0.0000 N   0  0  0  0  0  0  0  0  0  0  0  0
    0.0053   -4.1314    0.0000 C   0  0  0  0  0  0  0  0  0  0  0  0
    0.7197   -3.7189    0.0000 C   0  0  0  0  0  0  0  0  0  0  0  0
    1.4342   -4.1314    0.0000 C   0  0  0  0  0  0  0  0  0  0  0  0
    1.4342   -4.9564    0.0000 C   0  0  0  0  0  0  0  0  0  0  0  0
    0.7197   -5.3689    0.0000 C   0  0  0  0  0  0  0  0  0  0  0  0
    0.7197   -6.1939    0.0000 Cl  0  0  0  0  0  0  0  0  0  0  0  0
    0.0053   -4.9564    0.0000 C   0  0  0  0  0  0  0  0  0  0  0  0
   -0.7092   -5.3689    0.0000 N   0  0  0  0  0  0  0  0  0  0  0  0
   -1.4237   -4.9564    0.0000 O   0  0  0  0  0  0  0  0  0  0  0  0
   -0.7092   -6.1939    0.0000 O   0  0  0  0  0  0  0  0  0  0  0  0
    2.1487   -5.3689    0.0000 C   0  0  0  0  0  0  0  0  0  0  0  0
    2.8631   -5.7814    0.0000 F   0  0  0  0  0  0  0  0  0  0  0  0
    1.7362   -6.0833    0.0000 F   0  0  0  0  0  0  0  0  0  0  0  0
    2.5612   -4.6544    0.0000 F   0  0  0  0  0  0  0  0  0  0  0  0
    0.7197   -2.8939    0.0000 N   0  0  0  0  0  0  0  0  0  0  0  0
    1.4342   -2.4814    0.0000 O   0  0  0  0  0  0  0  0  0  0  0  0
    0.3842   -2.1402    0.0000 O   0  0  0  0  0  0  0  0  0  0  0  0
   -1.4237   -2.4814    0.0000 C   0  0  0  0  0  0  0  0  0  0  0  0
   -2.1382   -2.8939    0.0000 Cl  0  0  0  0  0  0  0  0  0  0  0  0
   -1.4237   -1.6564    0.0000 C   0  0  0  0  0  0  0  0  0  0  0  0
    0.5461   -1.0334    0.0000 H   0  0  0  0  0  0  0  0  0  0  0  0
   -1.4237   -4.1314    0.0000 H   0  0  0  0  0  0  0  0  0  0  0  0
    2.1487   -3.7189    0.0000 H   0  0  0  0  0  0  0  0  0  0  0  0
   -2.1382   -1.2439    0.0000 H   0  0  0  0  0  0  0  0  0  0  0  0
  1  2  1  0  0  0  0
  2  3  1  0  0  0  0
  2  4  1  0  0  0  0
  2  5  1  0  0  0  0
  5  6  4  0  0  0  0
  6  7  4  0  0  0  0
  7  8  4  0  0  0  0
  8  9  1  0  0  0  0
  9 10  1  0  0  0  0
 10 11  4  0  0  0  0
 11 12  4  0  0  0  0
 12 13  4  0  0  0  0
 13 14  4  0  0  0  0
 14 15  1  0  0  0  0
 14 16  4  0  0  0  0
 10 16  4  0  0  0  0
 16 17  1  0  0  0  0
 17 18  2  0  0  0  0
 17 19  2  0  0  0  0
 13 20  1  0  0  0  0
 20 21  1  0  0  0  0
 20 22  1  0  0  0  0
 20 23  1  0  0  0  0
 11 24  1  0  0  0  0
 24 25  2  0  0  0  0
 24 26  2  0  0  0  0
  8 27  4  0  0  0  0
 27 28  1  0  0  0  0
 27 29  4  0  0  0  0
  5 29  4  0  0  0  0
  6 30  1  0  0  0  0
  9 31  1  0  0  0  0
 12 32  1  0  0  0  0
 29 33  1  0  0  0  0
M  END
>  <InChIKey>
InChI=1S/C13H4Cl2F6N4O4/c14-6-1-4(12(16,17)18)3-22-11(6)23-9-7(24(26)27)2-5(13(19,20)21)8(15)10(9)25(28)29/h1-3H,(H,22,23)

>  <CASRN>
79622-59-6

> <Outcome>
1

>  <Index>
3007

>  <StandardizerResult>
Dearomatize (ID: Dearomatize)
Clear Stereo (ID: ClearStereo)
Wedge Clean (ID: WedgeClean)
Mesomerize (ID: Mesomerize)
Tautomerize (ID: Tautomerize)
Aromatize (ID: Aromatize)
Add Explicit Hydrogens (ID: AddExplicitH)
Neutralize (ID: Neutralize)
Clean 2D (ID: Clean2D)

> <knn Distance>


> <CpId>
3007

$$$$
3009
  Mrv1532301301811342D          

 18 18  0  0  0  0            999 V2000
    0.8063    2.0652    0.0000 Cl  0  0  0  0  0  0  0  0  0  0  0  0
    0.8063    1.2402    0.0000 C   0  0  0  0  0  0  0  0  0  0  0  0
    1.5208    0.8277    0.0000 C   0  0  0  0  0  0  0  0  0  0  0  0
    2.2353    1.2402    0.0000 Br  0  0  0  0  0  0  0  0  0  0  0  0
    1.5208    0.0027    0.0000 C   0  0  0  0  0  0  0  0  0  0  0  0
    2.2353   -0.4098    0.0000 Br  0  0  0  0  0  0  0  0  0  0  0  0
    0.8063   -0.4098    0.0000 C   0  0  0  0  0  0  0  0  0  0  0  0
    0.8063   -1.2348    0.0000 Br  0  0  0  0  0  0  0  0  0  0  0  0
    0.0919    0.0027    0.0000 C   0  0  0  0  0  0  0  0  0  0  0  0
   -0.6226   -0.4098    0.0000 Br  0  0  0  0  0  0  0  0  0  0  0  0
    0.0919    0.8277    0.0000 C   0  0  0  0  0  0  0  0  0  0  0  0
   -0.6226    1.2402    0.0000 Br  0  0  0  0  0  0  0  0  0  0  0  0
    0.0919    1.6527    0.0000 H   0  0  0  0  0  0  0  0  0  0  0  0
    1.5208    1.6527    0.0000 H   0  0  0  0  0  0  0  0  0  0  0  0
    1.5208   -0.8223    0.0000 H   0  0  0  0  0  0  0  0  0  0  0  0
    0.0919   -0.8223    0.0000 H   0  0  0  0  0  0  0  0  0  0  0  0
   -0.6226    0.4152    0.0000 H   0  0  0  0  0  0  0  0  0  0  0  0
    0.8063    0.4152    0.0000 H   0  0  0  0  0  0  0  0  0  0  0  0
  1  2  1  0  0  0  0
  2  3  1  0  0  0  0
  3  4  1  0  0  0  0
  3  5  1  0  0  0  0
  5  6  1  0  0  0  0
  5  7  1  0  0  0  0
  7  8  1  0  0  0  0
  7  9  1  0  0  0  0
  9 10  1  0  0  0  0
  9 11  1  0  0  0  0
  2 11  1  0  0  0  0
 11 12  1  0  0  0  0
  2 13  1  0  0  0  0
  3 14  1  0  0  0  0
  5 15  1  0  0  0  0
  7 16  1  0  0  0  0
  9 17  1  0  0  0  0
 11 18  1  0  0  0  0
M  END
>  <InChIKey>
InChI=1S/C6H6Br5Cl/c7-1-2(8)4(10)6(12)5(11)3(1)9/h1-6H

>  <CASRN>
87-84-3

> <Outcome>
1

>  <Index>
3009

>  <StandardizerResult>
Clear Stereo (ID: ClearStereo)
Wedge Clean (ID: WedgeClean)
Mesomerize (ID: Mesomerize)
Tautomerize (ID: Tautomerize)
Add Explicit Hydrogens (ID: AddExplicitH)
Neutralize (ID: Neutralize)
Clean 2D (ID: Clean2D)

> <knn Distance>


> <CpId>
3009

$$$$
3015
  Mrv1532301301811342D          

 13 12  0  0  0  0            999 V2000
    2.4750   -1.4289    0.0000 C   0  0  0  0  0  0  0  0  0  0  0  0
    1.6500   -1.4289    0.0000 O   0  0  0  0  0  0  0  0  0  0  0  0
    1.2375   -0.7145    0.0000 S   0  0  0  0  0  0  0  0  0  0  0  0
    1.9520   -0.3020    0.0000 O   0  0  0  0  0  0  0  0  0  0  0  0
    0.5230   -1.1270    0.0000 O   0  0  0  0  0  0  0  0  0  0  0  0
    0.8250    0.0000    0.0000 O   0  0  0  0  0  0  0  0  0  0  0  0
    0.0000    0.0000    0.0000 C   0  0  0  0  0  0  0  0  0  0  0  0
    2.4750   -2.2539    0.0000 H   0  0  0  0  0  0  0  0  0  0  0  0
    3.3000   -1.4289    0.0000 H   0  0  0  0  0  0  0  0  0  0  0  0
    2.4750   -0.6039    0.0000 H   0  0  0  0  0  0  0  0  0  0  0  0
    0.0000    0.8250    0.0000 H   0  0  0  0  0  0  0  0  0  0  0  0
   -0.8250    0.0000    0.0000 H   0  0  0  0  0  0  0  0  0  0  0  0
    0.0000   -0.8250    0.0000 H   0  0  0  0  0  0  0  0  0  0  0  0
  1  2  1  0  0  0  0
  2  3  1  0  0  0  0
  3  4  2  0  0  0  0
  3  5  2  0  0  0  0
  3  6  1  0  0  0  0
  6  7  1  0  0  0  0
  1  8  1  0  0  0  0
  1  9  1  0  0  0  0
  1 10  1  0  0  0  0
  7 11  1  0  0  0  0
  7 12  1  0  0  0  0
  7 13  1  0  0  0  0
M  END
>  <InChIKey>
InChI=1S/C2H6O4S/c1-5-7(3,4)6-2/h1-2H3

>  <CASRN>
77-78-1

> <Outcome>
1

>  <Index>
3015

>  <StandardizerResult>
Clear Stereo (ID: ClearStereo)
Wedge Clean (ID: WedgeClean)
Mesomerize (ID: Mesomerize)
Tautomerize (ID: Tautomerize)
Add Explicit Hydrogens (ID: AddExplicitH)
Neutralize (ID: Neutralize)
Clean 2D (ID: Clean2D)

> <knn Distance>


> <CpId>
3015

$$$$
3017
  Mrv1532301301811342D          

 10  9  0  0  0  0            999 V2000
   -0.6039   -1.6500    0.0000 F   0  0  0  0  0  0  0  0  0  0  0  0
    0.1105   -1.2375    0.0000 C   0  0  0  0  0  0  0  0  0  0  0  0
    0.5230   -1.9520    0.0000 F   0  0  0  0  0  0  0  0  0  0  0  0
   -0.3020   -0.5230    0.0000 F   0  0  0  0  0  0  0  0  0  0  0  0
    0.8250   -0.8250    0.0000 C   0  0  0  0  0  0  0  0  0  0  0  0
    1.5395   -1.2375    0.0000 O   0  0  0  0  0  0  0  0  0  0  0  0
    0.8250   -0.0000    0.0000 C   0  0  0  0  0  0  0  0  0  0  0  0
    0.8250    0.8250    0.0000 F   0  0  0  0  0  0  0  0  0  0  0  0
    1.6500   -0.0000    0.0000 F   0  0  0  0  0  0  0  0  0  0  0  0
   -0.0000   -0.0000    0.0000 F   0  0  0  0  0  0  0  0  0  0  0  0
  1  2  1  0  0  0  0
  2  3  1  0  0  0  0
  2  4  1  0  0  0  0
  2  5  1  0  0  0  0
  5  6  2  0  0  0  0
  5  7  1  0  0  0  0
  7  8  1  0  0  0  0
  7  9  1  0  0  0  0
  7 10  1  0  0  0  0
M  END
>  <InChIKey>
InChI=1S/C3F6O/c4-2(5,6)1(10)3(7,8)9

>  <CASRN>
684-16-2

> <Outcome>
1

>  <Index>
3017

>  <StandardizerResult>
Clear Stereo (ID: ClearStereo)
Wedge Clean (ID: WedgeClean)
Mesomerize (ID: Mesomerize)
Tautomerize (ID: Tautomerize)
Clean 2D (ID: Clean2D)

> <knn Distance>


> <CpId>
3017

$$$$
3018
  Mrv1532301301811342D          

 15 15  0  0  0  0            999 V2000
    0.7204    2.1263    0.0000 O   0  0  0  0  0  0  0  0  0  0  0  0
    0.7204    1.3013    0.0000 C   0  0  0  0  0  0  0  0  0  0  0  0
    1.4349    0.8888    0.0000 C   0  0  0  0  0  0  0  0  0  0  0  0
    1.4349    0.0638    0.0000 O   0  0  0  0  0  0  0  0  0  0  0  0
    0.7204   -0.3487    0.0000 C   0  0  0  0  0  0  0  0  0  0  0  0
    0.0060    0.0638    0.0000 O   0  0  0  0  0  0  0  0  0  0  0  0
    0.0060    0.8888    0.0000 C   0  0  0  0  0  0  0  0  0  0  0  0
    1.4349    2.5388    0.0000 H   0  0  0  0  0  0  0  0  0  0  0  0
    0.0060    1.7138    0.0000 H   0  0  0  0  0  0  0  0  0  0  0  0
    2.2585    0.9367    0.0000 H   0  0  0  0  0  0  0  0  0  0  0  0
    1.8883    1.5781    0.0000 H   0  0  0  0  0  0  0  0  0  0  0  0
    0.3502   -1.0860    0.0000 H   0  0  0  0  0  0  0  0  0  0  0  0
    1.0907   -1.0860    0.0000 H   0  0  0  0  0  0  0  0  0  0  0  0
   -0.7693    1.1709    0.0000 H   0  0  0  0  0  0  0  0  0  0  0  0
   -0.7693    0.6066    0.0000 H   0  0  0  0  0  0  0  0  0  0  0  0
  1  2  1  0  0  0  0
  2  3  1  0  0  0  0
  3  4  1  0  0  0  0
  4  5  1  0  0  0  0
  5  6  1  0  0  0  0
  6  7  1  0  0  0  0
  2  7  1  0  0  0  0
  1  8  1  0  0  0  0
  2  9  1  0  0  0  0
  3 10  1  0  0  0  0
  3 11  1  0  0  0  0
  5 12  1  0  0  0  0
  5 13  1  0  0  0  0
  7 14  1  0  0  0  0
  7 15  1  0  0  0  0
M  END
>  <InChIKey>
InChI=1S/C4H8O3/c5-4-1-6-3-7-2-4/h4-5H,1-3H2

>  <CASRN>
4740-78-7

> <Outcome>
1

>  <Index>
3018

>  <StandardizerResult>
Clear Stereo (ID: ClearStereo)
Wedge Clean (ID: WedgeClean)
Mesomerize (ID: Mesomerize)
Tautomerize (ID: Tautomerize)
Add Explicit Hydrogens (ID: AddExplicitH)
Neutralize (ID: Neutralize)
Clean 2D (ID: Clean2D)

> <knn Distance>


> <CpId>
3018

$$$$
3021
  Mrv1532301301811342D          

 14 14  0  0  0  0            999 V2000
    0.7145    1.2362    0.0000 C   0  0  0  0  0  0  0  0  0  0  0  0
    1.4290    0.8237    0.0000 C   0  0  0  0  0  0  0  0  0  0  0  0
    1.4290   -0.0013    0.0000 O   0  0  0  0  0  0  0  0  0  0  0  0
    0.7145   -0.4138    0.0000 C   0  0  0  0  0  0  0  0  0  0  0  0
    0.0000   -0.0013    0.0000 O   0  0  0  0  0  0  0  0  0  0  0  0
    0.0000    0.8237    0.0000 C   0  0  0  0  0  0  0  0  0  0  0  0
    1.0847    1.9735    0.0000 H   0  0  0  0  0  0  0  0  0  0  0  0
    0.3442    1.9735    0.0000 H   0  0  0  0  0  0  0  0  0  0  0  0
    2.2526    0.8717    0.0000 H   0  0  0  0  0  0  0  0  0  0  0  0
    1.8823    1.5130    0.0000 H   0  0  0  0  0  0  0  0  0  0  0  0
    0.3442   -1.1510    0.0000 H   0  0  0  0  0  0  0  0  0  0  0  0
    1.0847   -1.1510    0.0000 H   0  0  0  0  0  0  0  0  0  0  0  0
   -0.4533    1.5130    0.0000 H   0  0  0  0  0  0  0  0  0  0  0  0
   -0.8236    0.8717    0.0000 H   0  0  0  0  0  0  0  0  0  0  0  0
  1  2  1  0  0  0  0
  2  3  1  0  0  0  0
  3  4  1  0  0  0  0
  4  5  1  0  0  0  0
  5  6  1  0  0  0  0
  1  6  1  0  0  0  0
  1  7  1  0  0  0  0
  1  8  1  0  0  0  0
  2  9  1  0  0  0  0
  2 10  1  0  0  0  0
  4 11  1  0  0  0  0
  4 12  1  0  0  0  0
  6 13  1  0  0  0  0
  6 14  1  0  0  0  0
M  END
>  <InChIKey>
InChI=1S/C4H8O2/c1-2-5-4-6-3-1/h1-4H2

>  <CASRN>
505-22-6

> <Outcome>
1

>  <Index>
3021

>  <StandardizerResult>
Clear Stereo (ID: ClearStereo)
Wedge Clean (ID: WedgeClean)
Mesomerize (ID: Mesomerize)
Tautomerize (ID: Tautomerize)
Add Explicit Hydrogens (ID: AddExplicitH)
Neutralize (ID: Neutralize)
Clean 2D (ID: Clean2D)

> <knn Distance>


> <CpId>
3021

$$$$
3028
  Mrv1532301301811342D          

 11 10  0  0  0  0            999 V2000
    2.4742   -1.4303    0.0000 Br  0  0  0  0  0  0  0  0  0  0  0  0
    2.0617   -0.7159    0.0000 C   0  0  0  0  0  0  0  0  0  0  0  0
    1.2367   -0.7159    0.0000 C   0  0  0  0  0  0  0  0  0  0  0  0
    0.8242   -0.0014    0.0000 C   0  0  0  0  0  0  0  0  0  0  0  0
   -0.0008   -0.0014    0.0000 Br  0  0  0  0  0  0  0  0  0  0  0  0
    2.7510   -0.2625    0.0000 H   0  0  0  0  0  0  0  0  0  0  0  0
    2.1097    0.1077    0.0000 H   0  0  0  0  0  0  0  0  0  0  0  0
    0.5474   -1.1692    0.0000 H   0  0  0  0  0  0  0  0  0  0  0  0
    1.1887   -1.5395    0.0000 H   0  0  0  0  0  0  0  0  0  0  0  0
    1.5135    0.4519    0.0000 H   0  0  0  0  0  0  0  0  0  0  0  0
    0.8722    0.8222    0.0000 H   0  0  0  0  0  0  0  0  0  0  0  0
  1  2  1  0  0  0  0
  2  3  1  0  0  0  0
  3  4  1  0  0  0  0
  4  5  1  0  0  0  0
  2  6  1  0  0  0  0
  2  7  1  0  0  0  0
  3  8  1  0  0  0  0
  3  9  1  0  0  0  0
  4 10  1  0  0  0  0
  4 11  1  0  0  0  0
M  END
>  <InChIKey>
InChI=1S/C3H6Br2/c4-2-1-3-5/h1-3H2

>  <CASRN>
109-64-8

> <Outcome>
1

>  <Index>
3028

>  <StandardizerResult>
Clear Stereo (ID: ClearStereo)
Wedge Clean (ID: WedgeClean)
Mesomerize (ID: Mesomerize)
Tautomerize (ID: Tautomerize)
Add Explicit Hydrogens (ID: AddExplicitH)
Neutralize (ID: Neutralize)
Clean 2D (ID: Clean2D)

> <knn Distance>


> <CpId>
3028

$$$$
3030
  Mrv1532301301811342D          

 33 34  0  0  0  0            999 V2000
    1.5339   -1.2375    0.0000 C   0  0  0  0  0  0  0  0  0  0  0  0
    0.7089   -1.2375    0.0000 C   0  0  0  0  0  0  0  0  0  0  0  0
   -0.1161   -1.2375    0.0000 C   0  0  0  0  0  0  0  0  0  0  0  0
    0.7089   -2.0625    0.0000 C   0  0  0  0  0  0  0  0  0  0  0  0
    1.4233   -2.4750    0.0000 C   0  0  0  0  0  0  0  0  0  0  0  0
    1.4233   -3.3000    0.0000 C   0  0  0  0  0  0  0  0  0  0  0  0
    2.1378   -3.7125    0.0000 Br  0  0  0  0  0  0  0  0  0  0  0  0
    0.7089   -3.7125    0.0000 C   0  0  0  0  0  0  0  0  0  0  0  0
    0.7089   -4.5375    0.0000 O   0  0  0  0  0  0  0  0  0  0  0  0
   -0.0056   -3.3000    0.0000 C   0  0  0  0  0  0  0  0  0  0  0  0
   -0.7201   -3.7125    0.0000 Br  0  0  0  0  0  0  0  0  0  0  0  0
   -0.0056   -2.4750    0.0000 C   0  0  0  0  0  0  0  0  0  0  0  0
    0.7089   -0.4125    0.0000 C   0  0  0  0  0  0  0  0  0  0  0  0
   -0.0056    0.0000    0.0000 C   0  0  0  0  0  0  0  0  0  0  0  0
   -0.0056    0.8250    0.0000 C   0  0  0  0  0  0  0  0  0  0  0  0
   -0.7201    1.2375    0.0000 Br  0  0  0  0  0  0  0  0  0  0  0  0
    0.7089    1.2375    0.0000 C   0  0  0  0  0  0  0  0  0  0  0  0
    0.7089    2.0625    0.0000 O   0  0  0  0  0  0  0  0  0  0  0  0
    1.4233    0.8250    0.0000 C   0  0  0  0  0  0  0  0  0  0  0  0
    2.1378    1.2375    0.0000 Br  0  0  0  0  0  0  0  0  0  0  0  0
    1.4233   -0.0000    0.0000 C   0  0  0  0  0  0  0  0  0  0  0  0
    1.5339   -2.0625    0.0000 H   0  0  0  0  0  0  0  0  0  0  0  0
    2.3589   -1.2375    0.0000 H   0  0  0  0  0  0  0  0  0  0  0  0
    1.5339   -0.4125    0.0000 H   0  0  0  0  0  0  0  0  0  0  0  0
   -0.1161   -0.4125    0.0000 H   0  0  0  0  0  0  0  0  0  0  0  0
   -0.9411   -1.2375    0.0000 H   0  0  0  0  0  0  0  0  0  0  0  0
   -0.1161   -2.0625    0.0000 H   0  0  0  0  0  0  0  0  0  0  0  0
    2.2413   -2.5827    0.0000 H   0  0  0  0  0  0  0  0  0  0  0  0
   -0.0056   -4.9500    0.0000 H   0  0  0  0  0  0  0  0  0  0  0  0
   -0.8235   -2.5827    0.0000 H   0  0  0  0  0  0  0  0  0  0  0  0
   -0.8235    0.1077    0.0000 H   0  0  0  0  0  0  0  0  0  0  0  0
    1.4233    2.4750    0.0000 H   0  0  0  0  0  0  0  0  0  0  0  0
    2.2413    0.1077    0.0000 H   0  0  0  0  0  0  0  0  0  0  0  0
  1  2  1  0  0  0  0
  2  3  1  0  0  0  0
  2  4  1  0  0  0  0
  4  5  4  0  0  0  0
  5  6  4  0  0  0  0
  6  7  1  0  0  0  0
  6  8  4  0  0  0  0
  8  9  1  0  0  0  0
  8 10  4  0  0  0  0
 10 11  1  0  0  0  0
 10 12  4  0  0  0  0
  4 12  4  0  0  0  0
  2 13  1  0  0  0  0
 13 14  4  0  0  0  0
 14 15  4  0  0  0  0
 15 16  1  0  0  0  0
 15 17  4  0  0  0  0
 17 18  1  0  0  0  0
 17 19  4  0  0  0  0
 19 20  1  0  0  0  0
 19 21  4  0  0  0  0
 13 21  4  0  0  0  0
  1 22  1  0  0  0  0
  1 23  1  0  0  0  0
  1 24  1  0  0  0  0
  3 25  1  0  0  0  0
  3 26  1  0  0  0  0
  3 27  1  0  0  0  0
  5 28  1  0  0  0  0
  9 29  1  0  0  0  0
 12 30  1  0  0  0  0
 14 31  1  0  0  0  0
 18 32  1  0  0  0  0
 21 33  1  0  0  0  0
M  END
>  <InChIKey>
InChI=1S/C15H12Br4O2/c1-15(2,7-3-9(16)13(20)10(17)4-7)8-5-11(18)14(21)12(19)6-8/h3-6,20-21H,1-2H3

>  <CASRN>
79-94-7

> <Outcome>
1

>  <Index>
3030

>  <StandardizerResult>
Dearomatize (ID: Dearomatize)
Clear Stereo (ID: ClearStereo)
Wedge Clean (ID: WedgeClean)
Mesomerize (ID: Mesomerize)
Tautomerize (ID: Tautomerize)
Aromatize (ID: Aromatize)
Add Explicit Hydrogens (ID: AddExplicitH)
Neutralize (ID: Neutralize)
Clean 2D (ID: Clean2D)

> <knn Distance>


> <CpId>
3030

$$$$
3032
  Mrv1532301301811342D          

 26 27  0  0  0  0            999 V2000
    0.7145   -0.4125    0.0000 C   0  0  0  0  0  0  0  0  0  0  0  0
    0.7145   -1.2375    0.0000 C   0  0  0  0  0  0  0  0  0  0  0  0
    1.3819   -1.7224    0.0000 C   0  0  0  0  0  0  0  0  0  0  0  0
    1.1270   -2.5070    0.0000 C   0  0  0  0  0  0  0  0  0  0  0  0
    1.6119   -3.1745    0.0000 O   0  0  0  0  0  0  0  0  0  0  0  0
    0.3020   -2.5070    0.0000 N   0  0  0  0  0  0  0  0  0  0  0  0
   -0.1829   -3.1745    0.0000 C   0  0  0  0  0  0  0  0  0  0  0  0
    0.1526   -3.9282    0.0000 C   0  0  0  0  0  0  0  0  0  0  0  0
   -0.3323   -4.5956    0.0000 C   0  0  0  0  0  0  0  0  0  0  0  0
   -1.1528   -4.5094    0.0000 C   0  0  0  0  0  0  0  0  0  0  0  0
   -1.4884   -3.7557    0.0000 C   0  0  0  0  0  0  0  0  0  0  0  0
   -1.0034   -3.0882    0.0000 C   0  0  0  0  0  0  0  0  0  0  0  0
    0.0470   -1.7224    0.0000 N   0  0  0  0  0  0  0  0  0  0  0  0
   -0.7376   -1.4675    0.0000 C   0  0  0  0  0  0  0  0  0  0  0  0
    1.5395   -0.4125    0.0000 H   0  0  0  0  0  0  0  0  0  0  0  0
    0.7145    0.4125    0.0000 H   0  0  0  0  0  0  0  0  0  0  0  0
   -0.1105   -0.4125    0.0000 H   0  0  0  0  0  0  0  0  0  0  0  0
    2.1665   -1.4675    0.0000 H   0  0  0  0  0  0  0  0  0  0  0  0
    0.9731   -4.0144    0.0000 H   0  0  0  0  0  0  0  0  0  0  0  0
    0.0032   -5.3493    0.0000 H   0  0  0  0  0  0  0  0  0  0  0  0
   -1.6377   -5.1768    0.0000 H   0  0  0  0  0  0  0  0  0  0  0  0
   -2.3088   -3.6695    0.0000 H   0  0  0  0  0  0  0  0  0  0  0  0
   -1.3390   -2.3346    0.0000 H   0  0  0  0  0  0  0  0  0  0  0  0
   -0.4826   -0.6829    0.0000 H   0  0  0  0  0  0  0  0  0  0  0  0
   -1.5222   -1.2125    0.0000 H   0  0  0  0  0  0  0  0  0  0  0  0
   -0.9925   -2.2521    0.0000 H   0  0  0  0  0  0  0  0  0  0  0  0
  1  2  1  0  0  0  0
  2  3  2  0  0  0  0
  3  4  1  0  0  0  0
  4  5  2  0  0  0  0
  4  6  1  0  0  0  0
  6  7  1  0  0  0  0
  7  8  4  0  0  0  0
  8  9  4  0  0  0  0
  9 10  4  0  0  0  0
 10 11  4  0  0  0  0
 11 12  4  0  0  0  0
  7 12  4  0  0  0  0
  6 13  1  0  0  0  0
  2 13  1  0  0  0  0
 13 14  1  0  0  0  0
  1 15  1  0  0  0  0
  1 16  1  0  0  0  0
  1 17  1  0  0  0  0
  3 18  1  0  0  0  0
  8 19  1  0  0  0  0
  9 20  1  0  0  0  0
 10 21  1  0  0  0  0
 11 22  1  0  0  0  0
 12 23  1  0  0  0  0
 14 24  1  0  0  0  0
 14 25  1  0  0  0  0
 14 26  1  0  0  0  0
M  END
>  <InChIKey>
InChI=1S/C11H12N2O/c1-9-8-11(14)13(12(9)2)10-6-4-3-5-7-10/h3-8H,1-2H3

>  <CASRN>
60-80-0

> <Outcome>
1

>  <Index>
3032

>  <StandardizerResult>
Dearomatize (ID: Dearomatize)
Clear Stereo (ID: ClearStereo)
Wedge Clean (ID: WedgeClean)
Mesomerize (ID: Mesomerize)
Tautomerize (ID: Tautomerize)
Aromatize (ID: Aromatize)
Add Explicit Hydrogens (ID: AddExplicitH)
Neutralize (ID: Neutralize)
Clean 2D (ID: Clean2D)

> <knn Distance>


> <CpId>
3032

$$$$
3033
  Mrv1532301301811342D          

 14 13  0  0  0  0            999 V2000
   -0.1914    0.7146    0.0000 C   0  0  0  0  0  0  0  0  0  0  0  0
    0.5231    1.1271    0.0000 C   0  0  0  0  0  0  0  0  0  0  0  0
    1.2376    0.7146    0.0000 O   0  0  0  0  0  0  0  0  0  0  0  0
    1.9521    1.1271    0.0000 C   0  0  0  0  0  0  0  0  0  0  0  0
    1.9521    1.9521    0.0000 O   0  0  0  0  0  0  0  0  0  0  0  0
    2.6665    0.7146    0.0000 C   0  0  0  0  0  0  0  0  0  0  0  0
    3.3810    1.1271    0.0000 Cl  0  0  0  0  0  0  0  0  0  0  0  0
   -0.6039    1.4290    0.0000 H   0  0  0  0  0  0  0  0  0  0  0  0
   -0.9058    0.3021    0.0000 H   0  0  0  0  0  0  0  0  0  0  0  0
    0.2211    0.0001    0.0000 H   0  0  0  0  0  0  0  0  0  0  0  0
    0.8934    1.8643    0.0000 H   0  0  0  0  0  0  0  0  0  0  0  0
    0.1529    1.8643    0.0000 H   0  0  0  0  0  0  0  0  0  0  0  0
    2.2963   -0.0227    0.0000 H   0  0  0  0  0  0  0  0  0  0  0  0
    3.0368   -0.0227    0.0000 H   0  0  0  0  0  0  0  0  0  0  0  0
  1  2  1  0  0  0  0
  2  3  1  0  0  0  0
  3  4  1  0  0  0  0
  4  5  2  0  0  0  0
  4  6  1  0  0  0  0
  6  7  1  0  0  0  0
  1  8  1  0  0  0  0
  1  9  1  0  0  0  0
  1 10  1  0  0  0  0
  2 11  1  0  0  0  0
  2 12  1  0  0  0  0
  6 13  1  0  0  0  0
  6 14  1  0  0  0  0
M  END
>  <InChIKey>
InChI=1S/C4H7ClO2/c1-2-7-4(6)3-5/h2-3H2,1H3

>  <CASRN>
105-39-5

> <Outcome>
1

>  <Index>
3033

>  <StandardizerResult>
Clear Stereo (ID: ClearStereo)
Wedge Clean (ID: WedgeClean)
Mesomerize (ID: Mesomerize)
Tautomerize (ID: Tautomerize)
Add Explicit Hydrogens (ID: AddExplicitH)
Neutralize (ID: Neutralize)
Clean 2D (ID: Clean2D)

> <knn Distance>


> <CpId>
3033

$$$$
3034
  Mrv1532301301811342D          

  9  8  0  0  0  0            999 V2000
    1.2375    0.7145    0.0000 Cl  0  0  0  0  0  0  0  0  0  0  0  0
    0.8250   -0.0000    0.0000 C   0  0  0  0  0  0  0  0  0  0  0  0
    1.2375   -0.7145    0.0000 Cl  0  0  0  0  0  0  0  0  0  0  0  0
   -0.0000   -0.0000    0.0000 C   0  0  0  0  0  0  0  0  0  0  0  0
   -0.4125    0.7145    0.0000 Cl  0  0  0  0  0  0  0  0  0  0  0  0
   -0.4125   -0.7145    0.0000 C   0  0  0  0  0  0  0  0  0  0  0  0
   -0.8250   -1.4289    0.0000 Cl  0  0  0  0  0  0  0  0  0  0  0  0
   -1.1270   -0.3020    0.0000 Cl  0  0  0  0  0  0  0  0  0  0  0  0
    0.3020   -1.1270    0.0000 Cl  0  0  0  0  0  0  0  0  0  0  0  0
  1  2  1  0  0  0  0
  2  3  1  0  0  0  0
  2  4  2  0  0  0  0
  4  5  1  0  0  0  0
  4  6  1  0  0  0  0
  6  7  1  0  0  0  0
  6  8  1  0  0  0  0
  6  9  1  0  0  0  0
M  END
>  <InChIKey>
InChI=1S/C3Cl6/c4-1(2(5)6)3(7,8)9

>  <CASRN>
1888-71-7

> <Outcome>
1

>  <Index>
3034

>  <StandardizerResult>
Clear Stereo (ID: ClearStereo)
Wedge Clean (ID: WedgeClean)
Mesomerize (ID: Mesomerize)
Tautomerize (ID: Tautomerize)
Clean 2D (ID: Clean2D)

> <knn Distance>


> <CpId>
3034

$$$$
3036
  Mrv1532301301811342D          

  7  6  0  0  0  0            999 V2000
    0.8225    1.4290    0.0000 Cl  0  0  0  0  0  0  0  0  0  0  0  0
    1.2350    0.7145    0.0000 C   0  0  0  0  0  0  0  0  0  0  0  0
    0.8225    0.0000    0.0000 C   0  0  0  0  0  0  0  0  0  0  0  0
    1.2350   -0.7145    0.0000 Cl  0  0  0  0  0  0  0  0  0  0  0  0
   -0.0025    0.0000    0.0000 O   0  0  0  0  0  0  0  0  0  0  0  0
    1.9722    0.3442    0.0000 H   0  0  0  0  0  0  0  0  0  0  0  0
    1.9722    1.0847    0.0000 H   0  0  0  0  0  0  0  0  0  0  0  0
  1  2  1  0  0  0  0
  2  3  1  0  0  0  0
  3  4  1  0  0  0  0
  3  5  2  0  0  0  0
  2  6  1  0  0  0  0
  2  7  1  0  0  0  0
M  END
>  <InChIKey>
InChI=1S/C2H2Cl2O/c3-1-2(4)5/h1H2

>  <CASRN>
79-04-9

> <Outcome>
1

>  <Index>
3036

>  <StandardizerResult>
Clear Stereo (ID: ClearStereo)
Wedge Clean (ID: WedgeClean)
Mesomerize (ID: Mesomerize)
Tautomerize (ID: Tautomerize)
Add Explicit Hydrogens (ID: AddExplicitH)
Neutralize (ID: Neutralize)
Clean 2D (ID: Clean2D)

> <knn Distance>


> <CpId>
3036

$$$$
3037
  Mrv1532301301811342D          

 12 11  0  0  0  0            999 V2000
    2.4743   -1.4302    0.0000 N   0  0  0  0  0  0  0  0  0  0  0  0
    2.0618   -0.7157    0.0000 C   0  0  0  0  0  0  0  0  0  0  0  0
    2.4743   -0.0013    0.0000 O   0  0  0  0  0  0  0  0  0  0  0  0
    1.2368   -0.7157    0.0000 N   0  0  0  0  0  0  0  0  0  0  0  0
    0.8243   -0.0013    0.0000 C   0  0  0  0  0  0  0  0  0  0  0  0
   -0.0007   -0.0013    0.0000 O   0  0  0  0  0  0  0  0  0  0  0  0
    2.0618   -2.1447    0.0000 H   0  0  0  0  0  0  0  0  0  0  0  0
    3.2993   -1.4302    0.0000 H   0  0  0  0  0  0  0  0  0  0  0  0
    0.8243   -1.4302    0.0000 H   0  0  0  0  0  0  0  0  0  0  0  0
    1.5135    0.4521    0.0000 H   0  0  0  0  0  0  0  0  0  0  0  0
    0.8722    0.8223    0.0000 H   0  0  0  0  0  0  0  0  0  0  0  0
   -0.4132    0.7132    0.0000 H   0  0  0  0  0  0  0  0  0  0  0  0
  1  2  1  0  0  0  0
  2  3  2  0  0  0  0
  2  4  1  0  0  0  0
  4  5  1  0  0  0  0
  5  6  1  0  0  0  0
  1  7  1  0  0  0  0
  1  8  1  0  0  0  0
  4  9  1  0  0  0  0
  5 10  1  0  0  0  0
  5 11  1  0  0  0  0
  6 12  1  0  0  0  0
M  END
>  <InChIKey>
InChI=1S/C2H6N2O2/c3-2(6)4-1-5/h5H,1H2,(H3,3,4,6)

>  <CASRN>
1000-82-4

> <Outcome>
1

>  <Index>
3037

>  <StandardizerResult>
Clear Stereo (ID: ClearStereo)
Wedge Clean (ID: WedgeClean)
Mesomerize (ID: Mesomerize)
Tautomerize (ID: Tautomerize)
Add Explicit Hydrogens (ID: AddExplicitH)
Neutralize (ID: Neutralize)
Clean 2D (ID: Clean2D)

> <knn Distance>


> <CpId>
3037

$$$$
3042
  Mrv1532301301811342D          

 13 13  0  0  0  0            999 V2000
    0.7145    2.0625    0.0000 O   0  0  0  0  0  0  0  0  0  0  0  0
    0.7145    1.2375    0.0000 C   0  0  0  0  0  0  0  0  0  0  0  0
    1.4289    0.8250    0.0000 C   0  0  0  0  0  0  0  0  0  0  0  0
    2.1434    1.2375    0.0000 Cl  0  0  0  0  0  0  0  0  0  0  0  0
    1.4289    0.0000    0.0000 C   0  0  0  0  0  0  0  0  0  0  0  0
    0.7145   -0.4125    0.0000 C   0  0  0  0  0  0  0  0  0  0  0  0
    0.7145   -1.2375    0.0000 Cl  0  0  0  0  0  0  0  0  0  0  0  0
   -0.0000    0.0000    0.0000 C   0  0  0  0  0  0  0  0  0  0  0  0
   -0.7145   -0.4125    0.0000 Cl  0  0  0  0  0  0  0  0  0  0  0  0
   -0.0000    0.8250    0.0000 C   0  0  0  0  0  0  0  0  0  0  0  0
   -0.7145    1.2375    0.0000 Cl  0  0  0  0  0  0  0  0  0  0  0  0
    1.4289    2.4750    0.0000 H   0  0  0  0  0  0  0  0  0  0  0  0
    2.1434   -0.4125    0.0000 H   0  0  0  0  0  0  0  0  0  0  0  0
  1  2  1  0  0  0  0
  2  3  4  0  0  0  0
  3  4  1  0  0  0  0
  3  5  4  0  0  0  0
  5  6  4  0  0  0  0
  6  7  1  0  0  0  0
  6  8  4  0  0  0  0
  8  9  1  0  0  0  0
  8 10  4  0  0  0  0
  2 10  4  0  0  0  0
 10 11  1  0  0  0  0
  1 12  1  0  0  0  0
  5 13  1  0  0  0  0
M  END
>  <InChIKey>
InChI=1S/C6H2Cl4O/c7-2-1-3(8)6(11)5(10)4(2)9/h1,11H

>  <CASRN>
58-90-2

> <Outcome>
1

>  <Index>
3042

>  <StandardizerResult>
Dearomatize (ID: Dearomatize)
Clear Stereo (ID: ClearStereo)
Wedge Clean (ID: WedgeClean)
Mesomerize (ID: Mesomerize)
Tautomerize (ID: Tautomerize)
Aromatize (ID: Aromatize)
Add Explicit Hydrogens (ID: AddExplicitH)
Neutralize (ID: Neutralize)
Clean 2D (ID: Clean2D)

> <knn Distance>


> <CpId>
3042

$$$$
3045
  Mrv1532301301811342D          

  8  7  0  0  0  0            999 V2000
    0.8250   -1.6500    0.0000 Cl  0  0  0  0  0  0  0  0  0  0  0  0
    0.8250   -0.8250    0.0000 C   0  0  0  0  0  0  0  0  0  0  0  0
    1.6500   -0.8250    0.0000 Cl  0  0  0  0  0  0  0  0  0  0  0  0
    0.0000   -0.8250    0.0000 Cl  0  0  0  0  0  0  0  0  0  0  0  0
    0.8250    0.0000    0.0000 C   0  0  0  0  0  0  0  0  0  0  0  0
    0.8250    0.8250    0.0000 Cl  0  0  0  0  0  0  0  0  0  0  0  0
    1.6500   -0.0000    0.0000 Cl  0  0  0  0  0  0  0  0  0  0  0  0
    0.0000    0.0000    0.0000 Cl  0  0  0  0  0  0  0  0  0  0  0  0
  1  2  1  0  0  0  0
  2  3  1  0  0  0  0
  2  4  1  0  0  0  0
  2  5  1  0  0  0  0
  5  6  1  0  0  0  0
  5  7  1  0  0  0  0
  5  8  1  0  0  0  0
M  END
>  <InChIKey>
InChI=1S/C2Cl6/c3-1(4,5)2(6,7)8

>  <CASRN>
67-72-1

> <Outcome>
1

>  <Index>
3045

>  <StandardizerResult>
Clear Stereo (ID: ClearStereo)
Wedge Clean (ID: WedgeClean)
Mesomerize (ID: Mesomerize)
Tautomerize (ID: Tautomerize)
Clean 2D (ID: Clean2D)

> <knn Distance>


> <CpId>
3045

$$$$
3047
  Mrv1532301301811342D          

 11 10  0  0  0  0            999 V2000
    0.8250    1.4289    0.0000 C   0  0  0  0  0  0  0  0  0  0  0  0
    1.2375    0.7145    0.0000 C   0  0  0  0  0  0  0  0  0  0  0  0
    2.0625    0.7145    0.0000 C   0  0  0  0  0  0  0  0  0  0  0  0
    0.8250   -0.0000    0.0000 C   0  0  0  0  0  0  0  0  0  0  0  0
    1.2375   -0.7145    0.0000 Cl  0  0  0  0  0  0  0  0  0  0  0  0
   -0.0000   -0.0000    0.0000 O   0  0  0  0  0  0  0  0  0  0  0  0
    1.5395    1.8414    0.0000 H   0  0  0  0  0  0  0  0  0  0  0  0
    0.4125    2.1434    0.0000 H   0  0  0  0  0  0  0  0  0  0  0  0
    0.1105    1.0164    0.0000 H   0  0  0  0  0  0  0  0  0  0  0  0
    2.4750   -0.0000    0.0000 H   0  0  0  0  0  0  0  0  0  0  0  0
    2.4750    1.4289    0.0000 H   0  0  0  0  0  0  0  0  0  0  0  0
  1  2  1  0  0  0  0
  2  3  2  0  0  0  0
  2  4  1  0  0  0  0
  4  5  1  0  0  0  0
  4  6  2  0  0  0  0
  1  7  1  0  0  0  0
  1  8  1  0  0  0  0
  1  9  1  0  0  0  0
  3 10  1  0  0  0  0
  3 11  1  0  0  0  0
M  END
>  <InChIKey>
InChI=1S/C4H5ClO/c1-3(2)4(5)6/h1H2,2H3

>  <CASRN>
920-46-7

> <Outcome>
1

>  <Index>
3047

>  <StandardizerResult>
Clear Stereo (ID: ClearStereo)
Wedge Clean (ID: WedgeClean)
Mesomerize (ID: Mesomerize)
Tautomerize (ID: Tautomerize)
Add Explicit Hydrogens (ID: AddExplicitH)
Neutralize (ID: Neutralize)
Clean 2D (ID: Clean2D)

> <knn Distance>


> <CpId>
3047

$$$$
3051
  Mrv1532301301811342D          

 14 14  0  0  0  0            999 V2000
   -0.1467    2.3518    0.0000 C   0  0  0  0  0  0  0  0  0  0  0  0
    0.5678    1.9393    0.0000 C   0  0  0  0  0  0  0  0  0  0  0  0
    1.2822    2.3518    0.0000 O   0  0  0  0  0  0  0  0  0  0  0  0
    0.5678    1.1143    0.0000 N   0  0  0  0  0  0  0  0  0  0  0  0
    1.2352    0.6294    0.0000 C   0  0  0  0  0  0  0  0  0  0  0  0
    0.9803   -0.1552    0.0000 C   0  0  0  0  0  0  0  0  0  0  0  0
    0.1553   -0.1552    0.0000 N   0  0  0  0  0  0  0  0  0  0  0  0
   -0.0997    0.6294    0.0000 C   0  0  0  0  0  0  0  0  0  0  0  0
    0.2658    3.0663    0.0000 H   0  0  0  0  0  0  0  0  0  0  0  0
   -0.8612    2.7643    0.0000 H   0  0  0  0  0  0  0  0  0  0  0  0
   -0.5592    1.6373    0.0000 H   0  0  0  0  0  0  0  0  0  0  0  0
    2.0198    0.8843    0.0000 H   0  0  0  0  0  0  0  0  0  0  0  0
    1.4652   -0.8227    0.0000 H   0  0  0  0  0  0  0  0  0  0  0  0
   -0.8843    0.8843    0.0000 H   0  0  0  0  0  0  0  0  0  0  0  0
  1  2  1  0  0  0  0
  2  3  2  0  0  0  0
  2  4  1  0  0  0  0
  4  5  4  0  0  0  0
  5  6  4  0  0  0  0
  6  7  4  0  0  0  0
  7  8  4  0  0  0  0
  4  8  4  0  0  0  0
  1  9  1  0  0  0  0
  1 10  1  0  0  0  0
  1 11  1  0  0  0  0
  5 12  1  0  0  0  0
  6 13  1  0  0  0  0
  8 14  1  0  0  0  0
M  END
>  <InChIKey>
InChI=1S/C5H6N2O/c1-5(8)7-3-2-6-4-7/h2-4H,1H3

>  <CASRN>
2466-76-4

> <Outcome>
1

>  <Index>
3051

>  <StandardizerResult>
Dearomatize (ID: Dearomatize)
Clear Stereo (ID: ClearStereo)
Wedge Clean (ID: WedgeClean)
Mesomerize (ID: Mesomerize)
Tautomerize (ID: Tautomerize)
Aromatize (ID: Aromatize)
Add Explicit Hydrogens (ID: AddExplicitH)
Neutralize (ID: Neutralize)
Clean 2D (ID: Clean2D)

> <knn Distance>


> <CpId>
3051

$$$$
3065
  Mrv1532301301811342D          

 17 17  0  0  0  0            999 V2000
    0.7145    2.0625    0.0000 N   0  0  0  0  0  0  0  0  0  0  0  0
    0.7145    1.2375    0.0000 C   0  0  0  0  0  0  0  0  0  0  0  0
    1.4289    0.8250    0.0000 C   0  0  0  0  0  0  0  0  0  0  0  0
    1.4289   -0.0000    0.0000 C   0  0  0  0  0  0  0  0  0  0  0  0
    0.7145   -0.4125    0.0000 C   0  0  0  0  0  0  0  0  0  0  0  0
    0.0000   -0.0000    0.0000 C   0  0  0  0  0  0  0  0  0  0  0  0
    0.0000    0.8250    0.0000 C   0  0  0  0  0  0  0  0  0  0  0  0
   -0.7145    1.2375    0.0000 O   0  0  0  0  0  0  0  0  0  0  0  0
    2.1434   -0.4125    0.0000 N   0  0  0  0  0  0  0  0  0  0  0  0
    2.8579   -0.0000    0.0000 O   0  0  0  0  0  0  0  0  0  0  0  0
    2.1434   -1.2375    0.0000 O   0  0  0  0  0  0  0  0  0  0  0  0
    1.4289    2.4750    0.0000 H   0  0  0  0  0  0  0  0  0  0  0  0
    0.0000    2.4750    0.0000 H   0  0  0  0  0  0  0  0  0  0  0  0
    2.1434    1.2375    0.0000 H   0  0  0  0  0  0  0  0  0  0  0  0
    0.7145   -1.2375    0.0000 H   0  0  0  0  0  0  0  0  0  0  0  0
   -0.7145   -0.4125    0.0000 H   0  0  0  0  0  0  0  0  0  0  0  0
   -0.7145    2.0625    0.0000 H   0  0  0  0  0  0  0  0  0  0  0  0
  1  2  1  0  0  0  0
  2  3  4  0  0  0  0
  3  4  4  0  0  0  0
  4  5  4  0  0  0  0
  5  6  4  0  0  0  0
  6  7  4  0  0  0  0
  2  7  4  0  0  0  0
  7  8  1  0  0  0  0
  4  9  1  0  0  0  0
  9 10  2  0  0  0  0
  9 11  2  0  0  0  0
  1 12  1  0  0  0  0
  1 13  1  0  0  0  0
  3 14  1  0  0  0  0
  5 15  1  0  0  0  0
  6 16  1  0  0  0  0
  8 17  1  0  0  0  0
M  END
>  <InChIKey>
InChI=1S/C6H6N2O3/c7-5-3-4(8(10)11)1-2-6(5)9/h1-3,9H,7H2

>  <CASRN>
99-57-0

> <Outcome>
1

>  <Index>
3065

>  <StandardizerResult>
Dearomatize (ID: Dearomatize)
Clear Stereo (ID: ClearStereo)
Wedge Clean (ID: WedgeClean)
Mesomerize (ID: Mesomerize)
Tautomerize (ID: Tautomerize)
Aromatize (ID: Aromatize)
Add Explicit Hydrogens (ID: AddExplicitH)
Neutralize (ID: Neutralize)
Clean 2D (ID: Clean2D)

> <knn Distance>


> <CpId>
3065

$$$$
3069
  Mrv1532301301811342D          

 18 18  0  0  0  0            999 V2000
    0.0370    2.5185    0.0000 C   0  0  0  0  0  0  0  0  0  0  0  0
    0.7515    2.1060    0.0000 O   0  0  0  0  0  0  0  0  0  0  0  0
    0.7515    1.2810    0.0000 C   0  0  0  0  0  0  0  0  0  0  0  0
    1.4659    0.8685    0.0000 C   0  0  0  0  0  0  0  0  0  0  0  0
    1.4659    0.0435    0.0000 C   0  0  0  0  0  0  0  0  0  0  0  0
    0.7515   -0.3690    0.0000 C   0  0  0  0  0  0  0  0  0  0  0  0
    0.0370    0.0435    0.0000 C   0  0  0  0  0  0  0  0  0  0  0  0
    0.0370    0.8685    0.0000 C   0  0  0  0  0  0  0  0  0  0  0  0
   -0.6775    1.2810    0.0000 N   0  0  0  0  0  0  0  0  0  0  0  0
    0.4495    3.2329    0.0000 H   0  0  0  0  0  0  0  0  0  0  0  0
   -0.6775    2.9310    0.0000 H   0  0  0  0  0  0  0  0  0  0  0  0
   -0.3755    1.8040    0.0000 H   0  0  0  0  0  0  0  0  0  0  0  0
    2.1804    1.2810    0.0000 H   0  0  0  0  0  0  0  0  0  0  0  0
    2.1804   -0.3690    0.0000 H   0  0  0  0  0  0  0  0  0  0  0  0
    0.7515   -1.1940    0.0000 H   0  0  0  0  0  0  0  0  0  0  0  0
   -0.6775   -0.3690    0.0000 H   0  0  0  0  0  0  0  0  0  0  0  0
   -1.4744    1.4945    0.0000 H   0  0  0  0  0  0  0  0  0  0  0  0
   -1.2609    0.6976    0.0000 H   0  0  0  0  0  0  0  0  0  0  0  0
  1  2  1  0  0  0  0
  2  3  1  0  0  0  0
  3  4  4  0  0  0  0
  4  5  4  0  0  0  0
  5  6  4  0  0  0  0
  6  7  4  0  0  0  0
  7  8  4  0  0  0  0
  3  8  4  0  0  0  0
  8  9  1  0  0  0  0
  1 10  1  0  0  0  0
  1 11  1  0  0  0  0
  1 12  1  0  0  0  0
  4 13  1  0  0  0  0
  5 14  1  0  0  0  0
  6 15  1  0  0  0  0
  7 16  1  0  0  0  0
  9 17  1  0  0  0  0
  9 18  1  0  0  0  0
M  END
>  <InChIKey>
InChI=1S/C7H9NO/c1-9-7-5-3-2-4-6(7)8/h2-5H,8H2,1H3

>  <CASRN>
90-04-0

> <Outcome>
1

>  <Index>
3069

>  <StandardizerResult>
Dearomatize (ID: Dearomatize)
Clear Stereo (ID: ClearStereo)
Wedge Clean (ID: WedgeClean)
Mesomerize (ID: Mesomerize)
Tautomerize (ID: Tautomerize)
Aromatize (ID: Aromatize)
Add Explicit Hydrogens (ID: AddExplicitH)
Neutralize (ID: Neutralize)
Clean 2D (ID: Clean2D)

> <knn Distance>


> <CpId>
3069

$$$$
3070
  Mrv1532301301811342D          

 26 26  0  0  0  0            999 V2000
    1.0138    2.3723    0.0000 C   0  0  0  0  0  0  0  0  0  0  0  0
    1.0138    1.5473    0.0000 C   0  0  0  0  0  0  0  0  0  0  0  0
    1.7760    1.2316    0.0000 C   0  0  0  0  0  0  0  0  0  0  0  0
    2.0917    0.4694    0.0000 C   0  0  0  0  0  0  0  0  0  0  0  0
    1.7760   -0.2928    0.0000 C   0  0  0  0  0  0  0  0  0  0  0  0
    1.0138   -0.6085    0.0000 C   0  0  0  0  0  0  0  0  0  0  0  0
    1.0138   -1.4335    0.0000 C   0  0  0  0  0  0  0  0  0  0  0  0
    0.2516   -0.2928    0.0000 C   0  0  0  0  0  0  0  0  0  0  0  0
   -0.0641    0.4694    0.0000 C   0  0  0  0  0  0  0  0  0  0  0  0
    0.2516    1.2316    0.0000 C   0  0  0  0  0  0  0  0  0  0  0  0
    1.8388    2.3723    0.0000 H   0  0  0  0  0  0  0  0  0  0  0  0
    1.0138    3.1973    0.0000 H   0  0  0  0  0  0  0  0  0  0  0  0
    0.1888    2.3723    0.0000 H   0  0  0  0  0  0  0  0  0  0  0  0
    1.0138    0.7223    0.0000 H   0  0  0  0  0  0  0  0  0  0  0  0
    2.5512    1.5138    0.0000 H   0  0  0  0  0  0  0  0  0  0  0  0
    2.0581    2.0069    0.0000 H   0  0  0  0  0  0  0  0  0  0  0  0
    2.8394    0.1207    0.0000 H   0  0  0  0  0  0  0  0  0  0  0  0
    2.8394    0.8181    0.0000 H   0  0  0  0  0  0  0  0  0  0  0  0
    2.0581   -1.0680    0.0000 H   0  0  0  0  0  0  0  0  0  0  0  0
    2.5512   -0.5750    0.0000 H   0  0  0  0  0  0  0  0  0  0  0  0
    0.1888   -1.4335    0.0000 H   0  0  0  0  0  0  0  0  0  0  0  0
    1.0138   -2.2585    0.0000 H   0  0  0  0  0  0  0  0  0  0  0  0
    1.8388   -1.4335    0.0000 H   0  0  0  0  0  0  0  0  0  0  0  0
   -0.3318   -0.8762    0.0000 H   0  0  0  0  0  0  0  0  0  0  0  0
   -0.8891    0.4694    0.0000 H   0  0  0  0  0  0  0  0  0  0  0  0
   -0.3318    1.8150    0.0000 H   0  0  0  0  0  0  0  0  0  0  0  0
  1  2  1  0  0  0  0
  2  3  1  0  0  0  0
  3  4  1  0  0  0  0
  4  5  1  0  0  0  0
  5  6  1  0  0  0  0
  6  7  1  0  0  0  0
  6  8  2  0  0  0  0
  8  9  1  4  0  0  0
  9 10  2  0  0  0  0
 10  2  1  4  0  0  0
  1 11  1  0  0  0  0
  1 12  1  0  0  0  0
  1 13  1  0  0  0  0
  2 14  1  0  0  0  0
  3 15  1  0  0  0  0
  3 16  1  0  0  0  0
  4 17  1  0  0  0  0
  4 18  1  0  0  0  0
  5 19  1  0  0  0  0
  5 20  1  0  0  0  0
  7 21  1  0  0  0  0
  7 22  1  0  0  0  0
  7 23  1  0  0  0  0
  8 24  1  0  0  0  0
  9 25  1  0  0  0  0
 10 26  1  0  0  0  0
M  END
>  <InChIKey>
InChI=1S/C10H16/c1-9-5-3-7-10(2)8-4-6-9/h3,5,7,9H,4,6,8H2,1-2H3

> <Outcome>
1

>  <Index>
3070

>  <StandardizerResult>
Clear Stereo (ID: ClearStereo)
Wedge Clean (ID: WedgeClean)
Mesomerize (ID: Mesomerize)
Tautomerize (ID: Tautomerize)
Add Explicit Hydrogens (ID: AddExplicitH)
Neutralize (ID: Neutralize)
Clean 2D (ID: Clean2D)

> <knn Distance>


> <CpId>
3070

$$$$
3071
  Mrv1532301301811342D          

 42 45  0  0  0  0            999 V2000
    0.7294    1.3743    0.0000 Cl  0  0  0  0  0  0  0  0  0  0  0  0
    1.5363    1.5459    0.0000 C   0  0  0  0  0  0  0  0  0  0  0  0
    1.5363    2.3709    0.0000 C   0  0  0  0  0  0  0  0  0  0  0  0
    2.2508    2.7834    0.0000 C   0  0  0  0  0  0  0  0  0  0  0  0
    2.9653    2.3709    0.0000 C   0  0  0  0  0  0  0  0  0  0  0  0
    2.9653    1.5459    0.0000 C   0  0  0  0  0  0  0  0  0  0  0  0
    2.2508    1.1334    0.0000 C   0  0  0  0  0  0  0  0  0  0  0  0
    2.2508    0.3084    0.0000 C   0  0  0  0  0  0  0  0  0  0  0  0
    1.4258    0.3084    0.0000 C   0  0  0  0  0  0  0  0  0  0  0  0
    1.0133   -0.4061    0.0000 C   0  0  0  0  0  0  0  0  0  0  0  0
    0.1883   -0.4061    0.0000 C   0  0  0  0  0  0  0  0  0  0  0  0
   -0.2242    0.3084    0.0000 C   0  0  0  0  0  0  0  0  0  0  0  0
    0.1883    1.0228    0.0000 C   0  0  0  0  0  0  0  0  0  0  0  0
    1.0133    1.0228    0.0000 C   0  0  0  0  0  0  0  0  0  0  0  0
    3.0758    0.3084    0.0000 C   0  0  0  0  0  0  0  0  0  0  0  0
    3.4883    1.0228    0.0000 C   0  0  0  0  0  0  0  0  0  0  0  0
    4.3133    1.0228    0.0000 C   0  0  0  0  0  0  0  0  0  0  0  0
    4.7258    0.3084    0.0000 C   0  0  0  0  0  0  0  0  0  0  0  0
    4.3133   -0.4061    0.0000 C   0  0  0  0  0  0  0  0  0  0  0  0
    3.4883   -0.4061    0.0000 C   0  0  0  0  0  0  0  0  0  0  0  0
    2.2508   -0.5166    0.0000 N   0  0  0  0  0  0  0  0  0  0  0  0
    2.9182   -1.0016    0.0000 C   0  0  0  0  0  0  0  0  0  0  0  0
    2.6633   -1.7862    0.0000 C   0  0  0  0  0  0  0  0  0  0  0  0
    1.8383   -1.7862    0.0000 N   0  0  0  0  0  0  0  0  0  0  0  0
    1.5834   -1.0016    0.0000 C   0  0  0  0  0  0  0  0  0  0  0  0
    0.8219    2.7834    0.0000 H   0  0  0  0  0  0  0  0  0  0  0  0
    2.2508    3.6084    0.0000 H   0  0  0  0  0  0  0  0  0  0  0  0
    3.6797    2.7834    0.0000 H   0  0  0  0  0  0  0  0  0  0  0  0
    3.7275    1.8616    0.0000 H   0  0  0  0  0  0  0  0  0  0  0  0
    0.6893   -1.1648    0.0000 H   0  0  0  0  0  0  0  0  0  0  0  0
   -0.5135   -0.8399    0.0000 H   0  0  0  0  0  0  0  0  0  0  0  0
   -1.0492    0.3084    0.0000 H   0  0  0  0  0  0  0  0  0  0  0  0
   -0.4102    1.5907    0.0000 H   0  0  0  0  0  0  0  0  0  0  0  0
    0.6008    0.3084    0.0000 H   0  0  0  0  0  0  0  0  0  0  0  0
    3.9008    0.3084    0.0000 H   0  0  0  0  0  0  0  0  0  0  0  0
    4.7258    1.7373    0.0000 H   0  0  0  0  0  0  0  0  0  0  0  0
    5.5508    0.3084    0.0000 H   0  0  0  0  0  0  0  0  0  0  0  0
    4.7258   -1.1206    0.0000 H   0  0  0  0  0  0  0  0  0  0  0  0
    3.8123   -1.1648    0.0000 H   0  0  0  0  0  0  0  0  0  0  0  0
    2.8446   -0.1799    0.0000 H   0  0  0  0  0  0  0  0  0  0  0  0
    3.1482   -2.4536    0.0000 H   0  0  0  0  0  0  0  0  0  0  0  0
    1.6570   -0.1799    0.0000 H   0  0  0  0  0  0  0  0  0  0  0  0
  1  2  1  0  0  0  0
  2  3  4  0  0  0  0
  3  4  4  0  0  0  0
  4  5  4  0  0  0  0
  5  6  4  0  0  0  0
  6  7  4  0  0  0  0
  2  7  4  0  0  0  0
  7  8  1  0  0  0  0
  8  9  1  0  0  0  0
  9 10  4  0  0  0  0
 10 11  4  0  0  0  0
 11 12  4  0  0  0  0
 12 13  4  0  0  0  0
 13 14  4  0  0  0  0
  9 14  4  0  0  0  0
  8 15  1  0  0  0  0
 15 16  4  0  0  0  0
 16 17  4  0  0  0  0
 17 18  4  0  0  0  0
 18 19  4  0  0  0  0
 19 20  4  0  0  0  0
 15 20  4  0  0  0  0
  8 21  1  0  0  0  0
 21 22  4  0  0  0  0
 22 23  4  0  0  0  0
 23 24  4  0  0  0  0
 24 25  4  0  0  0  0
 21 25  4  0  0  0  0
  3 26  1  0  0  0  0
  4 27  1  0  0  0  0
  5 28  1  0  0  0  0
  6 29  1  0  0  0  0
 10 30  1  0  0  0  0
 11 31  1  0  0  0  0
 12 32  1  0  0  0  0
 13 33  1  0  0  0  0
 14 34  1  0  0  0  0
 16 35  1  0  0  0  0
 17 36  1  0  0  0  0
 18 37  1  0  0  0  0
 19 38  1  0  0  0  0
 20 39  1  0  0  0  0
 22 40  1  0  0  0  0
 23 41  1  0  0  0  0
 25 42  1  0  0  0  0
M  END
>  <InChIKey>
InChI=1S/C22H17ClN2/c23-21-14-8-7-13-20(21)22(25-16-15-24-17-25,18-9-3-1-4-10-18)19-11-5-2-6-12-19/h1-17H

>  <CASRN>
23593-75-1

> <Outcome>
1

>  <Index>
3071

>  <StandardizerResult>
Dearomatize (ID: Dearomatize)
Clear Stereo (ID: ClearStereo)
Wedge Clean (ID: WedgeClean)
Mesomerize (ID: Mesomerize)
Tautomerize (ID: Tautomerize)
Aromatize (ID: Aromatize)
Add Explicit Hydrogens (ID: AddExplicitH)
Neutralize (ID: Neutralize)
Clean 2D (ID: Clean2D)

> <knn Distance>


> <CpId>
3071

$$$$
3077
  Mrv1532301301811342D          

 20 20  0  0  0  0            999 V2000
    1.3689    1.1952    0.0000 C   0  0  0  0  0  0  0  0  0  0  0  0
    2.0833    0.7827    0.0000 C   0  0  0  0  0  0  0  0  0  0  0  0
    2.0833   -0.0423    0.0000 C   0  0  0  0  0  0  0  0  0  0  0  0
    2.7978    1.1952    0.0000 C   0  0  0  0  0  0  0  0  0  0  0  0
    2.7978    2.0202    0.0000 O   0  0  0  0  0  0  0  0  0  0  0  0
    3.5123    0.7827    0.0000 O   0  0  0  0  0  0  0  0  0  0  0  0
    4.2267    1.1952    0.0000 C   0  0  0  0  0  0  0  0  0  0  0  0
    4.9412    0.7827    0.0000 C   0  0  0  0  0  0  0  0  0  0  0  0
    5.7662    0.7827    0.0000 C   0  0  0  0  0  0  0  0  0  0  0  0
    5.3537    0.0683    0.0000 O   0  0  0  0  0  0  0  0  0  0  0  0
    1.7814    1.9097    0.0000 H   0  0  0  0  0  0  0  0  0  0  0  0
    0.6544    1.6077    0.0000 H   0  0  0  0  0  0  0  0  0  0  0  0
    0.9564    0.4808    0.0000 H   0  0  0  0  0  0  0  0  0  0  0  0
    1.3689   -0.4548    0.0000 H   0  0  0  0  0  0  0  0  0  0  0  0
    2.7978   -0.4548    0.0000 H   0  0  0  0  0  0  0  0  0  0  0  0
    4.5970    1.9325    0.0000 H   0  0  0  0  0  0  0  0  0  0  0  0
    3.8565    1.9325    0.0000 H   0  0  0  0  0  0  0  0  0  0  0  0
    4.3579    0.1994    0.0000 H   0  0  0  0  0  0  0  0  0  0  0  0
    6.5898    0.7348    0.0000 H   0  0  0  0  0  0  0  0  0  0  0  0
    6.1365    1.5200    0.0000 H   0  0  0  0  0  0  0  0  0  0  0  0
  1  2  1  0  0  0  0
  2  3  2  0  0  0  0
  2  4  1  0  0  0  0
  4  5  2  0  0  0  0
  4  6  1  0  0  0  0
  6  7  1  0  0  0  0
  7  8  1  0  0  0  0
  8  9  1  0  0  0  0
  9 10  1  0  0  0  0
  8 10  1  0  0  0  0
  1 11  1  0  0  0  0
  1 12  1  0  0  0  0
  1 13  1  0  0  0  0
  3 14  1  0  0  0  0
  3 15  1  0  0  0  0
  7 16  1  0  0  0  0
  7 17  1  0  0  0  0
  8 18  1  0  0  0  0
  9 19  1  0  0  0  0
  9 20  1  0  0  0  0
M  END
>  <InChIKey>
InChI=1S/C7H10O3/c1-5(2)7(8)10-4-6-3-9-6/h6H,1,3-4H2,2H3

>  <CASRN>
106-91-2  106-91-2

> <Outcome>
1

>  <Index>
3077

>  <StandardizerResult>
Clear Stereo (ID: ClearStereo)
Wedge Clean (ID: WedgeClean)
Mesomerize (ID: Mesomerize)
Tautomerize (ID: Tautomerize)
Add Explicit Hydrogens (ID: AddExplicitH)
Neutralize (ID: Neutralize)
Clean 2D (ID: Clean2D)

> <knn Distance>


> <CpId>
3077

$$$$
3083
  Mrv1532301301811342D          

 10  9  0  0  0  0            999 V2000
    2.0616   -0.7160    0.0000 C   0  0  0  0  0  0  0  0  0  0  0  0
    1.2366   -0.7160    0.0000 C   0  0  0  0  0  0  0  0  0  0  0  0
    0.8241   -1.4305    0.0000 O   0  0  0  0  0  0  0  0  0  0  0  0
    0.8241   -0.0015    0.0000 C   0  0  0  0  0  0  0  0  0  0  0  0
   -0.0009   -0.0015    0.0000 Br  0  0  0  0  0  0  0  0  0  0  0  0
    2.0616   -1.5410    0.0000 H   0  0  0  0  0  0  0  0  0  0  0  0
    2.8866   -0.7160    0.0000 H   0  0  0  0  0  0  0  0  0  0  0  0
    2.0616    0.1090    0.0000 H   0  0  0  0  0  0  0  0  0  0  0  0
    1.5134    0.4518    0.0000 H   0  0  0  0  0  0  0  0  0  0  0  0
    0.8721    0.8221    0.0000 H   0  0  0  0  0  0  0  0  0  0  0  0
  1  2  1  0  0  0  0
  2  3  2  0  0  0  0
  2  4  1  0  0  0  0
  4  5  1  0  0  0  0
  1  6  1  0  0  0  0
  1  7  1  0  0  0  0
  1  8  1  0  0  0  0
  4  9  1  0  0  0  0
  4 10  1  0  0  0  0
M  END
>  <InChIKey>
InChI=1S/C3H5BrO/c1-3(5)2-4/h2H2,1H3

>  <CASRN>
598-31-2

> <Outcome>
1

>  <Index>
3083

>  <StandardizerResult>
Clear Stereo (ID: ClearStereo)
Wedge Clean (ID: WedgeClean)
Mesomerize (ID: Mesomerize)
Tautomerize (ID: Tautomerize)
Add Explicit Hydrogens (ID: AddExplicitH)
Neutralize (ID: Neutralize)
Clean 2D (ID: Clean2D)

> <knn Distance>


> <CpId>
3083

$$$$
3084
  Mrv1532301301811342D          

 39 38  0  0  0  0            999 V2000
    5.4730    3.9849    0.0000 C   0  0  0  0  0  0  0  0  0  0  0  0
    6.1875    3.5724    0.0000 C   0  0  0  0  0  0  0  0  0  0  0  0
    6.9020    3.9849    0.0000 C   0  0  0  0  0  0  0  0  0  0  0  0
    7.6164    3.5724    0.0000 C   0  0  0  0  0  0  0  0  0  0  0  0
    8.3309    3.9849    0.0000 C   0  0  0  0  0  0  0  0  0  0  0  0
    9.0454    3.5724    0.0000 C   0  0  0  0  0  0  0  0  0  0  0  0
    9.7599    3.9849    0.0000 C   0  0  0  0  0  0  0  0  0  0  0  0
   10.4743    3.5724    0.0000 C   0  0  0  0  0  0  0  0  0  0  0  0
   11.1888    3.9849    0.0000 C   0  0  0  0  0  0  0  0  0  0  0  0
   11.9033    3.5724    0.0000 C   0  0  0  0  0  0  0  0  0  0  0  0
   12.6177    3.9849    0.0000 C   0  0  0  0  0  0  0  0  0  0  0  0
   13.3322    3.5724    0.0000 C   0  0  0  0  0  0  0  0  0  0  0  0
   14.0467    3.9849    0.0000 C   0  0  0  0  0  0  0  0  0  0  0  0
    5.8855    4.6994    0.0000 H   0  0  0  0  0  0  0  0  0  0  0  0
    4.7586    4.3974    0.0000 H   0  0  0  0  0  0  0  0  0  0  0  0
    5.0605    3.2704    0.0000 H   0  0  0  0  0  0  0  0  0  0  0  0
    5.8172    2.8352    0.0000 H   0  0  0  0  0  0  0  0  0  0  0  0
    6.5578    2.8352    0.0000 H   0  0  0  0  0  0  0  0  0  0  0  0
    7.2722    4.7221    0.0000 H   0  0  0  0  0  0  0  0  0  0  0  0
    6.5317    4.7221    0.0000 H   0  0  0  0  0  0  0  0  0  0  0  0
    7.2462    2.8352    0.0000 H   0  0  0  0  0  0  0  0  0  0  0  0
    7.9867    2.8352    0.0000 H   0  0  0  0  0  0  0  0  0  0  0  0
    8.7012    4.7221    0.0000 H   0  0  0  0  0  0  0  0  0  0  0  0
    7.9607    4.7221    0.0000 H   0  0  0  0  0  0  0  0  0  0  0  0
    8.6751    2.8352    0.0000 H   0  0  0  0  0  0  0  0  0  0  0  0
    9.4156    2.8352    0.0000 H   0  0  0  0  0  0  0  0  0  0  0  0
   10.1301    4.7221    0.0000 H   0  0  0  0  0  0  0  0  0  0  0  0
    9.3896    4.7221    0.0000 H   0  0  0  0  0  0  0  0  0  0  0  0
   10.1041    2.8352    0.0000 H   0  0  0  0  0  0  0  0  0  0  0  0
   10.8446    2.8352    0.0000 H   0  0  0  0  0  0  0  0  0  0  0  0
   11.5591    4.7221    0.0000 H   0  0  0  0  0  0  0  0  0  0  0  0
   10.8185    4.7221    0.0000 H   0  0  0  0  0  0  0  0  0  0  0  0
   11.5330    2.8352    0.0000 H   0  0  0  0  0  0  0  0  0  0  0  0
   12.2735    2.8352    0.0000 H   0  0  0  0  0  0  0  0  0  0  0  0
   12.9880    4.7221    0.0000 H   0  0  0  0  0  0  0  0  0  0  0  0
   12.2475    4.7221    0.0000 H   0  0  0  0  0  0  0  0  0  0  0  0
   13.3322    2.7474    0.0000 H   0  0  0  0  0  0  0  0  0  0  0  0
   14.7612    3.5724    0.0000 H   0  0  0  0  0  0  0  0  0  0  0  0
   14.0467    4.8099    0.0000 H   0  0  0  0  0  0  0  0  0  0  0  0
  1  2  1  0  0  0  0
  2  3  1  0  0  0  0
  3  4  1  0  0  0  0
  4  5  1  0  0  0  0
  5  6  1  0  0  0  0
  6  7  1  0  0  0  0
  7  8  1  0  0  0  0
  8  9  1  0  0  0  0
  9 10  1  0  0  0  0
 10 11  1  0  0  0  0
 11 12  1  0  0  0  0
 12 13  2  0  0  0  0
  1 14  1  0  0  0  0
  1 15  1  0  0  0  0
  1 16  1  0  0  0  0
  2 17  1  0  0  0  0
  2 18  1  0  0  0  0
  3 19  1  0  0  0  0
  3 20  1  0  0  0  0
  4 21  1  0  0  0  0
  4 22  1  0  0  0  0
  5 23  1  0  0  0  0
  5 24  1  0  0  0  0
  6 25  1  0  0  0  0
  6 26  1  0  0  0  0
  7 27  1  0  0  0  0
  7 28  1  0  0  0  0
  8 29  1  0  0  0  0
  8 30  1  0  0  0  0
  9 31  1  0  0  0  0
  9 32  1  0  0  0  0
 10 33  1  0  0  0  0
 10 34  1  0  0  0  0
 11 35  1  0  0  0  0
 11 36  1  0  0  0  0
 12 37  1  0  0  0  0
 13 38  1  0  0  0  0
 13 39  1  0  0  0  0
M  END
>  <InChIKey>
InChI=1S/C13H26/c1-3-5-7-9-11-13-12-10-8-6-4-2/h3H,1,4-13H2,2H3

>  <CASRN>
2437-56-1

> <Outcome>
1

>  <Index>
3084

>  <StandardizerResult>
Clear Stereo (ID: ClearStereo)
Wedge Clean (ID: WedgeClean)
Mesomerize (ID: Mesomerize)
Tautomerize (ID: Tautomerize)
Add Explicit Hydrogens (ID: AddExplicitH)
Neutralize (ID: Neutralize)
Clean 2D (ID: Clean2D)

> <knn Distance>


> <CpId>
3084

$$$$
3090
  Mrv1532301301811342D          

 25 25  0  0  0  0            999 V2000
    0.0006    4.1254    0.0000 C   0  0  0  0  0  0  0  0  0  0  0  0
    0.0006    3.3004    0.0000 C   0  0  0  0  0  0  0  0  0  0  0  0
    0.7151    2.8879    0.0000 O   0  0  0  0  0  0  0  0  0  0  0  0
    0.7151    2.0629    0.0000 S   0  0  0  0  0  0  0  0  0  0  0  0
   -0.1099    2.0629    0.0000 O   0  0  0  0  0  0  0  0  0  0  0  0
    1.5401    2.0629    0.0000 O   0  0  0  0  0  0  0  0  0  0  0  0
    0.7151    1.2379    0.0000 C   0  0  0  0  0  0  0  0  0  0  0  0
    1.4296    0.8254    0.0000 C   0  0  0  0  0  0  0  0  0  0  0  0
    1.4296    0.0004    0.0000 C   0  0  0  0  0  0  0  0  0  0  0  0
    0.7151   -0.4121    0.0000 C   0  0  0  0  0  0  0  0  0  0  0  0
    0.7151   -1.2371    0.0000 C   0  0  0  0  0  0  0  0  0  0  0  0
    0.0006    0.0004    0.0000 C   0  0  0  0  0  0  0  0  0  0  0  0
    0.0006    0.8254    0.0000 C   0  0  0  0  0  0  0  0  0  0  0  0
    0.8256    4.1254    0.0000 H   0  0  0  0  0  0  0  0  0  0  0  0
    0.0006    4.9504    0.0000 H   0  0  0  0  0  0  0  0  0  0  0  0
   -0.8244    4.1254    0.0000 H   0  0  0  0  0  0  0  0  0  0  0  0
   -0.8230    3.2524    0.0000 H   0  0  0  0  0  0  0  0  0  0  0  0
   -0.4527    2.6111    0.0000 H   0  0  0  0  0  0  0  0  0  0  0  0
    2.1440    1.2379    0.0000 H   0  0  0  0  0  0  0  0  0  0  0  0
    2.1440   -0.4121    0.0000 H   0  0  0  0  0  0  0  0  0  0  0  0
   -0.1099   -1.2371    0.0000 H   0  0  0  0  0  0  0  0  0  0  0  0
    0.7151   -2.0621    0.0000 H   0  0  0  0  0  0  0  0  0  0  0  0
    1.5401   -1.2371    0.0000 H   0  0  0  0  0  0  0  0  0  0  0  0
   -0.7139   -0.4121    0.0000 H   0  0  0  0  0  0  0  0  0  0  0  0
   -0.7139    1.2379    0.0000 H   0  0  0  0  0  0  0  0  0  0  0  0
  1  2  1  0  0  0  0
  2  3  1  0  0  0  0
  3  4  1  0  0  0  0
  4  5  2  0  0  0  0
  4  6  2  0  0  0  0
  4  7  1  0  0  0  0
  7  8  4  0  0  0  0
  8  9  4  0  0  0  0
  9 10  4  0  0  0  0
 10 11  1  0  0  0  0
 10 12  4  0  0  0  0
 12 13  4  0  0  0  0
  7 13  4  0  0  0  0
  1 14  1  0  0  0  0
  1 15  1  0  0  0  0
  1 16  1  0  0  0  0
  2 17  1  0  0  0  0
  2 18  1  0  0  0  0
  8 19  1  0  0  0  0
  9 20  1  0  0  0  0
 11 21  1  0  0  0  0
 11 22  1  0  0  0  0
 11 23  1  0  0  0  0
 12 24  1  0  0  0  0
 13 25  1  0  0  0  0
M  END
>  <InChIKey>
InChI=1S/C9H12O3S/c1-3-12-13(10,11)9-6-4-8(2)5-7-9/h4-7H,3H2,1-2H3

>  <CASRN>
80-40-0

> <Outcome>
1

>  <Index>
3090

>  <StandardizerResult>
Dearomatize (ID: Dearomatize)
Clear Stereo (ID: ClearStereo)
Wedge Clean (ID: WedgeClean)
Mesomerize (ID: Mesomerize)
Tautomerize (ID: Tautomerize)
Aromatize (ID: Aromatize)
Add Explicit Hydrogens (ID: AddExplicitH)
Neutralize (ID: Neutralize)
Clean 2D (ID: Clean2D)

> <knn Distance>


> <CpId>
3090

$$$$
3098
  Mrv1532301301811342D          

 38 38  0  0  0  0            999 V2000
    0.6804   -1.2210    0.0000 C   0  0  0  0  0  0  0  0  0  0  0  0
    0.6804   -2.0460    0.0000 C   0  0  0  0  0  0  0  0  0  0  0  0
    1.3949   -2.4585    0.0000 O   0  0  0  0  0  0  0  0  0  0  0  0
    1.3949   -3.2835    0.0000 C   0  0  0  0  0  0  0  0  0  0  0  0
    2.1094   -3.6960    0.0000 N   0  0  0  0  0  0  0  0  0  0  0  0
    2.8238   -3.2835    0.0000 C   0  0  0  0  0  0  0  0  0  0  0  0
    3.5383   -3.6960    0.0000 O   0  0  0  0  0  0  0  0  0  0  0  0
    2.8238   -2.4585    0.0000 C   0  0  0  0  0  0  0  0  0  0  0  0
    3.5383   -2.0460    0.0000 Cl  0  0  0  0  0  0  0  0  0  0  0  0
    2.1094   -4.5210    0.0000 C   0  0  0  0  0  0  0  0  0  0  0  0
    2.8238   -4.9335    0.0000 C   0  0  0  0  0  0  0  0  0  0  0  0
    3.5383   -4.5210    0.0000 C   0  0  0  0  0  0  0  0  0  0  0  0
    2.8238   -5.7585    0.0000 C   0  0  0  0  0  0  0  0  0  0  0  0
    2.1094   -6.1710    0.0000 C   0  0  0  0  0  0  0  0  0  0  0  0
    1.3949   -5.7585    0.0000 C   0  0  0  0  0  0  0  0  0  0  0  0
    1.3949   -4.9335    0.0000 C   0  0  0  0  0  0  0  0  0  0  0  0
    0.6804   -4.5210    0.0000 C   0  0  0  0  0  0  0  0  0  0  0  0
    0.6804   -3.6960    0.0000 C   0  0  0  0  0  0  0  0  0  0  0  0
    1.5054   -1.2210    0.0000 H   0  0  0  0  0  0  0  0  0  0  0  0
    0.6804   -0.3960    0.0000 H   0  0  0  0  0  0  0  0  0  0  0  0
   -0.1446   -1.2210    0.0000 H   0  0  0  0  0  0  0  0  0  0  0  0
   -0.1432   -2.0940    0.0000 H   0  0  0  0  0  0  0  0  0  0  0  0
    0.2271   -2.7353    0.0000 H   0  0  0  0  0  0  0  0  0  0  0  0
    0.6804   -2.8710    0.0000 H   0  0  0  0  0  0  0  0  0  0  0  0
    2.1094   -2.8710    0.0000 H   0  0  0  0  0  0  0  0  0  0  0  0
    2.6806   -1.6460    0.0000 H   0  0  0  0  0  0  0  0  0  0  0  0
    2.1919   -1.9282    0.0000 H   0  0  0  0  0  0  0  0  0  0  0  0
    3.5383   -5.3460    0.0000 H   0  0  0  0  0  0  0  0  0  0  0  0
    4.2528   -4.9335    0.0000 H   0  0  0  0  0  0  0  0  0  0  0  0
    4.2528   -4.1085    0.0000 H   0  0  0  0  0  0  0  0  0  0  0  0
    3.2363   -6.4730    0.0000 H   0  0  0  0  0  0  0  0  0  0  0  0
    2.1094   -6.9960    0.0000 H   0  0  0  0  0  0  0  0  0  0  0  0
    0.6804   -6.1710    0.0000 H   0  0  0  0  0  0  0  0  0  0  0  0
   -0.1432   -4.5690    0.0000 H   0  0  0  0  0  0  0  0  0  0  0  0
    0.2271   -5.2103    0.0000 H   0  0  0  0  0  0  0  0  0  0  0  0
   -0.0948   -3.4138    0.0000 H   0  0  0  0  0  0  0  0  0  0  0  0
   -0.0948   -3.9782    0.0000 H   0  0  0  0  0  0  0  0  0  0  0  0
    1.3949   -4.1085    0.0000 H   0  0  0  0  0  0  0  0  0  0  0  0
  1  2  1  0  0  0  0
  2  3  1  0  0  0  0
  3  4  1  0  0  0  0
  4  5  1  0  0  0  0
  5  6  1  0  0  0  0
  6  7  2  0  0  0  0
  6  8  1  0  0  0  0
  8  9  1  0  0  0  0
  5 10  1  0  0  0  0
 10 11  4  0  0  0  0
 11 12  1  0  0  0  0
 11 13  4  0  0  0  0
 13 14  4  0  0  0  0
 14 15  4  0  0  0  0
 15 16  4  0  0  0  0
 10 16  4  0  0  0  0
 16 17  1  0  0  0  0
 17 18  1  0  0  0  0
  1 19  1  0  0  0  0
  1 20  1  0  0  0  0
  1 21  1  0  0  0  0
  2 22  1  0  0  0  0
  2 23  1  0  0  0  0
  4 24  1  0  0  0  0
  4 25  1  0  0  0  0
  8 26  1  0  0  0  0
  8 27  1  0  0  0  0
 12 28  1  0  0  0  0
 12 29  1  0  0  0  0
 12 30  1  0  0  0  0
 13 31  1  0  0  0  0
 14 32  1  0  0  0  0
 15 33  1  0  0  0  0
 17 34  1  0  0  0  0
 17 35  1  0  0  0  0
 18 36  1  0  0  0  0
 18 37  1  0  0  0  0
 18 38  1  0  0  0  0
M  END
>  <InChIKey>
InChI=1S/C14H20ClNO2/c1-4-12-8-6-7-11(3)14(12)16(10-18-5-2)13(17)9-15/h6-8H,4-5,9-10H2,1-3H3

>  <CASRN>
34256-82-1

> <Outcome>
1

>  <Index>
3098

>  <StandardizerResult>
Dearomatize (ID: Dearomatize)
Clear Stereo (ID: ClearStereo)
Wedge Clean (ID: WedgeClean)
Mesomerize (ID: Mesomerize)
Tautomerize (ID: Tautomerize)
Aromatize (ID: Aromatize)
Add Explicit Hydrogens (ID: AddExplicitH)
Neutralize (ID: Neutralize)
Clean 2D (ID: Clean2D)

> <knn Distance>


> <CpId>
3098

$$$$
3100
  Mrv1532301301811342D          

 20 19  0  0  0  0            999 V2000
    1.2645    2.2401    0.0000 C   0  0  0  0  0  0  0  0  0  0  0  0
    1.6770    1.5257    0.0000 C   0  0  0  0  0  0  0  0  0  0  0  0
    1.2645    0.8112    0.0000 C   0  0  0  0  0  0  0  0  0  0  0  0
    0.5501    1.2237    0.0000 C   0  0  0  0  0  0  0  0  0  0  0  0
    1.9790    0.3987    0.0000 C   0  0  0  0  0  0  0  0  0  0  0  0
    0.8520    0.0967    0.0000 C   0  0  0  0  0  0  0  0  0  0  0  0
    1.2645   -0.6178    0.0000 O   0  0  0  0  0  0  0  0  0  0  0  0
    0.0270    0.0967    0.0000 O   0  0  0  0  0  0  0  0  0  0  0  0
    1.9790    2.6526    0.0000 H   0  0  0  0  0  0  0  0  0  0  0  0
    0.8520    2.9546    0.0000 H   0  0  0  0  0  0  0  0  0  0  0  0
    0.5501    1.8276    0.0000 H   0  0  0  0  0  0  0  0  0  0  0  0
    2.4143    1.1554    0.0000 H   0  0  0  0  0  0  0  0  0  0  0  0
    2.4143    1.8959    0.0000 H   0  0  0  0  0  0  0  0  0  0  0  0
   -0.1644    1.6362    0.0000 H   0  0  0  0  0  0  0  0  0  0  0  0
   -0.1644    0.8112    0.0000 H   0  0  0  0  0  0  0  0  0  0  0  0
    0.5501    0.3987    0.0000 H   0  0  0  0  0  0  0  0  0  0  0  0
    1.3247   -0.1038    0.0000 H   0  0  0  0  0  0  0  0  0  0  0  0
    2.1932   -0.3980    0.0000 H   0  0  0  0  0  0  0  0  0  0  0  0
    2.7971    0.2920    0.0000 H   0  0  0  0  0  0  0  0  0  0  0  0
    0.9376   -1.3752    0.0000 H   0  0  0  0  0  0  0  0  0  0  0  0
  1  2  1  0  0  0  0
  2  3  1  0  0  0  0
  3  4  1  0  0  0  0
  3  5  1  0  0  0  0
  3  6  1  0  0  0  0
  6  7  1  0  0  0  0
  6  8  2  0  0  0  0
  1  9  1  0  0  0  0
  1 10  1  0  0  0  0
  1 11  1  0  0  0  0
  2 12  1  0  0  0  0
  2 13  1  0  0  0  0
  4 14  1  0  0  0  0
  4 15  1  0  0  0  0
  4 16  1  0  0  0  0
  5 17  1  0  0  0  0
  5 18  1  0  0  0  0
  5 19  1  0  0  0  0
  7 20  1  0  0  0  0
M  END
>  <InChIKey>
InChI=1S/C6H12O2/c1-4-6(2,3)5(7)8/h4H2,1-3H3,(H,7,8)

>  <CASRN>
595-37-9  595-37-9

> <Outcome>
1

>  <Index>
3100

>  <StandardizerResult>
Clear Stereo (ID: ClearStereo)
Wedge Clean (ID: WedgeClean)
Mesomerize (ID: Mesomerize)
Tautomerize (ID: Tautomerize)
Add Explicit Hydrogens (ID: AddExplicitH)
Neutralize (ID: Neutralize)
Clean 2D (ID: Clean2D)

> <knn Distance>


> <CpId>
3100

$$$$
3102
  Mrv1532301301811342D          

 11 11  0  0  0  0            999 V2000
   -0.3297   -0.8227    0.0000 Cl  0  0  0  0  0  0  0  0  0  0  0  0
    0.1553   -0.1553    0.0000 C   0  0  0  0  0  0  0  0  0  0  0  0
   -0.0997    0.6294    0.0000 C   0  0  0  0  0  0  0  0  0  0  0  0
   -0.8843    0.8843    0.0000 Cl  0  0  0  0  0  0  0  0  0  0  0  0
    0.5678    1.1143    0.0000 C   0  0  0  0  0  0  0  0  0  0  0  0
    0.0157    1.7274    0.0000 Cl  0  0  0  0  0  0  0  0  0  0  0  0
    1.1198    1.7274    0.0000 Cl  0  0  0  0  0  0  0  0  0  0  0  0
    1.2352    0.6294    0.0000 C   0  0  0  0  0  0  0  0  0  0  0  0
    2.0198    0.8843    0.0000 Cl  0  0  0  0  0  0  0  0  0  0  0  0
    0.9803   -0.1553    0.0000 C   0  0  0  0  0  0  0  0  0  0  0  0
    1.4652   -0.8227    0.0000 Cl  0  0  0  0  0  0  0  0  0  0  0  0
  1  2  1  0  0  0  0
  2  3  2  0  0  0  0
  3  4  1  0  0  0  0
  3  5  1  0  0  0  0
  5  6  1  0  0  0  0
  5  7  1  0  0  0  0
  5  8  1  0  0  0  0
  8  9  1  0  0  0  0
  8 10  2  0  0  0  0
  2 10  1  0  0  0  0
 10 11  1  0  0  0  0
M  END
>  <InChIKey>
InChI=1S/C5Cl6/c6-1-2(7)4(9)5(10,11)3(1)8

>  <CASRN>
77-47-4

> <Outcome>
1

>  <Index>
3102

>  <StandardizerResult>
Clear Stereo (ID: ClearStereo)
Wedge Clean (ID: WedgeClean)
Mesomerize (ID: Mesomerize)
Tautomerize (ID: Tautomerize)
Clean 2D (ID: Clean2D)

> <knn Distance>


> <CpId>
3102

$$$$
3107
  Mrv1532301301811342D          

 15 14  0  0  0  0            999 V2000
    1.2375    2.1434    0.0000 C   0  0  0  0  0  0  0  0  0  0  0  0
    0.8250    1.4289    0.0000 O   0  0  0  0  0  0  0  0  0  0  0  0
    1.2375    0.7145    0.0000 C   0  0  0  0  0  0  0  0  0  0  0  0
    2.0625    0.7145    0.0000 O   0  0  0  0  0  0  0  0  0  0  0  0
    0.8250   -0.0000    0.0000 C   0  0  0  0  0  0  0  0  0  0  0  0
    1.2375   -0.7145    0.0000 C   0  0  0  0  0  0  0  0  0  0  0  0
   -0.0000   -0.0000    0.0000 C   0  0  0  0  0  0  0  0  0  0  0  0
    1.9520    1.7309    0.0000 H   0  0  0  0  0  0  0  0  0  0  0  0
    1.6500    2.8579    0.0000 H   0  0  0  0  0  0  0  0  0  0  0  0
    0.5230    2.5559    0.0000 H   0  0  0  0  0  0  0  0  0  0  0  0
    0.5230   -1.1270    0.0000 H   0  0  0  0  0  0  0  0  0  0  0  0
    1.6500   -1.4290    0.0000 H   0  0  0  0  0  0  0  0  0  0  0  0
    1.9520   -0.3020    0.0000 H   0  0  0  0  0  0  0  0  0  0  0  0
   -0.4125    0.7145    0.0000 H   0  0  0  0  0  0  0  0  0  0  0  0
   -0.4125   -0.7145    0.0000 H   0  0  0  0  0  0  0  0  0  0  0  0
  1  2  1  0  0  0  0
  2  3  1  0  0  0  0
  3  4  2  0  0  0  0
  3  5  1  0  0  0  0
  5  6  1  0  0  0  0
  5  7  2  0  0  0  0
  1  8  1  0  0  0  0
  1  9  1  0  0  0  0
  1 10  1  0  0  0  0
  6 11  1  0  0  0  0
  6 12  1  0  0  0  0
  6 13  1  0  0  0  0
  7 14  1  0  0  0  0
  7 15  1  0  0  0  0
M  END
>  <InChIKey>
InChI=1S/C5H8O2/c1-4(2)5(6)7-3/h1H2,2-3H3

>  <CASRN>
80-62-6

> <Outcome>
1

>  <Index>
3107

>  <StandardizerResult>
Clear Stereo (ID: ClearStereo)
Wedge Clean (ID: WedgeClean)
Mesomerize (ID: Mesomerize)
Tautomerize (ID: Tautomerize)
Add Explicit Hydrogens (ID: AddExplicitH)
Neutralize (ID: Neutralize)
Clean 2D (ID: Clean2D)

> <knn Distance>


> <CpId>
3107

$$$$
3119
  Mrv1532301301811342D          

 26 26  0  0  0  0            999 V2000
   -0.0241   -2.4650    0.0000 C   0  0  0  0  0  0  0  0  0  0  0  0
    0.6904   -2.8775    0.0000 C   0  0  0  0  0  0  0  0  0  0  0  0
    0.6904   -3.7025    0.0000 C   0  0  0  0  0  0  0  0  0  0  0  0
    1.4049   -2.4650    0.0000 O   0  0  0  0  0  0  0  0  0  0  0  0
    2.1193   -2.8775    0.0000 C   0  0  0  0  0  0  0  0  0  0  0  0
    2.1193   -3.7025    0.0000 O   0  0  0  0  0  0  0  0  0  0  0  0
    2.8338   -2.4650    0.0000 N   0  0  0  0  0  0  0  0  0  0  0  0
    3.5483   -2.8775    0.0000 C   0  0  0  0  0  0  0  0  0  0  0  0
    4.2628   -2.4650    0.0000 C   0  0  0  0  0  0  0  0  0  0  0  0
    4.9772   -2.8775    0.0000 C   0  0  0  0  0  0  0  0  0  0  0  0
    4.9772   -3.7025    0.0000 C   0  0  0  0  0  0  0  0  0  0  0  0
    4.2628   -4.1150    0.0000 C   0  0  0  0  0  0  0  0  0  0  0  0
    3.5483   -3.7025    0.0000 C   0  0  0  0  0  0  0  0  0  0  0  0
    0.3884   -1.7506    0.0000 H   0  0  0  0  0  0  0  0  0  0  0  0
   -0.7385   -2.0525    0.0000 H   0  0  0  0  0  0  0  0  0  0  0  0
   -0.4366   -3.1795    0.0000 H   0  0  0  0  0  0  0  0  0  0  0  0
   -0.0241   -3.2900    0.0000 H   0  0  0  0  0  0  0  0  0  0  0  0
    0.1070   -4.2859    0.0000 H   0  0  0  0  0  0  0  0  0  0  0  0
    1.1029   -4.4170    0.0000 H   0  0  0  0  0  0  0  0  0  0  0  0
    1.4873   -3.4890    0.0000 H   0  0  0  0  0  0  0  0  0  0  0  0
    2.8338   -1.6400    0.0000 H   0  0  0  0  0  0  0  0  0  0  0  0
    4.2628   -1.6400    0.0000 H   0  0  0  0  0  0  0  0  0  0  0  0
    5.6917   -2.4650    0.0000 H   0  0  0  0  0  0  0  0  0  0  0  0
    5.6917   -4.1150    0.0000 H   0  0  0  0  0  0  0  0  0  0  0  0
    4.2628   -4.9400    0.0000 H   0  0  0  0  0  0  0  0  0  0  0  0
    2.8338   -4.1150    0.0000 H   0  0  0  0  0  0  0  0  0  0  0  0
  1  2  1  0  0  0  0
  2  3  1  0  0  0  0
  2  4  1  0  0  0  0
  4  5  1  0  0  0  0
  5  6  2  0  0  0  0
  5  7  1  0  0  0  0
  7  8  1  0  0  0  0
  8  9  4  0  0  0  0
  9 10  4  0  0  0  0
 10 11  4  0  0  0  0
 11 12  4  0  0  0  0
 12 13  4  0  0  0  0
  8 13  4  0  0  0  0
  1 14  1  0  0  0  0
  1 15  1  0  0  0  0
  1 16  1  0  0  0  0
  2 17  1  0  0  0  0
  3 18  1  0  0  0  0
  3 19  1  0  0  0  0
  3 20  1  0  0  0  0
  7 21  1  0  0  0  0
  9 22  1  0  0  0  0
 10 23  1  0  0  0  0
 11 24  1  0  0  0  0
 12 25  1  0  0  0  0
 13 26  1  0  0  0  0
M  END
>  <InChIKey>
InChI=1S/C10H13NO2/c1-8(2)13-10(12)11-9-6-4-3-5-7-9/h3-8H,1-2H3,(H,11,12)

>  <CASRN>
122-42-9

> <Outcome>
1

>  <Index>
3119

>  <StandardizerResult>
Dearomatize (ID: Dearomatize)
Clear Stereo (ID: ClearStereo)
Wedge Clean (ID: WedgeClean)
Mesomerize (ID: Mesomerize)
Tautomerize (ID: Tautomerize)
Aromatize (ID: Aromatize)
Add Explicit Hydrogens (ID: AddExplicitH)
Neutralize (ID: Neutralize)
Clean 2D (ID: Clean2D)

> <knn Distance>


> <CpId>
3119

$$$$
3124
  Mrv1532301301811342D          

 16 16  0  0  0  0            999 V2000
    0.7145    2.0625    0.0000 Cl  0  0  0  0  0  0  0  0  0  0  0  0
    0.7145    1.2375    0.0000 C   0  0  0  0  0  0  0  0  0  0  0  0
    1.4289    0.8250    0.0000 C   0  0  0  0  0  0  0  0  0  0  0  0
    1.4289   -0.0000    0.0000 C   0  0  0  0  0  0  0  0  0  0  0  0
    0.7145   -0.4125    0.0000 C   0  0  0  0  0  0  0  0  0  0  0  0
   -0.0000   -0.0000    0.0000 C   0  0  0  0  0  0  0  0  0  0  0  0
   -0.0000    0.8250    0.0000 C   0  0  0  0  0  0  0  0  0  0  0  0
   -0.7145    1.2375    0.0000 N   0  0  0  0  0  0  0  0  0  0  0  0
   -0.7145    2.0625    0.0000 O   0  0  0  0  0  0  0  0  0  0  0  0
   -1.4289    0.8250    0.0000 O   0  0  0  0  0  0  0  0  0  0  0  0
    0.7145   -1.2375    0.0000 N   0  0  0  0  0  0  0  0  0  0  0  0
    1.4289   -1.6500    0.0000 O   0  0  0  0  0  0  0  0  0  0  0  0
   -0.0000   -1.6500    0.0000 O   0  0  0  0  0  0  0  0  0  0  0  0
    2.1434    1.2375    0.0000 H   0  0  0  0  0  0  0  0  0  0  0  0
    2.1434   -0.4125    0.0000 H   0  0  0  0  0  0  0  0  0  0  0  0
   -0.7145   -0.4125    0.0000 H   0  0  0  0  0  0  0  0  0  0  0  0
  1  2  1  0  0  0  0
  2  3  4  0  0  0  0
  3  4  4  0  0  0  0
  4  5  4  0  0  0  0
  5  6  4  0  0  0  0
  6  7  4  0  0  0  0
  2  7  4  0  0  0  0
  7  8  1  0  0  0  0
  8  9  2  0  0  0  0
  8 10  2  0  0  0  0
  5 11  1  0  0  0  0
 11 12  2  0  0  0  0
 11 13  2  0  0  0  0
  3 14  1  0  0  0  0
  4 15  1  0  0  0  0
  6 16  1  0  0  0  0
M  END
>  <InChIKey>
InChI=1S/C6H3ClN2O4/c7-5-2-1-4(8(10)11)3-6(5)9(12)13/h1-3H

>  <CASRN>
97-00-7

> <Outcome>
1

>  <Index>
3124

>  <StandardizerResult>
Dearomatize (ID: Dearomatize)
Clear Stereo (ID: ClearStereo)
Wedge Clean (ID: WedgeClean)
Mesomerize (ID: Mesomerize)
Tautomerize (ID: Tautomerize)
Aromatize (ID: Aromatize)
Add Explicit Hydrogens (ID: AddExplicitH)
Neutralize (ID: Neutralize)
Clean 2D (ID: Clean2D)

> <knn Distance>


> <CpId>
3124

$$$$
3125
  Mrv1532301301811342D          

 21 21  0  0  0  0            999 V2000
    0.7145    2.0625    0.0000 C   0  0  0  0  0  0  0  0  0  0  0  0
    0.7145    1.2375    0.0000 C   0  0  0  0  0  0  0  0  0  0  0  0
    1.4289    0.8250    0.0000 C   0  0  0  0  0  0  0  0  0  0  0  0
    1.4289   -0.0000    0.0000 C   0  0  0  0  0  0  0  0  0  0  0  0
    2.1434   -0.4125    0.0000 N   0  0  0  0  0  0  0  0  0  0  0  0
    0.7145   -0.4125    0.0000 C   0  0  0  0  0  0  0  0  0  0  0  0
    0.0000   -0.0000    0.0000 C   0  0  0  0  0  0  0  0  0  0  0  0
    0.0000    0.8250    0.0000 C   0  0  0  0  0  0  0  0  0  0  0  0
   -0.7145    1.2375    0.0000 Cl  0  0  0  0  0  0  0  0  0  0  0  0
    0.7145   -1.2375    0.0000 S   0  0  0  0  0  0  0  0  0  0  0  0
    0.7145   -2.0625    0.0000 O   0  0  0  0  0  0  0  0  0  0  0  0
   -0.1105   -1.2375    0.0000 O   0  0  0  0  0  0  0  0  0  0  0  0
    1.5395   -1.2375    0.0000 O   0  0  0  0  0  0  0  0  0  0  0  0
    1.5395    2.0625    0.0000 H   0  0  0  0  0  0  0  0  0  0  0  0
    0.7145    2.8875    0.0000 H   0  0  0  0  0  0  0  0  0  0  0  0
   -0.1105    2.0625    0.0000 H   0  0  0  0  0  0  0  0  0  0  0  0
    2.1434    1.2375    0.0000 H   0  0  0  0  0  0  0  0  0  0  0  0
    2.1434   -1.2375    0.0000 H   0  0  0  0  0  0  0  0  0  0  0  0
    2.8579   -0.0000    0.0000 H   0  0  0  0  0  0  0  0  0  0  0  0
   -0.7145   -0.4125    0.0000 H   0  0  0  0  0  0  0  0  0  0  0  0
    0.0000   -2.4750    0.0000 H   0  0  0  0  0  0  0  0  0  0  0  0
  1  2  1  0  0  0  0
  2  3  4  0  0  0  0
  3  4  4  0  0  0  0
  4  5  1  0  0  0  0
  4  6  4  0  0  0  0
  6  7  4  0  0  0  0
  7  8  4  0  0  0  0
  2  8  4  0  0  0  0
  8  9  1  0  0  0  0
  6 10  1  0  0  0  0
 10 11  1  0  0  0  0
 10 12  2  0  0  0  0
 10 13  2  0  0  0  0
  1 14  1  0  0  0  0
  1 15  1  0  0  0  0
  1 16  1  0  0  0  0
  3 17  1  0  0  0  0
  5 18  1  0  0  0  0
  5 19  1  0  0  0  0
  7 20  1  0  0  0  0
 11 21  1  0  0  0  0
M  END
>  <InChIKey>
InChI=1S/C7H8ClNO3S/c1-4-2-6(9)7(3-5(4)8)13(10,11)12/h2-3H,9H2,1H3,(H,10,11,12)

>  <CASRN>
88-53-9

> <Outcome>
1

>  <Index>
3125

>  <StandardizerResult>
Dearomatize (ID: Dearomatize)
Clear Stereo (ID: ClearStereo)
Wedge Clean (ID: WedgeClean)
Mesomerize (ID: Mesomerize)
Tautomerize (ID: Tautomerize)
Aromatize (ID: Aromatize)
Add Explicit Hydrogens (ID: AddExplicitH)
Neutralize (ID: Neutralize)
Clean 2D (ID: Clean2D)

> <knn Distance>


> <CpId>
3125

$$$$
3126
  Mrv1532301301811342D          

  5  4  0  0  0  0            999 V2000
    0.8250   -0.8250    0.0000 Cl  0  0  0  0  0  0  0  0  0  0  0  0
    0.8250    0.0000    0.0000 C   0  0  0  0  0  0  0  0  0  0  0  0
    0.8250    0.8250    0.0000 Cl  0  0  0  0  0  0  0  0  0  0  0  0
    1.6500   -0.0000    0.0000 Cl  0  0  0  0  0  0  0  0  0  0  0  0
    0.0000    0.0000    0.0000 Cl  0  0  0  0  0  0  0  0  0  0  0  0
  1  2  1  0  0  0  0
  2  3  1  0  0  0  0
  2  4  1  0  0  0  0
  2  5  1  0  0  0  0
M  END
>  <InChIKey>
InChI=1S/CCl4/c2-1(3,4)5

>  <CASRN>
56-23-5

> <Outcome>
1

>  <Index>
3126

>  <StandardizerResult>
Clear Stereo (ID: ClearStereo)
Wedge Clean (ID: WedgeClean)
Mesomerize (ID: Mesomerize)
Tautomerize (ID: Tautomerize)
Clean 2D (ID: Clean2D)

> <knn Distance>


> <CpId>
3126

$$$$
3134
  Mrv1532301301811342D          

 22 24  0  0  0  0            999 V2000
    0.7145   -1.2375    0.0000 Cl  0  0  0  0  0  0  0  0  0  0  0  0
    1.4289   -1.6500    0.0000 C   0  0  0  0  0  0  0  0  0  0  0  0
    2.1434   -1.2375    0.0000 C   0  0  0  0  0  0  0  0  0  0  0  0
    2.8579   -1.6500    0.0000 C   0  0  0  0  0  0  0  0  0  0  0  0
    3.5724   -1.2375    0.0000 O   0  0  0  0  0  0  0  0  0  0  0  0
    4.2868   -1.6500    0.0000 C   0  0  0  0  0  0  0  0  0  0  0  0
    5.0013   -1.2375    0.0000 C   0  0  0  0  0  0  0  0  0  0  0  0
    5.0013   -0.4125    0.0000 Cl  0  0  0  0  0  0  0  0  0  0  0  0
    5.7158   -1.6500    0.0000 C   0  0  0  0  0  0  0  0  0  0  0  0
    6.4302   -1.2375    0.0000 Cl  0  0  0  0  0  0  0  0  0  0  0  0
    5.7158   -2.4750    0.0000 C   0  0  0  0  0  0  0  0  0  0  0  0
    6.4302   -2.8875    0.0000 Cl  0  0  0  0  0  0  0  0  0  0  0  0
    5.0013   -2.8875    0.0000 C   0  0  0  0  0  0  0  0  0  0  0  0
    5.0013   -3.7125    0.0000 Cl  0  0  0  0  0  0  0  0  0  0  0  0
    4.2868   -2.4750    0.0000 C   0  0  0  0  0  0  0  0  0  0  0  0
    3.5724   -2.8875    0.0000 O   0  0  0  0  0  0  0  0  0  0  0  0
    2.8579   -2.4750    0.0000 C   0  0  0  0  0  0  0  0  0  0  0  0
    2.1434   -2.8875    0.0000 C   0  0  0  0  0  0  0  0  0  0  0  0
    2.1434   -3.7125    0.0000 Cl  0  0  0  0  0  0  0  0  0  0  0  0
    1.4289   -2.4750    0.0000 C   0  0  0  0  0  0  0  0  0  0  0  0
    0.7145   -2.8875    0.0000 Cl  0  0  0  0  0  0  0  0  0  0  0  0
    2.1434   -0.4125    0.0000 H   0  0  0  0  0  0  0  0  0  0  0  0
  1  2  1  0  0  0  0
  2  3  4  0  0  0  0
  3  4  4  0  0  0  0
  4  5  1  0  0  0  0
  5  6  1  0  0  0  0
  6  7  4  0  0  0  0
  7  8  1  0  0  0  0
  7  9  4  0  0  0  0
  9 10  1  0  0  0  0
  9 11  4  0  0  0  0
 11 12  1  0  0  0  0
 11 13  4  0  0  0  0
 13 14  1  0  0  0  0
 13 15  4  0  0  0  0
  6 15  4  0  0  0  0
 15 16  1  0  0  0  0
 16 17  1  0  0  0  0
  4 17  4  0  0  0  0
 17 18  4  0  0  0  0
 18 19  1  0  0  0  0
 18 20  4  0  0  0  0
  2 20  4  0  0  0  0
 20 21  1  0  0  0  0
  3 22  1  0  0  0  0
M  END
>  <InChIKey>
InChI=1S/C12HCl7O2/c13-2-1-3-10(7(17)4(2)14)21-12-9(19)6(16)5(15)8(18)11(12)20-3/h1H

>  <CASRN>
35822-46-9

> <Outcome>
1

>  <Index>
3134

>  <StandardizerResult>
Dearomatize (ID: Dearomatize)
Clear Stereo (ID: ClearStereo)
Wedge Clean (ID: WedgeClean)
Mesomerize (ID: Mesomerize)
Tautomerize (ID: Tautomerize)
Aromatize (ID: Aromatize)
Add Explicit Hydrogens (ID: AddExplicitH)
Neutralize (ID: Neutralize)
Clean 2D (ID: Clean2D)

> <knn Distance>


> <CpId>
3134

$$$$
3135
  Mrv1532301301811342D          

 22 24  0  0  0  0            999 V2000
    0.7145   -1.2375    0.0000 Cl  0  0  0  0  0  0  0  0  0  0  0  0
    1.4289   -1.6500    0.0000 C   0  0  0  0  0  0  0  0  0  0  0  0
    2.1434   -1.2375    0.0000 C   0  0  0  0  0  0  0  0  0  0  0  0
    2.8579   -1.6500    0.0000 C   0  0  0  0  0  0  0  0  0  0  0  0
    3.5724   -1.2375    0.0000 O   0  0  0  0  0  0  0  0  0  0  0  0
    4.2868   -1.6500    0.0000 C   0  0  0  0  0  0  0  0  0  0  0  0
    5.0013   -1.2375    0.0000 C   0  0  0  0  0  0  0  0  0  0  0  0
    5.0013   -0.4125    0.0000 Cl  0  0  0  0  0  0  0  0  0  0  0  0
    5.7158   -1.6500    0.0000 C   0  0  0  0  0  0  0  0  0  0  0  0
    6.4302   -1.2375    0.0000 Cl  0  0  0  0  0  0  0  0  0  0  0  0
    5.7158   -2.4750    0.0000 C   0  0  0  0  0  0  0  0  0  0  0  0
    6.4302   -2.8875    0.0000 Cl  0  0  0  0  0  0  0  0  0  0  0  0
    5.0013   -2.8875    0.0000 C   0  0  0  0  0  0  0  0  0  0  0  0
    5.0013   -3.7125    0.0000 Cl  0  0  0  0  0  0  0  0  0  0  0  0
    4.2868   -2.4750    0.0000 C   0  0  0  0  0  0  0  0  0  0  0  0
    3.5724   -2.8875    0.0000 O   0  0  0  0  0  0  0  0  0  0  0  0
    2.8579   -2.4750    0.0000 C   0  0  0  0  0  0  0  0  0  0  0  0
    2.1434   -2.8875    0.0000 C   0  0  0  0  0  0  0  0  0  0  0  0
    1.4289   -2.4750    0.0000 C   0  0  0  0  0  0  0  0  0  0  0  0
    0.7145   -2.8875    0.0000 Cl  0  0  0  0  0  0  0  0  0  0  0  0
    2.1434   -0.4125    0.0000 H   0  0  0  0  0  0  0  0  0  0  0  0
    2.1434   -3.7125    0.0000 H   0  0  0  0  0  0  0  0  0  0  0  0
  1  2  1  0  0  0  0
  2  3  4  0  0  0  0
  3  4  4  0  0  0  0
  4  5  1  0  0  0  0
  5  6  1  0  0  0  0
  6  7  4  0  0  0  0
  7  8  1  0  0  0  0
  7  9  4  0  0  0  0
  9 10  1  0  0  0  0
  9 11  4  0  0  0  0
 11 12  1  0  0  0  0
 11 13  4  0  0  0  0
 13 14  1  0  0  0  0
 13 15  4  0  0  0  0
  6 15  4  0  0  0  0
 15 16  1  0  0  0  0
 16 17  1  0  0  0  0
  4 17  4  0  0  0  0
 17 18  4  0  0  0  0
 18 19  4  0  0  0  0
  2 19  4  0  0  0  0
 19 20  1  0  0  0  0
  3 21  1  0  0  0  0
 18 22  1  0  0  0  0
M  END
>  <InChIKey>
InChI=1S/C12H2Cl6O2/c13-3-1-5-6(2-4(3)14)20-12-10(18)8(16)7(15)9(17)11(12)19-5/h1-2H

>  <CASRN>
39227-28-6

> <Outcome>
1

>  <Index>
3135

>  <StandardizerResult>
Dearomatize (ID: Dearomatize)
Clear Stereo (ID: ClearStereo)
Wedge Clean (ID: WedgeClean)
Mesomerize (ID: Mesomerize)
Tautomerize (ID: Tautomerize)
Aromatize (ID: Aromatize)
Add Explicit Hydrogens (ID: AddExplicitH)
Neutralize (ID: Neutralize)
Clean 2D (ID: Clean2D)

> <knn Distance>


> <CpId>
3135

$$$$
3136
  Mrv1532301301811342D          

 16 16  0  0  0  0            999 V2000
    1.4289    2.4750    0.0000 O   0  0  0  0  0  0  0  0  0  0  0  0
    0.7145    2.0625    0.0000 N   0  0  0  0  0  0  0  0  0  0  0  0
   -0.0000    2.4750    0.0000 O   0  0  0  0  0  0  0  0  0  0  0  0
    0.7145    1.2375    0.0000 C   0  0  0  0  0  0  0  0  0  0  0  0
    1.4289    0.8250    0.0000 C   0  0  0  0  0  0  0  0  0  0  0  0
    1.4289    0.0000    0.0000 C   0  0  0  0  0  0  0  0  0  0  0  0
    0.7145   -0.4125    0.0000 C   0  0  0  0  0  0  0  0  0  0  0  0
   -0.0000    0.0000    0.0000 C   0  0  0  0  0  0  0  0  0  0  0  0
   -0.0000    0.8250    0.0000 C   0  0  0  0  0  0  0  0  0  0  0  0
   -0.7145   -0.4125    0.0000 N   0  0  0  0  0  0  0  0  0  0  0  0
   -0.7145   -1.2375    0.0000 O   0  0  0  0  0  0  0  0  0  0  0  0
   -1.4289    0.0000    0.0000 O   0  0  0  0  0  0  0  0  0  0  0  0
    2.1434    1.2375    0.0000 H   0  0  0  0  0  0  0  0  0  0  0  0
    2.1434   -0.4125    0.0000 H   0  0  0  0  0  0  0  0  0  0  0  0
    0.7145   -1.2375    0.0000 H   0  0  0  0  0  0  0  0  0  0  0  0
   -0.7145    1.2375    0.0000 H   0  0  0  0  0  0  0  0  0  0  0  0
  1  2  2  0  0  0  0
  2  3  2  0  0  0  0
  2  4  1  0  0  0  0
  4  5  4  0  0  0  0
  5  6  4  0  0  0  0
  6  7  4  0  0  0  0
  7  8  4  0  0  0  0
  8  9  4  0  0  0  0
  4  9  4  0  0  0  0
  8 10  1  0  0  0  0
 10 11  2  0  0  0  0
 10 12  2  0  0  0  0
  5 13  1  0  0  0  0
  6 14  1  0  0  0  0
  7 15  1  0  0  0  0
  9 16  1  0  0  0  0
M  END
>  <InChIKey>
InChI=1S/C6H4N2O4/c9-7(10)5-2-1-3-6(4-5)8(11)12/h1-4H

>  <UN GHS>
2B

>  <CASRN>
99-65-0

> <Outcome>
1

>  <Index>
3136

>  <StandardizerResult>
Dearomatize (ID: Dearomatize)
Clear Stereo (ID: ClearStereo)
Wedge Clean (ID: WedgeClean)
Mesomerize (ID: Mesomerize)
Tautomerize (ID: Tautomerize)
Aromatize (ID: Aromatize)
Add Explicit Hydrogens (ID: AddExplicitH)
Neutralize (ID: Neutralize)
Clean 2D (ID: Clean2D)

> <knn Distance>


> <CpId>
3136

$$$$
3141
  Mrv1532301301811342D          

 21 23  0  0  0  0            999 V2000
    4.2575    1.6387    0.0000 Cl  0  0  0  0  0  0  0  0  0  0  0  0
    3.7054    1.0256    0.0000 C   0  0  0  0  0  0  0  0  0  0  0  0
    2.8985    1.1971    0.0000 C   0  0  0  0  0  0  0  0  0  0  0  0
    2.3464    0.5840    0.0000 C   0  0  0  0  0  0  0  0  0  0  0  0
    2.6014   -0.2006    0.0000 C   0  0  0  0  0  0  0  0  0  0  0  0
    1.9339   -0.6855    0.0000 O   0  0  0  0  0  0  0  0  0  0  0  0
    1.2665   -0.2006    0.0000 C   0  0  0  0  0  0  0  0  0  0  0  0
    0.4595   -0.3721    0.0000 C   0  0  0  0  0  0  0  0  0  0  0  0
    0.2046   -1.1567    0.0000 Cl  0  0  0  0  0  0  0  0  0  0  0  0
   -0.0925    0.2410    0.0000 C   0  0  0  0  0  0  0  0  0  0  0  0
   -0.8995    0.0694    0.0000 Cl  0  0  0  0  0  0  0  0  0  0  0  0
    0.1624    1.0256    0.0000 C   0  0  0  0  0  0  0  0  0  0  0  0
   -0.3896    1.6387    0.0000 Cl  0  0  0  0  0  0  0  0  0  0  0  0
    0.9694    1.1971    0.0000 C   0  0  0  0  0  0  0  0  0  0  0  0
    1.2243    1.9817    0.0000 Cl  0  0  0  0  0  0  0  0  0  0  0  0
    1.5214    0.5840    0.0000 C   0  0  0  0  0  0  0  0  0  0  0  0
    3.4083   -0.3721    0.0000 C   0  0  0  0  0  0  0  0  0  0  0  0
    3.6633   -1.1567    0.0000 Cl  0  0  0  0  0  0  0  0  0  0  0  0
    3.9604    0.2410    0.0000 C   0  0  0  0  0  0  0  0  0  0  0  0
    4.7674    0.0694    0.0000 Cl  0  0  0  0  0  0  0  0  0  0  0  0
    2.6435    1.9817    0.0000 H   0  0  0  0  0  0  0  0  0  0  0  0
  1  2  1  0  0  0  0
  2  3  4  0  0  0  0
  3  4  4  0  0  0  0
  4  5  4  0  0  0  0
  5  6  4  0  0  0  0
  6  7  4  0  0  0  0
  7  8  4  0  0  0  0
  8  9  1  0  0  0  0
  8 10  4  0  0  0  0
 10 11  1  0  0  0  0
 10 12  4  0  0  0  0
 12 13  1  0  0  0  0
 12 14  4  0  0  0  0
 14 15  1  0  0  0  0
 14 16  4  0  0  0  0
  4 16  4  0  0  0  0
  7 16  4  0  0  0  0
  5 17  4  0  0  0  0
 17 18  1  0  0  0  0
 17 19  4  0  0  0  0
  2 19  4  0  0  0  0
 19 20  1  0  0  0  0
  3 21  1  0  0  0  0
M  END
>  <InChIKey>
InChI=1S/C12HCl7O/c13-3-1-2-4-6(15)7(16)8(17)10(19)12(4)20-11(2)9(18)5(3)14/h1H

>  <CASRN>
67562-39-4

> <Outcome>
1

>  <Index>
3141

>  <StandardizerResult>
Dearomatize (ID: Dearomatize)
Clear Stereo (ID: ClearStereo)
Wedge Clean (ID: WedgeClean)
Mesomerize (ID: Mesomerize)
Tautomerize (ID: Tautomerize)
Aromatize (ID: Aromatize)
Add Explicit Hydrogens (ID: AddExplicitH)
Neutralize (ID: Neutralize)
Clean 2D (ID: Clean2D)

> <knn Distance>


> <CpId>
3141

$$$$
3142
  Mrv1532301301811342D          

 31 30  0  0  0  0            999 V2000
    2.1926    2.1748    0.0000 C   0  0  0  0  0  0  0  0  0  0  0  0
    2.9070    2.5873    0.0000 C   0  0  0  0  0  0  0  0  0  0  0  0
    2.9070    3.4123    0.0000 C   0  0  0  0  0  0  0  0  0  0  0  0
    3.6215    2.1748    0.0000 C   0  0  0  0  0  0  0  0  0  0  0  0
    4.3360    2.5873    0.0000 C   0  0  0  0  0  0  0  0  0  0  0  0
    5.0505    2.1748    0.0000 C   0  0  0  0  0  0  0  0  0  0  0  0
    5.7649    2.5873    0.0000 C   0  0  0  0  0  0  0  0  0  0  0  0
    6.4794    2.1748    0.0000 C   0  0  0  0  0  0  0  0  0  0  0  0
    7.1939    2.5873    0.0000 C   0  0  0  0  0  0  0  0  0  0  0  0
    7.9083    2.1748    0.0000 C   0  0  0  0  0  0  0  0  0  0  0  0
    8.6228    2.5873    0.0000 O   0  0  0  0  0  0  0  0  0  0  0  0
    1.7801    2.8892    0.0000 H   0  0  0  0  0  0  0  0  0  0  0  0
    1.4781    1.7623    0.0000 H   0  0  0  0  0  0  0  0  0  0  0  0
    2.6051    1.4603    0.0000 H   0  0  0  0  0  0  0  0  0  0  0  0
    2.1926    2.9998    0.0000 H   0  0  0  0  0  0  0  0  0  0  0  0
    3.7039    3.1987    0.0000 H   0  0  0  0  0  0  0  0  0  0  0  0
    3.3195    4.1267    0.0000 H   0  0  0  0  0  0  0  0  0  0  0  0
    2.3237    3.9956    0.0000 H   0  0  0  0  0  0  0  0  0  0  0  0
    3.2513    1.4375    0.0000 H   0  0  0  0  0  0  0  0  0  0  0  0
    3.9918    1.4375    0.0000 H   0  0  0  0  0  0  0  0  0  0  0  0
    4.8328    3.2459    0.0000 H   0  0  0  0  0  0  0  0  0  0  0  0
    4.3360    1.7623    0.0000 H   0  0  0  0  0  0  0  0  0  0  0  0
    5.1937    1.3623    0.0000 H   0  0  0  0  0  0  0  0  0  0  0  0
    5.6824    1.6445    0.0000 H   0  0  0  0  0  0  0  0  0  0  0  0
    6.1352    3.3245    0.0000 H   0  0  0  0  0  0  0  0  0  0  0  0
    5.3947    3.3245    0.0000 H   0  0  0  0  0  0  0  0  0  0  0  0
    6.5143    1.3505    0.0000 H   0  0  0  0  0  0  0  0  0  0  0  0
    7.2024    1.7775    0.0000 H   0  0  0  0  0  0  0  0  0  0  0  0
    7.5641    3.3245    0.0000 H   0  0  0  0  0  0  0  0  0  0  0  0
    6.8236    3.3245    0.0000 H   0  0  0  0  0  0  0  0  0  0  0  0
    8.3169    1.4580    0.0000 H   0  0  0  0  0  0  0  0  0  0  0  0
  1  2  1  0  0  0  0
  2  3  1  0  0  0  0
  2  4  1  0  0  0  0
  4  5  1  0  0  0  0
  5  6  1  0  0  0  0
  6  7  1  0  0  0  0
  7  8  1  0  0  0  0
  8  9  1  0  0  0  0
  9 10  1  0  0  0  0
 10 11  2  0  0  0  0
  1 12  1  0  0  0  0
  1 13  1  0  0  0  0
  1 14  1  0  0  0  0
  2 15  1  0  0  0  0
  3 16  1  0  0  0  0
  3 17  1  0  0  0  0
  3 18  1  0  0  0  0
  4 19  1  0  0  0  0
  4 20  1  0  0  0  0
  5 21  1  0  0  0  0
  5 22  1  0  0  0  0
  6 23  1  0  0  0  0
  6 24  1  0  0  0  0
  7 25  1  0  0  0  0
  7 26  1  0  0  0  0
  8 27  1  0  0  0  0
  8 28  1  0  0  0  0
  9 29  1  0  0  0  0
  9 30  1  0  0  0  0
 10 31  1  0  0  0  0
M  END
>  <InChIKey>
InChI=1S/C10H20O/c1-10(2)8-6-4-3-5-7-9-11/h9-10H,3-8H2,1-2H3

>  <CASRN>
1321-89-7

> <Outcome>
1

>  <Index>
3142

>  <StandardizerResult>
Clear Stereo (ID: ClearStereo)
Wedge Clean (ID: WedgeClean)
Mesomerize (ID: Mesomerize)
Tautomerize (ID: Tautomerize)
Add Explicit Hydrogens (ID: AddExplicitH)
Neutralize (ID: Neutralize)
Clean 2D (ID: Clean2D)

> <knn Distance>


> <CpId>
3142

$$$$
3147
  Mrv1532301301811342D          

 29 30  0  0  0  0            999 V2000
    0.7831   -1.0672    0.0000 C   0  0  0  0  0  0  0  0  0  0  0  0
    0.7831   -0.2422    0.0000 C   0  0  0  0  0  0  0  0  0  0  0  0
    0.0687    0.1703    0.0000 C   0  0  0  0  0  0  0  0  0  0  0  0
    0.0687    0.9953    0.0000 C   0  0  0  0  0  0  0  0  0  0  0  0
    0.7831    1.4078    0.0000 C   0  0  0  0  0  0  0  0  0  0  0  0
    0.9206    0.8578    0.0000 C   0  0  0  0  0  0  0  0  0  0  0  0
    0.9206    0.3078    0.0000 C   0  0  0  0  0  0  0  0  0  0  0  0
    1.4976    0.9953    0.0000 C   0  0  0  0  0  0  0  0  0  0  0  0
    1.7798    1.7705    0.0000 C   0  0  0  0  0  0  0  0  0  0  0  0
    2.3101    0.8520    0.0000 C   0  0  0  0  0  0  0  0  0  0  0  0
    1.4976    0.1703    0.0000 O   0  0  0  0  0  0  0  0  0  0  0  0
   -0.0419   -1.0672    0.0000 H   0  0  0  0  0  0  0  0  0  0  0  0
    0.7831   -1.8922    0.0000 H   0  0  0  0  0  0  0  0  0  0  0  0
    1.6081   -1.0672    0.0000 H   0  0  0  0  0  0  0  0  0  0  0  0
   -0.7549    0.1223    0.0000 H   0  0  0  0  0  0  0  0  0  0  0  0
   -0.3847   -0.5190    0.0000 H   0  0  0  0  0  0  0  0  0  0  0  0
   -0.3847    1.6845    0.0000 H   0  0  0  0  0  0  0  0  0  0  0  0
   -0.7549    1.0432    0.0000 H   0  0  0  0  0  0  0  0  0  0  0  0
    0.7831    2.2328    0.0000 H   0  0  0  0  0  0  0  0  0  0  0  0
    0.1663    0.5237    0.0000 H   0  0  0  0  0  0  0  0  0  0  0  0
    0.4706    0.1663    0.0000 H   0  0  0  0  0  0  0  0  0  0  0  0
    1.2028    1.0830    0.0000 H   0  0  0  0  0  0  0  0  0  0  0  0
    0.2555    0.7959    0.0000 H   0  0  0  0  0  0  0  0  0  0  0  0
    2.5275    1.4218    0.0000 H   0  0  0  0  0  0  0  0  0  0  0  0
    2.1923    2.4850    0.0000 H   0  0  0  0  0  0  0  0  0  0  0  0
    1.1040    2.2437    0.0000 H   0  0  0  0  0  0  0  0  0  0  0  0
    1.8343    0.1780    0.0000 H   0  0  0  0  0  0  0  0  0  0  0  0
    2.7171    0.1344    0.0000 H   0  0  0  0  0  0  0  0  0  0  0  0
    3.1327    0.9144    0.0000 H   0  0  0  0  0  0  0  0  0  0  0  0
  1  2  1  0  0  0  0
  2  3  1  0  0  0  0
  3  4  1  0  0  0  0
  4  5  1  0  0  0  0
  5  6  1  0  0  0  0
  6  7  1  0  0  0  0
  2  7  1  0  0  0  0
  5  8  1  0  0  0  0
  8  9  1  0  0  0  0
  8 10  1  0  0  0  0
  8 11  1  0  0  0  0
  2 11  1  0  0  0  0
  1 12  1  0  0  0  0
  1 13  1  0  0  0  0
  1 14  1  0  0  0  0
  3 15  1  0  0  0  0
  3 16  1  0  0  0  0
  4 17  1  0  0  0  0
  4 18  1  0  0  0  0
  5 19  1  0  0  0  0
  6 20  1  0  0  0  0
  6 21  1  0  0  0  0
  7 22  1  0  0  0  0
  7 23  1  0  0  0  0
  9 24  1  0  0  0  0
  9 25  1  0  0  0  0
  9 26  1  0  0  0  0
 10 27  1  0  0  0  0
 10 28  1  0  0  0  0
 10 29  1  0  0  0  0
M  END
>  <InChIKey>
InChI=1S/C10H18O/c1-9(2)8-4-6-10(3,11-9)7-5-8/h8H,4-7H2,1-3H3

>  <CASRN>
470-82-6

> <Outcome>
1

>  <Index>
3147

>  <StandardizerResult>
Clear Stereo (ID: ClearStereo)
Wedge Clean (ID: WedgeClean)
Mesomerize (ID: Mesomerize)
Tautomerize (ID: Tautomerize)
Add Explicit Hydrogens (ID: AddExplicitH)
Neutralize (ID: Neutralize)
Clean 2D (ID: Clean2D)

> <knn Distance>


> <CpId>
3147

$$$$
3149
  Mrv1532301301811342D          

 16 15  0  0  0  0            999 V2000
   -0.1915    0.7145    0.0000 O   0  0  0  0  0  0  0  0  0  0  0  0
    0.5230    1.1270    0.0000 C   0  0  0  0  0  0  0  0  0  0  0  0
    1.2375    0.7145    0.0000 C   0  0  0  0  0  0  0  0  0  0  0  0
    1.9520    1.1270    0.0000 C   0  0  0  0  0  0  0  0  0  0  0  0
    2.6664    0.7145    0.0000 C   0  0  0  0  0  0  0  0  0  0  0  0
    3.3809    1.1270    0.0000 O   0  0  0  0  0  0  0  0  0  0  0  0
   -0.9059    1.1270    0.0000 H   0  0  0  0  0  0  0  0  0  0  0  0
    0.8933    1.8642    0.0000 H   0  0  0  0  0  0  0  0  0  0  0  0
    0.1528    1.8642    0.0000 H   0  0  0  0  0  0  0  0  0  0  0  0
    0.8672   -0.0227    0.0000 H   0  0  0  0  0  0  0  0  0  0  0  0
    1.6078   -0.0227    0.0000 H   0  0  0  0  0  0  0  0  0  0  0  0
    2.3222    1.8642    0.0000 H   0  0  0  0  0  0  0  0  0  0  0  0
    1.5817    1.8642    0.0000 H   0  0  0  0  0  0  0  0  0  0  0  0
    2.2962   -0.0227    0.0000 H   0  0  0  0  0  0  0  0  0  0  0  0
    3.0367   -0.0227    0.0000 H   0  0  0  0  0  0  0  0  0  0  0  0
    4.0954    0.7145    0.0000 H   0  0  0  0  0  0  0  0  0  0  0  0
  1  2  1  0  0  0  0
  2  3  1  0  0  0  0
  3  4  1  0  0  0  0
  4  5  1  0  0  0  0
  5  6  1  0  0  0  0
  1  7  1  0  0  0  0
  2  8  1  0  0  0  0
  2  9  1  0  0  0  0
  3 10  1  0  0  0  0
  3 11  1  0  0  0  0
  4 12  1  0  0  0  0
  4 13  1  0  0  0  0
  5 14  1  0  0  0  0
  5 15  1  0  0  0  0
  6 16  1  0  0  0  0
M  END
>  <InChIKey>
InChI=1S/C4H10O2/c5-3-1-2-4-6/h5-6H,1-4H2

>  <CASRN>
110-63-4

> <Outcome>
1

>  <Index>
3149

>  <StandardizerResult>
Clear Stereo (ID: ClearStereo)
Wedge Clean (ID: WedgeClean)
Mesomerize (ID: Mesomerize)
Tautomerize (ID: Tautomerize)
Add Explicit Hydrogens (ID: AddExplicitH)
Neutralize (ID: Neutralize)
Clean 2D (ID: Clean2D)

> <knn Distance>


> <CpId>
3149

$$$$
3150
  Mrv1532301301811342D          

  7  6  0  0  0  0            999 V2000
    1.2375    0.7145    0.0000 C   0  0  0  0  0  0  0  0  0  0  0  0
    0.8250    0.0000    0.0000 C   0  0  0  0  0  0  0  0  0  0  0  0
    1.2375   -0.7145    0.0000 Cl  0  0  0  0  0  0  0  0  0  0  0  0
   -0.0000    0.0000    0.0000 O   0  0  0  0  0  0  0  0  0  0  0  0
    1.9520    0.3020    0.0000 H   0  0  0  0  0  0  0  0  0  0  0  0
    1.6500    1.4290    0.0000 H   0  0  0  0  0  0  0  0  0  0  0  0
    0.5230    1.1270    0.0000 H   0  0  0  0  0  0  0  0  0  0  0  0
  1  2  1  0  0  0  0
  2  3  1  0  0  0  0
  2  4  2  0  0  0  0
  1  5  1  0  0  0  0
  1  6  1  0  0  0  0
  1  7  1  0  0  0  0
M  END
>  <InChIKey>
InChI=1S/C2H3ClO/c1-2(3)4/h1H3

>  <CASRN>
75-36-5

> <Outcome>
1

>  <Index>
3150

>  <StandardizerResult>
Clear Stereo (ID: ClearStereo)
Wedge Clean (ID: WedgeClean)
Mesomerize (ID: Mesomerize)
Tautomerize (ID: Tautomerize)
Add Explicit Hydrogens (ID: AddExplicitH)
Neutralize (ID: Neutralize)
Clean 2D (ID: Clean2D)

> <knn Distance>


> <CpId>
3150

$$$$
3152
  Mrv1532301301811342D          

 32 31  0  0  0  0            999 V2000
    2.2487    2.2115    0.0000 C   0  0  0  0  0  0  0  0  0  0  0  0
    2.9632    2.6240    0.0000 C   0  0  0  0  0  0  0  0  0  0  0  0
    3.6777    2.2115    0.0000 C   0  0  0  0  0  0  0  0  0  0  0  0
    4.3921    2.6240    0.0000 O   0  0  0  0  0  0  0  0  0  0  0  0
    5.1066    2.2115    0.0000 C   0  0  0  0  0  0  0  0  0  0  0  0
    5.8211    2.6240    0.0000 C   0  0  0  0  0  0  0  0  0  0  0  0
    5.8211    3.4490    0.0000 C   0  0  0  0  0  0  0  0  0  0  0  0
    6.5356    2.2115    0.0000 O   0  0  0  0  0  0  0  0  0  0  0  0
    7.2500    2.6240    0.0000 C   0  0  0  0  0  0  0  0  0  0  0  0
    7.9645    2.2115    0.0000 C   0  0  0  0  0  0  0  0  0  0  0  0
    8.6790    2.6240    0.0000 C   0  0  0  0  0  0  0  0  0  0  0  0
    7.9645    1.3865    0.0000 O   0  0  0  0  0  0  0  0  0  0  0  0
    1.8362    2.9260    0.0000 H   0  0  0  0  0  0  0  0  0  0  0  0
    1.5343    1.7990    0.0000 H   0  0  0  0  0  0  0  0  0  0  0  0
    2.6612    1.4971    0.0000 H   0  0  0  0  0  0  0  0  0  0  0  0
    3.3335    3.3613    0.0000 H   0  0  0  0  0  0  0  0  0  0  0  0
    2.5929    3.3613    0.0000 H   0  0  0  0  0  0  0  0  0  0  0  0
    3.3074    1.4743    0.0000 H   0  0  0  0  0  0  0  0  0  0  0  0
    4.0479    1.4743    0.0000 H   0  0  0  0  0  0  0  0  0  0  0  0
    4.7364    1.4743    0.0000 H   0  0  0  0  0  0  0  0  0  0  0  0
    5.4769    1.4743    0.0000 H   0  0  0  0  0  0  0  0  0  0  0  0
    5.1066    3.0365    0.0000 H   0  0  0  0  0  0  0  0  0  0  0  0
    6.6180    3.2355    0.0000 H   0  0  0  0  0  0  0  0  0  0  0  0
    6.2336    4.1635    0.0000 H   0  0  0  0  0  0  0  0  0  0  0  0
    5.2377    4.0324    0.0000 H   0  0  0  0  0  0  0  0  0  0  0  0
    7.7468    3.2827    0.0000 H   0  0  0  0  0  0  0  0  0  0  0  0
    7.2500    1.7990    0.0000 H   0  0  0  0  0  0  0  0  0  0  0  0
    7.9645    3.0365    0.0000 H   0  0  0  0  0  0  0  0  0  0  0  0
    8.8925    1.8271    0.0000 H   0  0  0  0  0  0  0  0  0  0  0  0
    9.5040    2.6240    0.0000 H   0  0  0  0  0  0  0  0  0  0  0  0
    8.8925    3.4209    0.0000 H   0  0  0  0  0  0  0  0  0  0  0  0
    8.3770    0.6721    0.0000 H   0  0  0  0  0  0  0  0  0  0  0  0
  1  2  1  0  0  0  0
  2  3  1  0  0  0  0
  3  4  1  0  0  0  0
  4  5  1  0  0  0  0
  5  6  1  0  0  0  0
  6  7  1  0  0  0  0
  6  8  1  0  0  0  0
  8  9  1  0  0  0  0
  9 10  1  0  0  0  0
 10 11  1  0  0  0  0
 10 12  1  0  0  0  0
  1 13  1  0  0  0  0
  1 14  1  0  0  0  0
  1 15  1  0  0  0  0
  2 16  1  0  0  0  0
  2 17  1  0  0  0  0
  3 18  1  0  0  0  0
  3 19  1  0  0  0  0
  5 20  1  0  0  0  0
  5 21  1  0  0  0  0
  6 22  1  0  0  0  0
  7 23  1  0  0  0  0
  7 24  1  0  0  0  0
  7 25  1  0  0  0  0
  9 26  1  0  0  0  0
  9 27  1  0  0  0  0
 10 28  1  0  0  0  0
 11 29  1  0  0  0  0
 11 30  1  0  0  0  0
 11 31  1  0  0  0  0
 12 32  1  0  0  0  0
M  END
>  <InChIKey>
InChI=1S/C9H20O3/c1-4-5-11-7-9(3)12-6-8(2)10/h8-10H,4-7H2,1-3H3

>  <UN GHS>
2B

>  <CASRN>
29911-27-1

> <Outcome>
1

>  <Index>
3152

>  <StandardizerResult>
Clear Stereo (ID: ClearStereo)
Wedge Clean (ID: WedgeClean)
Mesomerize (ID: Mesomerize)
Tautomerize (ID: Tautomerize)
Add Explicit Hydrogens (ID: AddExplicitH)
Neutralize (ID: Neutralize)
Clean 2D (ID: Clean2D)

> <knn Distance>


> <CpId>
3152

$$$$
3153
  Mrv1532301301811342D          

 32 32  0  0  0  0            999 V2000
    1.4569   -4.0875    0.0000 C   0  0  0  0  0  0  0  0  0  0  0  0
    2.1714   -3.6750    0.0000 C   0  0  0  0  0  0  0  0  0  0  0  0
    2.8859   -4.0875    0.0000 C   0  0  0  0  0  0  0  0  0  0  0  0
    3.6004   -3.6750    0.0000 C   0  0  0  0  0  0  0  0  0  0  0  0
    4.3148   -4.0875    0.0000 C   0  0  0  0  0  0  0  0  0  0  0  0
    5.0293   -3.6750    0.0000 C   0  0  0  0  0  0  0  0  0  0  0  0
    5.7438   -4.0875    0.0000 C   0  0  0  0  0  0  0  0  0  0  0  0
    6.4582   -3.6750    0.0000 C   0  0  0  0  0  0  0  0  0  0  0  0
    7.1727   -4.0875    0.0000 C   0  0  0  0  0  0  0  0  0  0  0  0
    7.1727   -4.9125    0.0000 C   0  0  0  0  0  0  0  0  0  0  0  0
    7.8872   -5.3250    0.0000 O   0  0  0  0  0  0  0  0  0  0  0  0
    6.4582   -5.3250    0.0000 C   0  0  0  0  0  0  0  0  0  0  0  0
    5.7438   -4.9125    0.0000 C   0  0  0  0  0  0  0  0  0  0  0  0
    5.0293   -5.3250    0.0000 O   0  0  0  0  0  0  0  0  0  0  0  0
    1.0444   -3.3730    0.0000 H   0  0  0  0  0  0  0  0  0  0  0  0
    0.7425   -4.5000    0.0000 H   0  0  0  0  0  0  0  0  0  0  0  0
    1.8694   -4.8020    0.0000 H   0  0  0  0  0  0  0  0  0  0  0  0
    2.5417   -2.9378    0.0000 H   0  0  0  0  0  0  0  0  0  0  0  0
    1.8012   -2.9378    0.0000 H   0  0  0  0  0  0  0  0  0  0  0  0
    2.5156   -4.8248    0.0000 H   0  0  0  0  0  0  0  0  0  0  0  0
    3.2561   -4.8248    0.0000 H   0  0  0  0  0  0  0  0  0  0  0  0
    3.9706   -2.9378    0.0000 H   0  0  0  0  0  0  0  0  0  0  0  0
    3.2301   -2.9378    0.0000 H   0  0  0  0  0  0  0  0  0  0  0  0
    3.9446   -4.8248    0.0000 H   0  0  0  0  0  0  0  0  0  0  0  0
    4.6851   -4.8248    0.0000 H   0  0  0  0  0  0  0  0  0  0  0  0
    5.3996   -2.9378    0.0000 H   0  0  0  0  0  0  0  0  0  0  0  0
    4.6590   -2.9378    0.0000 H   0  0  0  0  0  0  0  0  0  0  0  0
    6.4582   -2.8500    0.0000 H   0  0  0  0  0  0  0  0  0  0  0  0
    7.8872   -3.6750    0.0000 H   0  0  0  0  0  0  0  0  0  0  0  0
    7.8872   -6.1500    0.0000 H   0  0  0  0  0  0  0  0  0  0  0  0
    6.4582   -6.1500    0.0000 H   0  0  0  0  0  0  0  0  0  0  0  0
    4.8474   -6.1297    0.0000 H   0  0  0  0  0  0  0  0  0  0  0  0
  1  2  1  0  0  0  0
  2  3  1  0  0  0  0
  3  4  1  0  0  0  0
  4  5  1  0  0  0  0
  5  6  1  0  0  0  0
  6  7  1  0  0  0  0
  7  8  4  0  0  0  0
  8  9  4  0  0  0  0
  9 10  4  0  0  0  0
 10 11  1  0  0  0  0
 10 12  4  0  0  0  0
 12 13  4  0  0  0  0
  7 13  4  0  0  0  0
 13 14  1  0  0  0  0
  1 15  1  0  0  0  0
  1 16  1  0  0  0  0
  1 17  1  0  0  0  0
  2 18  1  0  0  0  0
  2 19  1  0  0  0  0
  3 20  1  0  0  0  0
  3 21  1  0  0  0  0
  4 22  1  0  0  0  0
  4 23  1  0  0  0  0
  5 24  1  0  0  0  0
  5 25  1  0  0  0  0
  6 26  1  0  0  0  0
  6 27  1  0  0  0  0
  8 28  1  0  0  0  0
  9 29  1  0  0  0  0
 11 30  1  0  0  0  0
 12 31  1  0  0  0  0
 14 32  1  0  0  0  0
M  END
>  <InChIKey>
InChI=1S/C12H18O2/c1-2-3-4-5-6-10-7-8-11(13)9-12(10)14/h7-9,13-14H,2-6H2,1H3

>  <CASRN>
136-77-6

> <Outcome>
1

>  <Index>
3153

>  <StandardizerResult>
Dearomatize (ID: Dearomatize)
Clear Stereo (ID: ClearStereo)
Wedge Clean (ID: WedgeClean)
Mesomerize (ID: Mesomerize)
Tautomerize (ID: Tautomerize)
Aromatize (ID: Aromatize)
Add Explicit Hydrogens (ID: AddExplicitH)
Neutralize (ID: Neutralize)
Clean 2D (ID: Clean2D)

> <knn Distance>


> <CpId>
3153

$$$$
3159
  Mrv1532301301811342D          

 17 17  0  0  0  0            999 V2000
   -0.0009    2.4745    0.0000 N   0  0  0  0  0  0  0  0  0  0  0  0
    0.7136    2.0620    0.0000 C   0  0  0  0  0  0  0  0  0  0  0  0
    0.7136    1.2370    0.0000 C   0  0  0  0  0  0  0  0  0  0  0  0
    1.4280    0.8245    0.0000 C   0  0  0  0  0  0  0  0  0  0  0  0
    1.4280   -0.0005    0.0000 C   0  0  0  0  0  0  0  0  0  0  0  0
    0.7136   -0.4130    0.0000 C   0  0  0  0  0  0  0  0  0  0  0  0
   -0.0009   -0.0005    0.0000 C   0  0  0  0  0  0  0  0  0  0  0  0
   -0.0009    0.8245    0.0000 C   0  0  0  0  0  0  0  0  0  0  0  0
   -0.0009    3.2995    0.0000 H   0  0  0  0  0  0  0  0  0  0  0  0
   -0.7154    2.0620    0.0000 H   0  0  0  0  0  0  0  0  0  0  0  0
    1.5372    2.1100    0.0000 H   0  0  0  0  0  0  0  0  0  0  0  0
    1.1669    2.7513    0.0000 H   0  0  0  0  0  0  0  0  0  0  0  0
    2.1425    1.2370    0.0000 H   0  0  0  0  0  0  0  0  0  0  0  0
    2.1425   -0.4130    0.0000 H   0  0  0  0  0  0  0  0  0  0  0  0
    0.7136   -1.2380    0.0000 H   0  0  0  0  0  0  0  0  0  0  0  0
   -0.7154   -0.4130    0.0000 H   0  0  0  0  0  0  0  0  0  0  0  0
   -0.7154    1.2370    0.0000 H   0  0  0  0  0  0  0  0  0  0  0  0
  1  2  1  0  0  0  0
  2  3  1  0  0  0  0
  3  4  4  0  0  0  0
  4  5  4  0  0  0  0
  5  6  4  0  0  0  0
  6  7  4  0  0  0  0
  7  8  4  0  0  0  0
  3  8  4  0  0  0  0
  1  9  1  0  0  0  0
  1 10  1  0  0  0  0
  2 11  1  0  0  0  0
  2 12  1  0  0  0  0
  4 13  1  0  0  0  0
  5 14  1  0  0  0  0
  6 15  1  0  0  0  0
  7 16  1  0  0  0  0
  8 17  1  0  0  0  0
M  END
>  <InChIKey>
InChI=1S/C7H9N/c8-6-7-4-2-1-3-5-7/h1-5H,6,8H2

>  <CASRN>
100-46-9

> <Outcome>
1

>  <Index>
3159

>  <StandardizerResult>
Dearomatize (ID: Dearomatize)
Clear Stereo (ID: ClearStereo)
Wedge Clean (ID: WedgeClean)
Mesomerize (ID: Mesomerize)
Tautomerize (ID: Tautomerize)
Aromatize (ID: Aromatize)
Add Explicit Hydrogens (ID: AddExplicitH)
Neutralize (ID: Neutralize)
Clean 2D (ID: Clean2D)

> <knn Distance>


> <CpId>
3159

$$$$
3160
  Mrv1532301301811342D          

 13 12  0  0  0  0            999 V2000
    2.0625   -0.7145    0.0000 C   0  0  0  0  0  0  0  0  0  0  0  0
    1.2375   -0.7145    0.0000 C   0  0  0  0  0  0  0  0  0  0  0  0
    0.8250   -0.0000    0.0000 C   0  0  0  0  0  0  0  0  0  0  0  0
    0.0000   -0.0000    0.0000 N   0  0  0  0  0  0  0  0  0  0  0  0
    2.0625   -1.5395    0.0000 H   0  0  0  0  0  0  0  0  0  0  0  0
    2.8875   -0.7145    0.0000 H   0  0  0  0  0  0  0  0  0  0  0  0
    2.0625    0.1105    0.0000 H   0  0  0  0  0  0  0  0  0  0  0  0
    0.5482   -1.1678    0.0000 H   0  0  0  0  0  0  0  0  0  0  0  0
    1.1895   -1.5381    0.0000 H   0  0  0  0  0  0  0  0  0  0  0  0
    1.5143    0.4533    0.0000 H   0  0  0  0  0  0  0  0  0  0  0  0
    0.8730    0.8236    0.0000 H   0  0  0  0  0  0  0  0  0  0  0  0
   -0.4125    0.7145    0.0000 H   0  0  0  0  0  0  0  0  0  0  0  0
   -0.4125   -0.7145    0.0000 H   0  0  0  0  0  0  0  0  0  0  0  0
  1  2  1  0  0  0  0
  2  3  1  0  0  0  0
  3  4  1  0  0  0  0
  1  5  1  0  0  0  0
  1  6  1  0  0  0  0
  1  7  1  0  0  0  0
  2  8  1  0  0  0  0
  2  9  1  0  0  0  0
  3 10  1  0  0  0  0
  3 11  1  0  0  0  0
  4 12  1  0  0  0  0
  4 13  1  0  0  0  0
M  END
>  <InChIKey>
InChI=1S/C3H9N/c1-2-3-4/h2-4H2,1H3

>  <CASRN>
107-10-8

> <Outcome>
1

>  <Index>
3160

>  <StandardizerResult>
Clear Stereo (ID: ClearStereo)
Wedge Clean (ID: WedgeClean)
Mesomerize (ID: Mesomerize)
Tautomerize (ID: Tautomerize)
Add Explicit Hydrogens (ID: AddExplicitH)
Neutralize (ID: Neutralize)
Clean 2D (ID: Clean2D)

> <knn Distance>


> <CpId>
3160

$$$$
3163
  Mrv1532301301811342D          

 17 17  0  0  0  0            999 V2000
    0.7145    2.0625    0.0000 N   0  0  0  0  0  0  0  0  0  0  0  0
    0.7145    1.2375    0.0000 C   0  0  0  0  0  0  0  0  0  0  0  0
    1.4289    0.8250    0.0000 C   0  0  0  0  0  0  0  0  0  0  0  0
    1.4289    0.0000    0.0000 C   0  0  0  0  0  0  0  0  0  0  0  0
    0.7145   -0.4125    0.0000 C   0  0  0  0  0  0  0  0  0  0  0  0
    0.7145   -1.2375    0.0000 O   0  0  0  0  0  0  0  0  0  0  0  0
    0.0000    0.0000    0.0000 C   0  0  0  0  0  0  0  0  0  0  0  0
    0.0000    0.8250    0.0000 C   0  0  0  0  0  0  0  0  0  0  0  0
   -0.7145   -0.4125    0.0000 N   0  0  0  0  0  0  0  0  0  0  0  0
   -1.4289    0.0000    0.0000 O   0  0  0  0  0  0  0  0  0  0  0  0
   -0.7145   -1.2375    0.0000 O   0  0  0  0  0  0  0  0  0  0  0  0
    1.4289    2.4750    0.0000 H   0  0  0  0  0  0  0  0  0  0  0  0
    0.0000    2.4750    0.0000 H   0  0  0  0  0  0  0  0  0  0  0  0
    2.1434    1.2375    0.0000 H   0  0  0  0  0  0  0  0  0  0  0  0
    2.1434   -0.4125    0.0000 H   0  0  0  0  0  0  0  0  0  0  0  0
    0.0000   -1.6500    0.0000 H   0  0  0  0  0  0  0  0  0  0  0  0
   -0.7145    1.2375    0.0000 H   0  0  0  0  0  0  0  0  0  0  0  0
  1  2  1  0  0  0  0
  2  3  4  0  0  0  0
  3  4  4  0  0  0  0
  4  5  4  0  0  0  0
  5  6  1  0  0  0  0
  5  7  4  0  0  0  0
  7  8  4  0  0  0  0
  2  8  4  0  0  0  0
  7  9  1  0  0  0  0
  9 10  2  0  0  0  0
  9 11  2  0  0  0  0
  1 12  1  0  0  0  0
  1 13  1  0  0  0  0
  3 14  1  0  0  0  0
  4 15  1  0  0  0  0
  6 16  1  0  0  0  0
  8 17  1  0  0  0  0
M  END
>  <InChIKey>
InChI=1S/C6H6N2O3/c7-4-1-2-6(9)5(3-4)8(10)11/h1-3,9H,7H2

>  <CASRN>
119-34-6

> <Outcome>
1

>  <Index>
3163

>  <StandardizerResult>
Dearomatize (ID: Dearomatize)
Clear Stereo (ID: ClearStereo)
Wedge Clean (ID: WedgeClean)
Mesomerize (ID: Mesomerize)
Tautomerize (ID: Tautomerize)
Aromatize (ID: Aromatize)
Add Explicit Hydrogens (ID: AddExplicitH)
Neutralize (ID: Neutralize)
Clean 2D (ID: Clean2D)

> <knn Distance>


> <CpId>
3163

$$$$
3164
  Mrv1532301301811342D          

 28 28  0  0  0  0            999 V2000
    1.4066   -4.1336    0.0000 C   0  0  0  0  0  0  0  0  0  0  0  0
    2.1210   -3.7211    0.0000 C   0  0  0  0  0  0  0  0  0  0  0  0
    2.1210   -2.8961    0.0000 C   0  0  0  0  0  0  0  0  0  0  0  0
    2.8355   -4.1336    0.0000 O   0  0  0  0  0  0  0  0  0  0  0  0
    3.5500   -3.7211    0.0000 C   0  0  0  0  0  0  0  0  0  0  0  0
    3.5500   -2.8961    0.0000 O   0  0  0  0  0  0  0  0  0  0  0  0
    4.2645   -4.1336    0.0000 C   0  0  0  0  0  0  0  0  0  0  0  0
    4.9789   -3.7211    0.0000 O   0  0  0  0  0  0  0  0  0  0  0  0
    5.6934   -4.1336    0.0000 C   0  0  0  0  0  0  0  0  0  0  0  0
    6.4079   -3.7211    0.0000 C   0  0  0  0  0  0  0  0  0  0  0  0
    7.1223   -4.1336    0.0000 C   0  0  0  0  0  0  0  0  0  0  0  0
    7.1223   -4.9586    0.0000 C   0  0  0  0  0  0  0  0  0  0  0  0
    7.8368   -5.3711    0.0000 Cl  0  0  0  0  0  0  0  0  0  0  0  0
    6.4079   -5.3711    0.0000 C   0  0  0  0  0  0  0  0  0  0  0  0
    5.6934   -4.9586    0.0000 C   0  0  0  0  0  0  0  0  0  0  0  0
    4.9789   -5.3711    0.0000 Cl  0  0  0  0  0  0  0  0  0  0  0  0
    0.9941   -3.4192    0.0000 H   0  0  0  0  0  0  0  0  0  0  0  0
    0.6921   -4.5461    0.0000 H   0  0  0  0  0  0  0  0  0  0  0  0
    1.8191   -4.8481    0.0000 H   0  0  0  0  0  0  0  0  0  0  0  0
    1.4066   -3.3086    0.0000 H   0  0  0  0  0  0  0  0  0  0  0  0
    2.9179   -3.1097    0.0000 H   0  0  0  0  0  0  0  0  0  0  0  0
    2.5335   -2.1817    0.0000 H   0  0  0  0  0  0  0  0  0  0  0  0
    1.5377   -2.3128    0.0000 H   0  0  0  0  0  0  0  0  0  0  0  0
    3.8942   -4.8709    0.0000 H   0  0  0  0  0  0  0  0  0  0  0  0
    4.6347   -4.8709    0.0000 H   0  0  0  0  0  0  0  0  0  0  0  0
    6.4079   -2.8961    0.0000 H   0  0  0  0  0  0  0  0  0  0  0  0
    7.8368   -3.7211    0.0000 H   0  0  0  0  0  0  0  0  0  0  0  0
    6.4079   -6.1961    0.0000 H   0  0  0  0  0  0  0  0  0  0  0  0
  1  2  1  0  0  0  0
  2  3  1  0  0  0  0
  2  4  1  0  0  0  0
  4  5  1  0  0  0  0
  5  6  2  0  0  0  0
  5  7  1  0  0  0  0
  7  8  1  0  0  0  0
  8  9  1  0  0  0  0
  9 10  4  0  0  0  0
 10 11  4  0  0  0  0
 11 12  4  0  0  0  0
 12 13  1  0  0  0  0
 12 14  4  0  0  0  0
 14 15  4  0  0  0  0
  9 15  4  0  0  0  0
 15 16  1  0  0  0  0
  1 17  1  0  0  0  0
  1 18  1  0  0  0  0
  1 19  1  0  0  0  0
  2 20  1  0  0  0  0
  3 21  1  0  0  0  0
  3 22  1  0  0  0  0
  3 23  1  0  0  0  0
  7 24  1  0  0  0  0
  7 25  1  0  0  0  0
 10 26  1  0  0  0  0
 11 27  1  0  0  0  0
 14 28  1  0  0  0  0
M  END
>  <InChIKey>
InChI=1S/C11H12Cl2O3/c1-7(2)16-11(14)6-15-10-4-3-8(12)5-9(10)13/h3-5,7H,6H2,1-2H3

>  <CASRN>
94-11-1

> <Outcome>
1

>  <Index>
3164

>  <StandardizerResult>
Dearomatize (ID: Dearomatize)
Clear Stereo (ID: ClearStereo)
Wedge Clean (ID: WedgeClean)
Mesomerize (ID: Mesomerize)
Tautomerize (ID: Tautomerize)
Aromatize (ID: Aromatize)
Add Explicit Hydrogens (ID: AddExplicitH)
Neutralize (ID: Neutralize)
Clean 2D (ID: Clean2D)

> <knn Distance>


> <CpId>
3164

$$$$
3174
  Mrv1532301301811342D          

 25 25  0  0  0  0            999 V2000
    0.7145    2.9988    0.0000 C   0  0  0  0  0  0  0  0  0  0  0  0
    0.7145    2.1738    0.0000 C   0  0  0  0  0  0  0  0  0  0  0  0
   -0.1105    2.1738    0.0000 C   0  0  0  0  0  0  0  0  0  0  0  0
    1.5395    2.1738    0.0000 C   0  0  0  0  0  0  0  0  0  0  0  0
    0.7145    1.3488    0.0000 C   0  0  0  0  0  0  0  0  0  0  0  0
    1.4290    0.9363    0.0000 C   0  0  0  0  0  0  0  0  0  0  0  0
    1.4290    0.1113    0.0000 C   0  0  0  0  0  0  0  0  0  0  0  0
    0.7145   -0.3012    0.0000 C   0  0  0  0  0  0  0  0  0  0  0  0
    0.0000    0.1113    0.0000 C   0  0  0  0  0  0  0  0  0  0  0  0
    0.0000    0.9363    0.0000 C   0  0  0  0  0  0  0  0  0  0  0  0
   -0.7144    1.3488    0.0000 O   0  0  0  0  0  0  0  0  0  0  0  0
    1.5395    2.9988    0.0000 H   0  0  0  0  0  0  0  0  0  0  0  0
    0.7145    3.8238    0.0000 H   0  0  0  0  0  0  0  0  0  0  0  0
   -0.1105    2.9988    0.0000 H   0  0  0  0  0  0  0  0  0  0  0  0
   -0.8727    2.4895    0.0000 H   0  0  0  0  0  0  0  0  0  0  0  0
   -0.6939    1.5905    0.0000 H   0  0  0  0  0  0  0  0  0  0  0  0
    0.2052    1.4116    0.0000 H   0  0  0  0  0  0  0  0  0  0  0  0
    1.2238    1.4116    0.0000 H   0  0  0  0  0  0  0  0  0  0  0  0
    2.1229    1.5905    0.0000 H   0  0  0  0  0  0  0  0  0  0  0  0
    2.3017    2.4895    0.0000 H   0  0  0  0  0  0  0  0  0  0  0  0
    2.1864    0.6094    0.0000 H   0  0  0  0  0  0  0  0  0  0  0  0
    1.8620   -0.5909    0.0000 H   0  0  0  0  0  0  0  0  0  0  0  0
    0.7145   -1.1262    0.0000 H   0  0  0  0  0  0  0  0  0  0  0  0
   -0.7144   -0.3012    0.0000 H   0  0  0  0  0  0  0  0  0  0  0  0
   -1.4458    0.9670    0.0000 H   0  0  0  0  0  0  0  0  0  0  0  0
  1  2  1  0  0  0  0
  2  3  1  0  0  0  0
  2  4  1  0  0  0  0
  2  5  1  0  0  0  0
  5  6  4  0  0  0  0
  6  7  4  0  0  0  0
  7  8  4  0  0  0  0
  8  9  4  0  0  0  0
  9 10  4  0  0  0  0
  5 10  4  0  0  0  0
 10 11  1  0  0  0  0
  1 12  1  0  0  0  0
  1 13  1  0  0  0  0
  1 14  1  0  0  0  0
  3 15  1  0  0  0  0
  3 16  1  0  0  0  0
  3 17  1  0  0  0  0
  4 18  1  0  0  0  0
  4 19  1  0  0  0  0
  4 20  1  0  0  0  0
  6 21  1  0  0  0  0
  7 22  1  0  0  0  0
  8 23  1  0  0  0  0
  9 24  1  0  0  0  0
 11 25  1  0  0  0  0
M  END
>  <InChIKey>
InChI=1S/C10H14O/c1-10(2,3)8-6-4-5-7-9(8)11/h4-7,11H,1-3H3

>  <CASRN>
88-18-6

> <Outcome>
1

>  <Index>
3174

>  <StandardizerResult>
Dearomatize (ID: Dearomatize)
Clear Stereo (ID: ClearStereo)
Wedge Clean (ID: WedgeClean)
Mesomerize (ID: Mesomerize)
Tautomerize (ID: Tautomerize)
Aromatize (ID: Aromatize)
Add Explicit Hydrogens (ID: AddExplicitH)
Neutralize (ID: Neutralize)
Clean 2D (ID: Clean2D)

> <knn Distance>


> <CpId>
3174

$$$$
3179
  Mrv1532301301811342D          

 18 18  0  0  0  0            999 V2000
   -0.0008    3.2995    0.0000 O   0  0  0  0  0  0  0  0  0  0  0  0
   -0.0008    2.4745    0.0000 C   0  0  0  0  0  0  0  0  0  0  0  0
   -0.7153    2.0620    0.0000 O   0  0  0  0  0  0  0  0  0  0  0  0
    0.7136    2.0620    0.0000 C   0  0  0  0  0  0  0  0  0  0  0  0
    0.7136    1.2370    0.0000 C   0  0  0  0  0  0  0  0  0  0  0  0
    1.4281    0.8245    0.0000 C   0  0  0  0  0  0  0  0  0  0  0  0
    1.4281   -0.0005    0.0000 C   0  0  0  0  0  0  0  0  0  0  0  0
    0.7136   -0.4130    0.0000 C   0  0  0  0  0  0  0  0  0  0  0  0
   -0.0008   -0.0005    0.0000 C   0  0  0  0  0  0  0  0  0  0  0  0
   -0.0008    0.8245    0.0000 C   0  0  0  0  0  0  0  0  0  0  0  0
    0.7136    3.7120    0.0000 H   0  0  0  0  0  0  0  0  0  0  0  0
    1.5372    2.1100    0.0000 H   0  0  0  0  0  0  0  0  0  0  0  0
    1.1670    2.7513    0.0000 H   0  0  0  0  0  0  0  0  0  0  0  0
    2.1426    1.2370    0.0000 H   0  0  0  0  0  0  0  0  0  0  0  0
    2.1426   -0.4130    0.0000 H   0  0  0  0  0  0  0  0  0  0  0  0
    0.7136   -1.2380    0.0000 H   0  0  0  0  0  0  0  0  0  0  0  0
   -0.7153   -0.4130    0.0000 H   0  0  0  0  0  0  0  0  0  0  0  0
   -0.7153    1.2370    0.0000 H   0  0  0  0  0  0  0  0  0  0  0  0
  1  2  1  0  0  0  0
  2  3  2  0  0  0  0
  2  4  1  0  0  0  0
  4  5  1  0  0  0  0
  5  6  4  0  0  0  0
  6  7  4  0  0  0  0
  7  8  4  0  0  0  0
  8  9  4  0  0  0  0
  9 10  4  0  0  0  0
  5 10  4  0  0  0  0
  1 11  1  0  0  0  0
  4 12  1  0  0  0  0
  4 13  1  0  0  0  0
  6 14  1  0  0  0  0
  7 15  1  0  0  0  0
  8 16  1  0  0  0  0
  9 17  1  0  0  0  0
 10 18  1  0  0  0  0
M  END
>  <InChIKey>
InChI=1S/C8H8O2/c9-8(10)6-7-4-2-1-3-5-7/h1-5H,6H2,(H,9,10)

>  <CASRN>
103-82-2

> <Outcome>
1

>  <Index>
3179

>  <StandardizerResult>
Dearomatize (ID: Dearomatize)
Clear Stereo (ID: ClearStereo)
Wedge Clean (ID: WedgeClean)
Mesomerize (ID: Mesomerize)
Tautomerize (ID: Tautomerize)
Aromatize (ID: Aromatize)
Add Explicit Hydrogens (ID: AddExplicitH)
Neutralize (ID: Neutralize)
Clean 2D (ID: Clean2D)

> <knn Distance>


> <CpId>
3179

$$$$
3180
  Mrv1532301301811342D          

 45 47  0  0  0  0            999 V2000
   -5.3958    2.1913    0.0000 C   0  0  0  0  0  0  0  0  0  0  0  0
   -4.6814    1.7788    0.0000 C   0  0  0  0  0  0  0  0  0  0  0  0
   -3.9669    2.1913    0.0000 C   0  0  0  0  0  0  0  0  0  0  0  0
   -3.2524    1.7788    0.0000 C   0  0  0  0  0  0  0  0  0  0  0  0
   -2.5380    2.1913    0.0000 C   0  0  0  0  0  0  0  0  0  0  0  0
   -2.5380    3.0163    0.0000 C   0  0  0  0  0  0  0  0  0  0  0  0
   -3.2524    3.4288    0.0000 C   0  0  0  0  0  0  0  0  0  0  0  0
   -1.8235    1.7788    0.0000 C   0  0  0  0  0  0  0  0  0  0  0  0
   -1.1090    2.1913    0.0000 N   0  0  0  0  0  0  0  0  0  0  0  0
   -0.3553    1.8558    0.0000 C   0  0  0  0  0  0  0  0  0  0  0  0
   -0.1838    1.0488    0.0000 O   0  0  0  0  0  0  0  0  0  0  0  0
    0.1967    2.4689    0.0000 C   0  0  0  0  0  0  0  0  0  0  0  0
    1.0217    2.4689    0.0000 C   0  0  0  0  0  0  0  0  0  0  0  0
    0.4306    3.0802    0.0000 C   0  0  0  0  0  0  0  0  0  0  0  0
    0.1967    3.8978    0.0000 C   0  0  0  0  0  0  0  0  0  0  0  0
    1.0217    3.8978    0.0000 C   0  0  0  0  0  0  0  0  0  0  0  0
    1.4342    3.1833    0.0000 C   0  0  0  0  0  0  0  0  0  0  0  0
   -0.2158    3.1833    0.0000 C   0  0  0  0  0  0  0  0  0  0  0  0
   -1.0228    3.0118    0.0000 C   0  0  0  0  0  0  0  0  0  0  0  0
   -1.6359    3.5638    0.0000 O   0  0  0  0  0  0  0  0  0  0  0  0
   -4.9833    2.9058    0.0000 H   0  0  0  0  0  0  0  0  0  0  0  0
   -6.1103    2.6038    0.0000 H   0  0  0  0  0  0  0  0  0  0  0  0
   -5.8083    1.4768    0.0000 H   0  0  0  0  0  0  0  0  0  0  0  0
   -5.0516    1.0416    0.0000 H   0  0  0  0  0  0  0  0  0  0  0  0
   -4.3111    1.0416    0.0000 H   0  0  0  0  0  0  0  0  0  0  0  0
   -3.5966    2.9286    0.0000 H   0  0  0  0  0  0  0  0  0  0  0  0
   -4.3372    2.9286    0.0000 H   0  0  0  0  0  0  0  0  0  0  0  0
   -3.6227    1.0416    0.0000 H   0  0  0  0  0  0  0  0  0  0  0  0
   -2.8822    1.0416    0.0000 H   0  0  0  0  0  0  0  0  0  0  0  0
   -3.2524    2.6038    0.0000 H   0  0  0  0  0  0  0  0  0  0  0  0
   -1.7144    3.0643    0.0000 H   0  0  0  0  0  0  0  0  0  0  0  0
   -2.0846    3.7056    0.0000 H   0  0  0  0  0  0  0  0  0  0  0  0
   -2.5881    3.9180    0.0000 H   0  0  0  0  0  0  0  0  0  0  0  0
   -3.4343    4.2335    0.0000 H   0  0  0  0  0  0  0  0  0  0  0  0
   -4.0626    3.5848    0.0000 H   0  0  0  0  0  0  0  0  0  0  0  0
   -2.1937    1.0416    0.0000 H   0  0  0  0  0  0  0  0  0  0  0  0
   -1.4532    1.0416    0.0000 H   0  0  0  0  0  0  0  0  0  0  0  0
    0.5322    1.7152    0.0000 H   0  0  0  0  0  0  0  0  0  0  0  0
    1.7251    2.0378    0.0000 H   0  0  0  0  0  0  0  0  0  0  0  0
    1.2528    3.1475    0.0000 H   0  0  0  0  0  0  0  0  0  0  0  0
    0.9000    3.7586    0.0000 H   0  0  0  0  0  0  0  0  0  0  0  0
   -0.2158    4.6123    0.0000 H   0  0  0  0  0  0  0  0  0  0  0  0
    1.4342    4.6123    0.0000 H   0  0  0  0  0  0  0  0  0  0  0  0
    2.2592    3.1833    0.0000 H   0  0  0  0  0  0  0  0  0  0  0  0
   -0.7007    3.8508    0.0000 H   0  0  0  0  0  0  0  0  0  0  0  0
  1  2  1  0  0  0  0
  2  3  1  0  0  0  0
  3  4  1  0  0  0  0
  4  5  1  0  0  0  0
  5  6  1  0  0  0  0
  6  7  1  0  0  0  0
  5  8  1  0  0  0  0
  8  9  1  0  0  0  0
  9 10  1  0  0  0  0
 10 11  2  0  0  0  0
 10 12  1  0  0  0  0
 12 13  1  0  0  0  0
 13 14  1  0  0  0  0
 14 15  1  0  0  0  0
 15 16  1  0  0  0  0
 16 17  2  0  0  0  0
 13 17  1  0  0  0  0
 15 18  1  0  0  0  0
 12 18  1  0  0  0  0
 18 19  1  0  0  0  0
  9 19  1  0  0  0  0
 19 20  2  0  0  0  0
  1 21  1  0  0  0  0
  1 22  1  0  0  0  0
  1 23  1  0  0  0  0
  2 24  1  0  0  0  0
  2 25  1  0  0  0  0
  3 26  1  0  0  0  0
  3 27  1  0  0  0  0
  4 28  1  0  0  0  0
  4 29  1  0  0  0  0
  5 30  1  0  0  0  0
  6 31  1  0  0  0  0
  6 32  1  0  0  0  0
  7 33  1  0  0  0  0
  7 34  1  0  0  0  0
  7 35  1  0  0  0  0
  8 36  1  0  0  0  0
  8 37  1  0  0  0  0
 12 38  1  0  0  0  0
 13 39  1  0  0  0  0
 14 40  1  0  0  0  0
 14 41  1  0  0  0  0
 15 42  1  0  0  0  0
 16 43  1  0  0  0  0
 17 44  1  0  0  0  0
 18 45  1  0  0  0  0
M  END
>  <InChIKey>
InChI=1S/C17H25NO2/c1-3-5-6-11(4-2)10-18-16(19)14-12-7-8-13(9-12)15(14)17(18)20/h7-8,11-15H,3-6,9-10H2,1-2H3

>  <CASRN>
113-48-4

> <Outcome>
1

>  <Index>
3180

>  <StandardizerResult>
Clear Stereo (ID: ClearStereo)
Wedge Clean (ID: WedgeClean)
Mesomerize (ID: Mesomerize)
Tautomerize (ID: Tautomerize)
Add Explicit Hydrogens (ID: AddExplicitH)
Neutralize (ID: Neutralize)
Clean 2D (ID: Clean2D)

> <knn Distance>


> <CpId>
3180

$$$$
3184
  Mrv1532301301811342D          

 20 19  0  0  0  0            999 V2000
    0.0978   -1.9733    0.0000 C   0  0  0  0  0  0  0  0  0  0  0  0
    0.0978   -1.1483    0.0000 C   0  0  0  0  0  0  0  0  0  0  0  0
   -0.6167   -0.7358    0.0000 O   0  0  0  0  0  0  0  0  0  0  0  0
    0.8122   -0.7358    0.0000 O   0  0  0  0  0  0  0  0  0  0  0  0
    0.8122    0.0892    0.0000 C   0  0  0  0  0  0  0  0  0  0  0  0
    0.8122    0.9142    0.0000 C   0  0  0  0  0  0  0  0  0  0  0  0
    1.6372    0.0892    0.0000 C   0  0  0  0  0  0  0  0  0  0  0  0
   -0.0128    0.0892    0.0000 C   0  0  0  0  0  0  0  0  0  0  0  0
   -0.7272   -1.9733    0.0000 H   0  0  0  0  0  0  0  0  0  0  0  0
    0.0978   -2.7983    0.0000 H   0  0  0  0  0  0  0  0  0  0  0  0
    0.9228   -1.9733    0.0000 H   0  0  0  0  0  0  0  0  0  0  0  0
    1.6372    0.9142    0.0000 H   0  0  0  0  0  0  0  0  0  0  0  0
    0.8122    1.7392    0.0000 H   0  0  0  0  0  0  0  0  0  0  0  0
   -0.0128    0.9142    0.0000 H   0  0  0  0  0  0  0  0  0  0  0  0
    1.3215   -0.6730    0.0000 H   0  0  0  0  0  0  0  0  0  0  0  0
    2.2206   -0.4941    0.0000 H   0  0  0  0  0  0  0  0  0  0  0  0
    2.3994    0.4050    0.0000 H   0  0  0  0  0  0  0  0  0  0  0  0
   -0.7750    0.4050    0.0000 H   0  0  0  0  0  0  0  0  0  0  0  0
   -0.5961   -0.4941    0.0000 H   0  0  0  0  0  0  0  0  0  0  0  0
    0.3030   -0.6730    0.0000 H   0  0  0  0  0  0  0  0  0  0  0  0
  1  2  1  0  0  0  0
  2  3  2  0  0  0  0
  2  4  1  0  0  0  0
  4  5  1  0  0  0  0
  5  6  1  0  0  0  0
  5  7  1  0  0  0  0
  5  8  1  0  0  0  0
  1  9  1  0  0  0  0
  1 10  1  0  0  0  0
  1 11  1  0  0  0  0
  6 12  1  0  0  0  0
  6 13  1  0  0  0  0
  6 14  1  0  0  0  0
  7 15  1  0  0  0  0
  7 16  1  0  0  0  0
  7 17  1  0  0  0  0
  8 18  1  0  0  0  0
  8 19  1  0  0  0  0
  8 20  1  0  0  0  0
M  END
>  <InChIKey>
InChI=1S/C6H12O2/c1-5(7)8-6(2,3)4/h1-4H3

>  <CASRN>
540-88-5

> <Outcome>
1

>  <Index>
3184

>  <StandardizerResult>
Clear Stereo (ID: ClearStereo)
Wedge Clean (ID: WedgeClean)
Mesomerize (ID: Mesomerize)
Tautomerize (ID: Tautomerize)
Add Explicit Hydrogens (ID: AddExplicitH)
Neutralize (ID: Neutralize)
Clean 2D (ID: Clean2D)

> <knn Distance>


> <CpId>
3184

$$$$
3186
  Mrv1532301301811342D          

 15 14  0  0  0  0            999 V2000
    0.8394   -0.7774    0.0000 C   0  0  0  0  0  0  0  0  0  0  0  0
    0.8394    0.0476    0.0000 C   0  0  0  0  0  0  0  0  0  0  0  0
    0.8394    0.8726    0.0000 C   0  0  0  0  0  0  0  0  0  0  0  0
    1.6644    0.0476    0.0000 C   0  0  0  0  0  0  0  0  0  0  0  0
    0.0144    0.0476    0.0000 S   0  0  0  0  0  0  0  0  0  0  0  0
    0.0144   -0.7774    0.0000 H   0  0  0  0  0  0  0  0  0  0  0  0
    0.8394   -1.6024    0.0000 H   0  0  0  0  0  0  0  0  0  0  0  0
    1.6644   -0.7774    0.0000 H   0  0  0  0  0  0  0  0  0  0  0  0
    1.6644    0.8726    0.0000 H   0  0  0  0  0  0  0  0  0  0  0  0
    0.8394    1.6976    0.0000 H   0  0  0  0  0  0  0  0  0  0  0  0
    0.0144    0.8726    0.0000 H   0  0  0  0  0  0  0  0  0  0  0  0
    2.2477   -0.5357    0.0000 H   0  0  0  0  0  0  0  0  0  0  0  0
    2.4894    0.0476    0.0000 H   0  0  0  0  0  0  0  0  0  0  0  0
    2.2477    0.6310    0.0000 H   0  0  0  0  0  0  0  0  0  0  0  0
   -0.8106    0.0476    0.0000 H   0  0  0  0  0  0  0  0  0  0  0  0
  1  2  1  0  0  0  0
  2  3  1  0  0  0  0
  2  4  1  0  0  0  0
  2  5  1  0  0  0  0
  1  6  1  0  0  0  0
  1  7  1  0  0  0  0
  1  8  1  0  0  0  0
  3  9  1  0  0  0  0
  3 10  1  0  0  0  0
  3 11  1  0  0  0  0
  4 12  1  0  0  0  0
  4 13  1  0  0  0  0
  4 14  1  0  0  0  0
  5 15  1  0  0  0  0
M  END
>  <InChIKey>
InChI=1S/C4H10S/c1-4(2,3)5/h5H,1-3H3

>  <CASRN>
75-66-1

> <Outcome>
1

>  <Index>
3186

>  <StandardizerResult>
Clear Stereo (ID: ClearStereo)
Wedge Clean (ID: WedgeClean)
Mesomerize (ID: Mesomerize)
Tautomerize (ID: Tautomerize)
Add Explicit Hydrogens (ID: AddExplicitH)
Neutralize (ID: Neutralize)
Clean 2D (ID: Clean2D)

> <knn Distance>


> <CpId>
3186

$$$$
3187
  Mrv1532301301811342D          

 39 38  0  0  0  0            999 V2000
    5.4730    3.9854    0.0000 C   0  0  0  0  0  0  0  0  0  0  0  0
    6.1875    3.5729    0.0000 C   0  0  0  0  0  0  0  0  0  0  0  0
    6.9020    3.9854    0.0000 C   0  0  0  0  0  0  0  0  0  0  0  0
    7.6164    3.5729    0.0000 C   0  0  0  0  0  0  0  0  0  0  0  0
    8.3309    3.9854    0.0000 C   0  0  0  0  0  0  0  0  0  0  0  0
    9.0454    3.5729    0.0000 C   0  0  0  0  0  0  0  0  0  0  0  0
    9.7599    3.9854    0.0000 C   0  0  0  0  0  0  0  0  0  0  0  0
   10.4743    3.5729    0.0000 C   0  0  0  0  0  0  0  0  0  0  0  0
   11.1888    3.9854    0.0000 C   0  0  0  0  0  0  0  0  0  0  0  0
   11.9033    3.5729    0.0000 C   0  0  0  0  0  0  0  0  0  0  0  0
   12.6177    3.9854    0.0000 C   0  0  0  0  0  0  0  0  0  0  0  0
   13.3322    3.5729    0.0000 C   0  0  0  0  0  0  0  0  0  0  0  0
   14.0467    3.9854    0.0000 S   0  0  0  0  0  0  0  0  0  0  0  0
    5.8855    4.6998    0.0000 H   0  0  0  0  0  0  0  0  0  0  0  0
    4.7586    4.3979    0.0000 H   0  0  0  0  0  0  0  0  0  0  0  0
    5.0605    3.2709    0.0000 H   0  0  0  0  0  0  0  0  0  0  0  0
    5.8172    2.8356    0.0000 H   0  0  0  0  0  0  0  0  0  0  0  0
    6.5578    2.8356    0.0000 H   0  0  0  0  0  0  0  0  0  0  0  0
    7.2722    4.7226    0.0000 H   0  0  0  0  0  0  0  0  0  0  0  0
    6.5317    4.7226    0.0000 H   0  0  0  0  0  0  0  0  0  0  0  0
    7.2462    2.8356    0.0000 H   0  0  0  0  0  0  0  0  0  0  0  0
    7.9867    2.8356    0.0000 H   0  0  0  0  0  0  0  0  0  0  0  0
    8.7012    4.7226    0.0000 H   0  0  0  0  0  0  0  0  0  0  0  0
    7.9607    4.7226    0.0000 H   0  0  0  0  0  0  0  0  0  0  0  0
    8.6751    2.8356    0.0000 H   0  0  0  0  0  0  0  0  0  0  0  0
    9.4156    2.8356    0.0000 H   0  0  0  0  0  0  0  0  0  0  0  0
   10.1301    4.7226    0.0000 H   0  0  0  0  0  0  0  0  0  0  0  0
    9.3896    4.7226    0.0000 H   0  0  0  0  0  0  0  0  0  0  0  0
   10.1041    2.8356    0.0000 H   0  0  0  0  0  0  0  0  0  0  0  0
   10.8446    2.8356    0.0000 H   0  0  0  0  0  0  0  0  0  0  0  0
   11.5591    4.7226    0.0000 H   0  0  0  0  0  0  0  0  0  0  0  0
   10.8185    4.7226    0.0000 H   0  0  0  0  0  0  0  0  0  0  0  0
   11.5330    2.8356    0.0000 H   0  0  0  0  0  0  0  0  0  0  0  0
   12.2735    2.8356    0.0000 H   0  0  0  0  0  0  0  0  0  0  0  0
   12.9880    4.7226    0.0000 H   0  0  0  0  0  0  0  0  0  0  0  0
   12.2475    4.7226    0.0000 H   0  0  0  0  0  0  0  0  0  0  0  0
   12.9619    2.8356    0.0000 H   0  0  0  0  0  0  0  0  0  0  0  0
   13.7025    2.8356    0.0000 H   0  0  0  0  0  0  0  0  0  0  0  0
   14.7611    3.5729    0.0000 H   0  0  0  0  0  0  0  0  0  0  0  0
  1  2  1  0  0  0  0
  2  3  1  0  0  0  0
  3  4  1  0  0  0  0
  4  5  1  0  0  0  0
  5  6  1  0  0  0  0
  6  7  1  0  0  0  0
  7  8  1  0  0  0  0
  8  9  1  0  0  0  0
  9 10  1  0  0  0  0
 10 11  1  0  0  0  0
 11 12  1  0  0  0  0
 12 13  1  0  0  0  0
  1 14  1  0  0  0  0
  1 15  1  0  0  0  0
  1 16  1  0  0  0  0
  2 17  1  0  0  0  0
  2 18  1  0  0  0  0
  3 19  1  0  0  0  0
  3 20  1  0  0  0  0
  4 21  1  0  0  0  0
  4 22  1  0  0  0  0
  5 23  1  0  0  0  0
  5 24  1  0  0  0  0
  6 25  1  0  0  0  0
  6 26  1  0  0  0  0
  7 27  1  0  0  0  0
  7 28  1  0  0  0  0
  8 29  1  0  0  0  0
  8 30  1  0  0  0  0
  9 31  1  0  0  0  0
  9 32  1  0  0  0  0
 10 33  1  0  0  0  0
 10 34  1  0  0  0  0
 11 35  1  0  0  0  0
 11 36  1  0  0  0  0
 12 37  1  0  0  0  0
 12 38  1  0  0  0  0
 13 39  1  0  0  0  0
M  END
>  <InChIKey>
InChI=1S/C12H26S/c1-2-3-4-5-6-7-8-9-10-11-12-13/h13H,2-12H2,1H3

>  <CASRN>
112-55-0

> <Outcome>
1

>  <Index>
3187

>  <StandardizerResult>
Clear Stereo (ID: ClearStereo)
Wedge Clean (ID: WedgeClean)
Mesomerize (ID: Mesomerize)
Tautomerize (ID: Tautomerize)
Add Explicit Hydrogens (ID: AddExplicitH)
Neutralize (ID: Neutralize)
Clean 2D (ID: Clean2D)

> <knn Distance>


> <CpId>
3187

$$$$
3189
  Mrv1532301301811342D          

 25 25  0  0  0  0            999 V2000
   -0.6482    2.1128    0.0000 C   0  0  0  0  0  0  0  0  0  0  0  0
    0.0662    2.5253    0.0000 C   0  0  0  0  0  0  0  0  0  0  0  0
    0.7807    2.1128    0.0000 O   0  0  0  0  0  0  0  0  0  0  0  0
    0.7807    1.2878    0.0000 C   0  0  0  0  0  0  0  0  0  0  0  0
    1.4952    0.8753    0.0000 C   0  0  0  0  0  0  0  0  0  0  0  0
    1.4952    0.0503    0.0000 C   0  0  0  0  0  0  0  0  0  0  0  0
    0.7807   -0.3622    0.0000 C   0  0  0  0  0  0  0  0  0  0  0  0
    0.7807   -1.1872    0.0000 Cl  0  0  0  0  0  0  0  0  0  0  0  0
    0.0662    0.0503    0.0000 C   0  0  0  0  0  0  0  0  0  0  0  0
    0.0662    0.8753    0.0000 C   0  0  0  0  0  0  0  0  0  0  0  0
   -0.6482    1.2878    0.0000 C   0  0  0  0  0  0  0  0  0  0  0  0
    0.0662    3.3503    0.0000 C   0  0  0  0  0  0  0  0  0  0  0  0
   -0.6482    3.7628    0.0000 O   0  0  0  0  0  0  0  0  0  0  0  0
    0.7807    3.7628    0.0000 O   0  0  0  0  0  0  0  0  0  0  0  0
   -0.6482    2.9378    0.0000 H   0  0  0  0  0  0  0  0  0  0  0  0
   -1.3627    2.5253    0.0000 H   0  0  0  0  0  0  0  0  0  0  0  0
   -1.3627    1.7003    0.0000 H   0  0  0  0  0  0  0  0  0  0  0  0
    0.0662    1.7003    0.0000 H   0  0  0  0  0  0  0  0  0  0  0  0
    2.2096    1.2878    0.0000 H   0  0  0  0  0  0  0  0  0  0  0  0
    2.2096   -0.3622    0.0000 H   0  0  0  0  0  0  0  0  0  0  0  0
   -0.6482   -0.3622    0.0000 H   0  0  0  0  0  0  0  0  0  0  0  0
   -1.4451    1.0743    0.0000 H   0  0  0  0  0  0  0  0  0  0  0  0
   -1.0607    0.5733    0.0000 H   0  0  0  0  0  0  0  0  0  0  0  0
   -0.4347    0.4909    0.0000 H   0  0  0  0  0  0  0  0  0  0  0  0
   -1.0607    4.4773    0.0000 H   0  0  0  0  0  0  0  0  0  0  0  0
  1  2  1  0  0  0  0
  2  3  1  0  0  0  0
  3  4  1  0  0  0  0
  4  5  4  0  0  0  0
  5  6  4  0  0  0  0
  6  7  4  0  0  0  0
  7  8  1  0  0  0  0
  7  9  4  0  0  0  0
  9 10  4  0  0  0  0
  4 10  4  0  0  0  0
 10 11  1  0  0  0  0
  2 12  1  0  0  0  0
 12 13  1  0  0  0  0
 12 14  2  0  0  0  0
  1 15  1  0  0  0  0
  1 16  1  0  0  0  0
  1 17  1  0  0  0  0
  2 18  1  0  0  0  0
  5 19  1  0  0  0  0
  6 20  1  0  0  0  0
  9 21  1  0  0  0  0
 11 22  1  0  0  0  0
 11 23  1  0  0  0  0
 11 24  1  0  0  0  0
 13 25  1  0  0  0  0
M  END
>  <InChIKey>
InChI=1S/C10H11ClO3/c1-6-5-8(11)3-4-9(6)14-7(2)10(12)13/h3-5,7H,1-2H3,(H,12,13)

>  <CASRN>
93-65-2

> <Outcome>
1

>  <Index>
3189

>  <StandardizerResult>
Dearomatize (ID: Dearomatize)
Clear Stereo (ID: ClearStereo)
Wedge Clean (ID: WedgeClean)
Mesomerize (ID: Mesomerize)
Tautomerize (ID: Tautomerize)
Aromatize (ID: Aromatize)
Add Explicit Hydrogens (ID: AddExplicitH)
Neutralize (ID: Neutralize)
Clean 2D (ID: Clean2D)

> <knn Distance>


> <CpId>
3189

$$$$
3191
  Mrv1532301301811342D          

 28 27  0  0  0  0            999 V2000
    0.3948    3.6434    0.0000 C   0  0  0  0  0  0  0  0  0  0  0  0
    0.8073    2.9289    0.0000 C   0  0  0  0  0  0  0  0  0  0  0  0
    1.6323    2.9289    0.0000 C   0  0  0  0  0  0  0  0  0  0  0  0
    0.3948    2.2144    0.0000 O   0  0  0  0  0  0  0  0  0  0  0  0
    0.8073    1.4999    0.0000 P   0  0  0  0  0  0  0  0  0  0  0  0
    0.0929    1.0874    0.0000 C   0  0  0  0  0  0  0  0  0  0  0  0
    1.5218    1.9124    0.0000 O   0  0  0  0  0  0  0  0  0  0  0  0
    1.2198    0.7855    0.0000 O   0  0  0  0  0  0  0  0  0  0  0  0
    0.8073    0.0710    0.0000 C   0  0  0  0  0  0  0  0  0  0  0  0
    1.2198   -0.6435    0.0000 C   0  0  0  0  0  0  0  0  0  0  0  0
   -0.0177    0.0710    0.0000 C   0  0  0  0  0  0  0  0  0  0  0  0
    1.1093    4.0559    0.0000 H   0  0  0  0  0  0  0  0  0  0  0  0
   -0.0177    4.3578    0.0000 H   0  0  0  0  0  0  0  0  0  0  0  0
   -0.3196    3.2309    0.0000 H   0  0  0  0  0  0  0  0  0  0  0  0
    1.2198    3.6434    0.0000 H   0  0  0  0  0  0  0  0  0  0  0  0
    1.4188    2.1320    0.0000 H   0  0  0  0  0  0  0  0  0  0  0  0
    2.3468    2.5164    0.0000 H   0  0  0  0  0  0  0  0  0  0  0  0
    2.2157    3.5122    0.0000 H   0  0  0  0  0  0  0  0  0  0  0  0
   -0.3196    1.8019    0.0000 H   0  0  0  0  0  0  0  0  0  0  0  0
   -0.6216    0.6749    0.0000 H   0  0  0  0  0  0  0  0  0  0  0  0
    0.5054    0.3730    0.0000 H   0  0  0  0  0  0  0  0  0  0  0  0
    1.6323    0.0710    0.0000 H   0  0  0  0  0  0  0  0  0  0  0  0
    0.4229   -0.8570    0.0000 H   0  0  0  0  0  0  0  0  0  0  0  0
    1.2198   -1.4685    0.0000 H   0  0  0  0  0  0  0  0  0  0  0  0
    2.0167   -0.8570    0.0000 H   0  0  0  0  0  0  0  0  0  0  0  0
   -0.8268   -0.0899    0.0000 H   0  0  0  0  0  0  0  0  0  0  0  0
   -0.3334   -0.6912    0.0000 H   0  0  0  0  0  0  0  0  0  0  0  0
    0.4407   -0.6150    0.0000 H   0  0  0  0  0  0  0  0  0  0  0  0
  1  2  1  0  0  0  0
  2  3  1  0  0  0  0
  2  4  1  0  0  0  0
  4  5  1  0  0  0  0
  5  6  1  0  0  0  0
  5  7  2  0  0  0  0
  5  8  1  0  0  0  0
  8  9  1  0  0  0  0
  9 10  1  0  0  0  0
  9 11  1  0  0  0  0
  1 12  1  0  0  0  0
  1 13  1  0  0  0  0
  1 14  1  0  0  0  0
  2 15  1  0  0  0  0
  3 16  1  0  0  0  0
  3 17  1  0  0  0  0
  3 18  1  0  0  0  0
  6 19  1  0  0  0  0
  6 20  1  0  0  0  0
  6 21  1  0  0  0  0
  9 22  1  0  0  0  0
 10 23  1  0  0  0  0
 10 24  1  0  0  0  0
 10 25  1  0  0  0  0
 11 26  1  0  0  0  0
 11 27  1  0  0  0  0
 11 28  1  0  0  0  0
M  END
>  <InChIKey>
InChI=1S/C7H17O3P/c1-6(2)9-11(5,8)10-7(3)4/h6-7H,1-5H3

>  <CASRN>
1445-75-6

> <Outcome>
1

>  <Index>
3191

>  <StandardizerResult>
Clear Stereo (ID: ClearStereo)
Wedge Clean (ID: WedgeClean)
Mesomerize (ID: Mesomerize)
Tautomerize (ID: Tautomerize)
Add Explicit Hydrogens (ID: AddExplicitH)
Neutralize (ID: Neutralize)
Clean 2D (ID: Clean2D)

> <knn Distance>


> <CpId>
3191

$$$$
3195
  Mrv1532301301811342D          

 30 32  0  0  0  0            999 V2000
    0.4449    6.4547    0.0000 C   0  0  0  0  0  0  0  0  0  0  0  0
    1.1594    6.8672    0.0000 O   0  0  0  0  0  0  0  0  0  0  0  0
    1.8739    6.4547    0.0000 C   0  0  0  0  0  0  0  0  0  0  0  0
    2.5884    6.8672    0.0000 C   0  0  0  0  0  0  0  0  0  0  0  0
    3.3028    6.4547    0.0000 C   0  0  0  0  0  0  0  0  0  0  0  0
    3.3028    5.6297    0.0000 C   0  0  0  0  0  0  0  0  0  0  0  0
    2.5884    5.2172    0.0000 C   0  0  0  0  0  0  0  0  0  0  0  0
    2.5884    4.3922    0.0000 O   0  0  0  0  0  0  0  0  0  0  0  0
    3.3028    3.9797    0.0000 C   0  0  0  0  0  0  0  0  0  0  0  0
    3.3028    3.1547    0.0000 C   0  0  0  0  0  0  0  0  0  0  0  0
    3.7153    2.4402    0.0000 C   0  0  0  0  0  0  0  0  0  0  0  0
    2.8903    2.4402    0.0000 O   0  0  0  0  0  0  0  0  0  0  0  0
    1.8739    5.6297    0.0000 C   0  0  0  0  0  0  0  0  0  0  0  0
   -0.2695    6.8672    0.0000 C   0  0  0  0  0  0  0  0  0  0  0  0
   -1.0945    6.8672    0.0000 C   0  0  0  0  0  0  0  0  0  0  0  0
   -0.6820    7.5817    0.0000 O   0  0  0  0  0  0  0  0  0  0  0  0
    0.0747    5.7175    0.0000 H   0  0  0  0  0  0  0  0  0  0  0  0
    0.8152    5.7175    0.0000 H   0  0  0  0  0  0  0  0  0  0  0  0
    2.5884    7.6922    0.0000 H   0  0  0  0  0  0  0  0  0  0  0  0
    4.0173    6.8672    0.0000 H   0  0  0  0  0  0  0  0  0  0  0  0
    4.0173    5.2172    0.0000 H   0  0  0  0  0  0  0  0  0  0  0  0
    4.1264    4.0277    0.0000 H   0  0  0  0  0  0  0  0  0  0  0  0
    3.7562    4.6690    0.0000 H   0  0  0  0  0  0  0  0  0  0  0  0
    2.5059    3.3682    0.0000 H   0  0  0  0  0  0  0  0  0  0  0  0
    4.0856    1.7030    0.0000 H   0  0  0  0  0  0  0  0  0  0  0  0
    4.5389    2.4882    0.0000 H   0  0  0  0  0  0  0  0  0  0  0  0
    1.1594    5.2172    0.0000 H   0  0  0  0  0  0  0  0  0  0  0  0
    0.3138    7.4506    0.0000 H   0  0  0  0  0  0  0  0  0  0  0  0
   -1.9181    6.9152    0.0000 H   0  0  0  0  0  0  0  0  0  0  0  0
   -1.4648    6.1300    0.0000 H   0  0  0  0  0  0  0  0  0  0  0  0
  1  2  1  0  0  0  0
  2  3  1  0  0  0  0
  3  4  4  0  0  0  0
  4  5  4  0  0  0  0
  5  6  4  0  0  0  0
  6  7  4  0  0  0  0
  7  8  1  0  0  0  0
  8  9  1  0  0  0  0
  9 10  1  0  0  0  0
 10 11  1  0  0  0  0
 11 12  1  0  0  0  0
 10 12  1  0  0  0  0
  7 13  4  0  0  0  0
  3 13  4  0  0  0  0
  1 14  1  0  0  0  0
 14 15  1  0  0  0  0
 15 16  1  0  0  0  0
 14 16  1  0  0  0  0
  1 17  1  0  0  0  0
  1 18  1  0  0  0  0
  4 19  1  0  0  0  0
  5 20  1  0  0  0  0
  6 21  1  0  0  0  0
  9 22  1  0  0  0  0
  9 23  1  0  0  0  0
 10 24  1  0  0  0  0
 11 25  1  0  0  0  0
 11 26  1  0  0  0  0
 13 27  1  0  0  0  0
 14 28  1  0  0  0  0
 15 29  1  0  0  0  0
 15 30  1  0  0  0  0
M  END
>  <InChIKey>
InChI=1S/C12H14O4/c1-2-9(13-5-11-7-15-11)4-10(3-1)14-6-12-8-16-12/h1-4,11-12H,5-8H2

>  <CASRN>
101-90-6

> <Outcome>
1

>  <Index>
3195

>  <StandardizerResult>
Dearomatize (ID: Dearomatize)
Clear Stereo (ID: ClearStereo)
Wedge Clean (ID: WedgeClean)
Mesomerize (ID: Mesomerize)
Tautomerize (ID: Tautomerize)
Aromatize (ID: Aromatize)
Add Explicit Hydrogens (ID: AddExplicitH)
Neutralize (ID: Neutralize)
Clean 2D (ID: Clean2D)

> <knn Distance>


> <CpId>
3195

$$$$
3196
  Mrv1532301301811342D          

 15 14  0  0  0  0            999 V2000
    2.4744   -1.4300    0.0000 C   0  0  0  0  0  0  0  0  0  0  0  0
    2.0619   -0.7155    0.0000 C   0  0  0  0  0  0  0  0  0  0  0  0
    1.2369   -0.7155    0.0000 C   0  0  0  0  0  0  0  0  0  0  0  0
    0.8244   -0.0010    0.0000 C   0  0  0  0  0  0  0  0  0  0  0  0
   -0.0006   -0.0010    0.0000 S   0  0  0  0  0  0  0  0  0  0  0  0
    1.7599   -1.8425    0.0000 H   0  0  0  0  0  0  0  0  0  0  0  0
    2.8869   -2.1444    0.0000 H   0  0  0  0  0  0  0  0  0  0  0  0
    3.1889   -1.0175    0.0000 H   0  0  0  0  0  0  0  0  0  0  0  0
    2.7512   -0.2621    0.0000 H   0  0  0  0  0  0  0  0  0  0  0  0
    2.1099    0.1081    0.0000 H   0  0  0  0  0  0  0  0  0  0  0  0
    0.5476   -1.1688    0.0000 H   0  0  0  0  0  0  0  0  0  0  0  0
    1.1889   -1.5391    0.0000 H   0  0  0  0  0  0  0  0  0  0  0  0
    1.5137    0.4523    0.0000 H   0  0  0  0  0  0  0  0  0  0  0  0
    0.8724    0.8226    0.0000 H   0  0  0  0  0  0  0  0  0  0  0  0
   -0.4131    0.7135    0.0000 H   0  0  0  0  0  0  0  0  0  0  0  0
  1  2  1  0  0  0  0
  2  3  1  0  0  0  0
  3  4  1  0  0  0  0
  4  5  1  0  0  0  0
  1  6  1  0  0  0  0
  1  7  1  0  0  0  0
  1  8  1  0  0  0  0
  2  9  1  0  0  0  0
  2 10  1  0  0  0  0
  3 11  1  0  0  0  0
  3 12  1  0  0  0  0
  4 13  1  0  0  0  0
  4 14  1  0  0  0  0
  5 15  1  0  0  0  0
M  END
>  <InChIKey>
InChI=1S/C4H10S/c1-2-3-4-5/h5H,2-4H2,1H3

>  <CASRN>
109-79-5

> <Outcome>
1

>  <Index>
3196

>  <StandardizerResult>
Clear Stereo (ID: ClearStereo)
Wedge Clean (ID: WedgeClean)
Mesomerize (ID: Mesomerize)
Tautomerize (ID: Tautomerize)
Add Explicit Hydrogens (ID: AddExplicitH)
Neutralize (ID: Neutralize)
Clean 2D (ID: Clean2D)

> <knn Distance>


> <CpId>
3196

$$$$
3197
  Mrv1532301301811342D          

 15 15  0  0  0  0            999 V2000
    0.7145    2.0625    0.0000 O   0  0  0  0  0  0  0  0  0  0  0  0
    0.7145    1.2375    0.0000 C   0  0  0  0  0  0  0  0  0  0  0  0
    1.4289    0.8250    0.0000 C   0  0  0  0  0  0  0  0  0  0  0  0
    1.4289    0.0000    0.0000 C   0  0  0  0  0  0  0  0  0  0  0  0
    0.7145   -0.4125    0.0000 C   0  0  0  0  0  0  0  0  0  0  0  0
   -0.0000    0.0000    0.0000 C   0  0  0  0  0  0  0  0  0  0  0  0
   -0.7145   -0.4125    0.0000 O   0  0  0  0  0  0  0  0  0  0  0  0
   -0.0000    0.8250    0.0000 C   0  0  0  0  0  0  0  0  0  0  0  0
   -0.7145    1.2375    0.0000 O   0  0  0  0  0  0  0  0  0  0  0  0
    1.4289    2.4750    0.0000 H   0  0  0  0  0  0  0  0  0  0  0  0
    2.1434    1.2375    0.0000 H   0  0  0  0  0  0  0  0  0  0  0  0
    2.1434   -0.4125    0.0000 H   0  0  0  0  0  0  0  0  0  0  0  0
    0.7145   -1.2375    0.0000 H   0  0  0  0  0  0  0  0  0  0  0  0
   -1.4289    0.0000    0.0000 H   0  0  0  0  0  0  0  0  0  0  0  0
   -0.7145    2.0625    0.0000 H   0  0  0  0  0  0  0  0  0  0  0  0
  1  2  1  0  0  0  0
  2  3  4  0  0  0  0
  3  4  4  0  0  0  0
  4  5  4  0  0  0  0
  5  6  4  0  0  0  0
  6  7  1  0  0  0  0
  6  8  4  0  0  0  0
  2  8  4  0  0  0  0
  8  9  1  0  0  0  0
  1 10  1  0  0  0  0
  3 11  1  0  0  0  0
  4 12  1  0  0  0  0
  5 13  1  0  0  0  0
  7 14  1  0  0  0  0
  9 15  1  0  0  0  0
M  END
>  <InChIKey>
InChI=1S/C6H6O3/c7-4-2-1-3-5(8)6(4)9/h1-3,7-9H

>  <CASRN>
87-66-1

> <Outcome>
1

>  <Index>
3197

>  <StandardizerResult>
Dearomatize (ID: Dearomatize)
Clear Stereo (ID: ClearStereo)
Wedge Clean (ID: WedgeClean)
Mesomerize (ID: Mesomerize)
Tautomerize (ID: Tautomerize)
Aromatize (ID: Aromatize)
Add Explicit Hydrogens (ID: AddExplicitH)
Neutralize (ID: Neutralize)
Clean 2D (ID: Clean2D)

> <knn Distance>


> <CpId>
3197

$$$$
3200
  Mrv1532301301811342D          

 19 19  0  0  0  0            999 V2000
    0.0000    3.3000    0.0000 O   0  0  0  0  0  0  0  0  0  0  0  0
    0.0000    2.4750    0.0000 C   0  0  0  0  0  0  0  0  0  0  0  0
    0.7145    2.0625    0.0000 C   0  0  0  0  0  0  0  0  0  0  0  0
    0.7145    1.2375    0.0000 C   0  0  0  0  0  0  0  0  0  0  0  0
    1.4289    0.8250    0.0000 C   0  0  0  0  0  0  0  0  0  0  0  0
    1.4289    0.0000    0.0000 C   0  0  0  0  0  0  0  0  0  0  0  0
    0.7145   -0.4125    0.0000 C   0  0  0  0  0  0  0  0  0  0  0  0
    0.0000    0.0000    0.0000 C   0  0  0  0  0  0  0  0  0  0  0  0
    0.0000    0.8250    0.0000 C   0  0  0  0  0  0  0  0  0  0  0  0
    0.7145    3.7125    0.0000 H   0  0  0  0  0  0  0  0  0  0  0  0
   -0.8236    2.4270    0.0000 H   0  0  0  0  0  0  0  0  0  0  0  0
   -0.4533    1.7857    0.0000 H   0  0  0  0  0  0  0  0  0  0  0  0
    1.5381    2.1105    0.0000 H   0  0  0  0  0  0  0  0  0  0  0  0
    1.1678    2.7518    0.0000 H   0  0  0  0  0  0  0  0  0  0  0  0
    2.1434    1.2375    0.0000 H   0  0  0  0  0  0  0  0  0  0  0  0
    2.1434   -0.4125    0.0000 H   0  0  0  0  0  0  0  0  0  0  0  0
    0.7145   -1.2375    0.0000 H   0  0  0  0  0  0  0  0  0  0  0  0
   -0.7145   -0.4125    0.0000 H   0  0  0  0  0  0  0  0  0  0  0  0
   -0.7145    1.2375    0.0000 H   0  0  0  0  0  0  0  0  0  0  0  0
  1  2  1  0  0  0  0
  2  3  1  0  0  0  0
  3  4  1  0  0  0  0
  4  5  4  0  0  0  0
  5  6  4  0  0  0  0
  6  7  4  0  0  0  0
  7  8  4  0  0  0  0
  8  9  4  0  0  0  0
  4  9  4  0  0  0  0
  1 10  1  0  0  0  0
  2 11  1  0  0  0  0
  2 12  1  0  0  0  0
  3 13  1  0  0  0  0
  3 14  1  0  0  0  0
  5 15  1  0  0  0  0
  6 16  1  0  0  0  0
  7 17  1  0  0  0  0
  8 18  1  0  0  0  0
  9 19  1  0  0  0  0
M  END
>  <InChIKey>
InChI=1S/C8H10O/c9-7-6-8-4-2-1-3-5-8/h1-5,9H,6-7H2

>  <CASRN>
60-12-8

> <Outcome>
1

>  <Index>
3200

>  <StandardizerResult>
Dearomatize (ID: Dearomatize)
Clear Stereo (ID: ClearStereo)
Wedge Clean (ID: WedgeClean)
Mesomerize (ID: Mesomerize)
Tautomerize (ID: Tautomerize)
Aromatize (ID: Aromatize)
Add Explicit Hydrogens (ID: AddExplicitH)
Neutralize (ID: Neutralize)
Clean 2D (ID: Clean2D)

> <knn Distance>


> <CpId>
3200

$$$$
3202
  Mrv1532301301811342D          

 25 25  0  0  0  0            999 V2000
    1.1394    1.7653    0.0000 C   0  0  0  0  0  0  0  0  0  0  0  0
    0.5874    1.1522    0.0000 C   0  0  0  0  0  0  0  0  0  0  0  0
    0.0354    1.7653    0.0000 C   0  0  0  0  0  0  0  0  0  0  0  0
    1.2548    0.6673    0.0000 N   0  0  0  0  0  0  0  0  0  0  0  0
    2.0395    0.9222    0.0000 C   0  0  0  0  0  0  0  0  0  0  0  0
    2.2110    1.7292    0.0000 O   0  0  0  0  0  0  0  0  0  0  0  0
    0.9999   -0.1174    0.0000 C   0  0  0  0  0  0  0  0  0  0  0  0
    1.4848   -0.7848    0.0000 O   0  0  0  0  0  0  0  0  0  0  0  0
    0.1749   -0.1174    0.0000 N   0  0  0  0  0  0  0  0  0  0  0  0
   -0.3100   -0.7848    0.0000 C   0  0  0  0  0  0  0  0  0  0  0  0
    0.0255   -1.5385    0.0000 O   0  0  0  0  0  0  0  0  0  0  0  0
   -0.0800    0.6673    0.0000 C   0  0  0  0  0  0  0  0  0  0  0  0
   -0.8647    0.9222    0.0000 O   0  0  0  0  0  0  0  0  0  0  0  0
    1.7525    1.2132    0.0000 H   0  0  0  0  0  0  0  0  0  0  0  0
    1.6915    2.3784    0.0000 H   0  0  0  0  0  0  0  0  0  0  0  0
    0.5263    2.3173    0.0000 H   0  0  0  0  0  0  0  0  0  0  0  0
   -0.3037    2.5174    0.0000 H   0  0  0  0  0  0  0  0  0  0  0  0
   -0.7896    1.7628    0.0000 H   0  0  0  0  0  0  0  0  0  0  0  0
   -0.2990    1.0111    0.0000 H   0  0  0  0  0  0  0  0  0  0  0  0
    2.3396    0.1537    0.0000 H   0  0  0  0  0  0  0  0  0  0  0  0
    2.8351    0.7040    0.0000 H   0  0  0  0  0  0  0  0  0  0  0  0
    3.0137    1.9194    0.0000 H   0  0  0  0  0  0  0  0  0  0  0  0
   -1.0045   -0.3395    0.0000 H   0  0  0  0  0  0  0  0  0  0  0  0
   -1.0819   -1.0760    0.0000 H   0  0  0  0  0  0  0  0  0  0  0  0
   -0.4594   -2.2059    0.0000 H   0  0  0  0  0  0  0  0  0  0  0  0
  1  2  1  0  0  0  0
  2  3  1  0  0  0  0
  2  4  1  0  0  0  0
  4  5  1  0  0  0  0
  5  6  1  0  0  0  0
  4  7  1  0  0  0  0
  7  8  2  0  0  0  0
  7  9  1  0  0  0  0
  9 10  1  0  0  0  0
 10 11  1  0  0  0  0
  9 12  1  0  0  0  0
  2 12  1  0  0  0  0
 12 13  2  0  0  0  0
  1 14  1  0  0  0  0
  1 15  1  0  0  0  0
  1 16  1  0  0  0  0
  3 17  1  0  0  0  0
  3 18  1  0  0  0  0
  3 19  1  0  0  0  0
  5 20  1  0  0  0  0
  5 21  1  0  0  0  0
  6 22  1  0  0  0  0
 10 23  1  0  0  0  0
 10 24  1  0  0  0  0
 11 25  1  0  0  0  0
M  END
>  <InChIKey>
InChI=1S/C7H12N2O4/c1-7(2)5(12)8(3-10)6(13)9(7)4-11/h10-11H,3-4H2,1-2H3

>  <CASRN>
6440-58-0

> <Outcome>
1

>  <Index>
3202

>  <StandardizerResult>
Clear Stereo (ID: ClearStereo)
Wedge Clean (ID: WedgeClean)
Mesomerize (ID: Mesomerize)
Tautomerize (ID: Tautomerize)
Add Explicit Hydrogens (ID: AddExplicitH)
Neutralize (ID: Neutralize)
Clean 2D (ID: Clean2D)

> <knn Distance>


> <CpId>
3202

$$$$
3204
  Mrv1532301301811342D          

  4  3  0  0  0  0            999 V2000
    0.8250    0.0000    0.0000 C   0  0  0  0  0  0  0  0  0  0  0  0
    0.0000    0.0000    0.0000 O   0  0  0  0  0  0  0  0  0  0  0  0
    1.2375   -0.7145    0.0000 H   0  0  0  0  0  0  0  0  0  0  0  0
    1.2375    0.7145    0.0000 H   0  0  0  0  0  0  0  0  0  0  0  0
  1  2  2  0  0  0  0
  1  3  1  0  0  0  0
  1  4  1  0  0  0  0
M  END
>  <InChIKey>
InChI=1S/CH2O/c1-2/h1H2

>  <UN GHS>
1

>  <CASRN>
50-00-0

> <Outcome>
1

>  <Index>
3204

>  <StandardizerResult>
Mesomerize (ID: Mesomerize)
Tautomerize (ID: Tautomerize)
Add Explicit Hydrogens (ID: AddExplicitH)
Neutralize (ID: Neutralize)
Clean 2D (ID: Clean2D)

> <knn Distance>


> <CpId>
3204

$$$$
3205
  Mrv1532301301811342D          

 10  9  0  0  0  0            999 V2000
    2.8875   -0.7145    0.0000 O   0  0  0  0  0  0  0  0  0  0  0  0
    2.0625   -0.7145    0.0000 C   0  0  0  0  0  0  0  0  0  0  0  0
    1.6500   -0.0000    0.0000 C   0  0  0  0  0  0  0  0  0  0  0  0
    0.8250   -0.0000    0.0000 C   0  0  0  0  0  0  0  0  0  0  0  0
    0.0000   -0.0000    0.0000 N   0  0  0  0  0  0  0  0  0  0  0  0
    3.3000   -1.4290    0.0000 H   0  0  0  0  0  0  0  0  0  0  0  0
    1.3732   -1.1678    0.0000 H   0  0  0  0  0  0  0  0  0  0  0  0
    2.0145   -1.5381    0.0000 H   0  0  0  0  0  0  0  0  0  0  0  0
    2.3393    0.4533    0.0000 H   0  0  0  0  0  0  0  0  0  0  0  0
    1.6980    0.8236    0.0000 H   0  0  0  0  0  0  0  0  0  0  0  0
  1  2  1  0  0  0  0
  2  3  1  0  0  0  0
  3  4  1  0  0  0  0
  4  5  3  0  0  0  0
  1  6  1  0  0  0  0
  2  7  1  0  0  0  0
  2  8  1  0  0  0  0
  3  9  1  0  0  0  0
  3 10  1  0  0  0  0
M  END
>  <InChIKey>
InChI=1S/C3H5NO/c4-2-1-3-5/h5H,1,3H2

>  <CASRN>
109-78-4

> <Outcome>
1

>  <Index>
3205

>  <StandardizerResult>
Clear Stereo (ID: ClearStereo)
Wedge Clean (ID: WedgeClean)
Mesomerize (ID: Mesomerize)
Tautomerize (ID: Tautomerize)
Add Explicit Hydrogens (ID: AddExplicitH)
Neutralize (ID: Neutralize)
Clean 2D (ID: Clean2D)

> <knn Distance>


> <CpId>
3205

$$$$
3206
  Mrv1532301301811342D          

  8  7  0  0  0  0            999 V2000
    2.0625   -0.7145    0.0000 Cl  0  0  0  0  0  0  0  0  0  0  0  0
    1.2375   -0.7145    0.0000 C   0  0  0  0  0  0  0  0  0  0  0  0
    0.8250   -0.0000    0.0000 C   0  0  0  0  0  0  0  0  0  0  0  0
    0.0000   -0.0000    0.0000 Cl  0  0  0  0  0  0  0  0  0  0  0  0
    0.5482   -1.1678    0.0000 H   0  0  0  0  0  0  0  0  0  0  0  0
    1.1895   -1.5381    0.0000 H   0  0  0  0  0  0  0  0  0  0  0  0
    1.5143    0.4533    0.0000 H   0  0  0  0  0  0  0  0  0  0  0  0
    0.8730    0.8236    0.0000 H   0  0  0  0  0  0  0  0  0  0  0  0
  1  2  1  0  0  0  0
  2  3  1  0  0  0  0
  3  4  1  0  0  0  0
  2  5  1  0  0  0  0
  2  6  1  0  0  0  0
  3  7  1  0  0  0  0
  3  8  1  0  0  0  0
M  END
>  <InChIKey>
InChI=1S/C2H4Cl2/c3-1-2-4/h1-2H2

>  <CASRN>
107-06-2

> <Outcome>
1

>  <Index>
3206

>  <StandardizerResult>
Clear Stereo (ID: ClearStereo)
Wedge Clean (ID: WedgeClean)
Mesomerize (ID: Mesomerize)
Tautomerize (ID: Tautomerize)
Add Explicit Hydrogens (ID: AddExplicitH)
Neutralize (ID: Neutralize)
Clean 2D (ID: Clean2D)

> <knn Distance>


> <CpId>
3206

$$$$
3210
  Mrv1532301301811342D          

 55 54  0  0  0  0            999 V2000
    9.1855    6.1283    0.0000 C   0  0  0  0  0  0  0  0  0  0  0  0
    9.9000    5.7158    0.0000 C   0  0  0  0  0  0  0  0  0  0  0  0
   10.6145    6.1283    0.0000 C   0  0  0  0  0  0  0  0  0  0  0  0
   11.3289    5.7158    0.0000 C   0  0  0  0  0  0  0  0  0  0  0  0
   12.0434    6.1283    0.0000 C   0  0  0  0  0  0  0  0  0  0  0  0
   12.7579    5.7158    0.0000 C   0  0  0  0  0  0  0  0  0  0  0  0
   13.4724    6.1283    0.0000 C   0  0  0  0  0  0  0  0  0  0  0  0
   14.1868    5.7158    0.0000 C   0  0  0  0  0  0  0  0  0  0  0  0
   14.9013    6.1283    0.0000 C   0  0  0  0  0  0  0  0  0  0  0  0
   15.6158    5.7158    0.0000 C   0  0  0  0  0  0  0  0  0  0  0  0
   16.3302    6.1283    0.0000 C   0  0  0  0  0  0  0  0  0  0  0  0
   17.0447    5.7158    0.0000 C   0  0  0  0  0  0  0  0  0  0  0  0
   17.7592    6.1283    0.0000 C   0  0  0  0  0  0  0  0  0  0  0  0
   18.4737    5.7158    0.0000 C   0  0  0  0  0  0  0  0  0  0  0  0
   19.1881    6.1283    0.0000 C   0  0  0  0  0  0  0  0  0  0  0  0
   19.9026    5.7158    0.0000 C   0  0  0  0  0  0  0  0  0  0  0  0
   20.6171    6.1283    0.0000 C   0  0  0  0  0  0  0  0  0  0  0  0
   21.3315    5.7158    0.0000 C   0  0  0  0  0  0  0  0  0  0  0  0
   22.0460    6.1283    0.0000 Cl  0  0  0  0  0  0  0  0  0  0  0  0
   21.3315    4.8908    0.0000 O   0  0  0  0  0  0  0  0  0  0  0  0
    9.5980    6.8428    0.0000 H   0  0  0  0  0  0  0  0  0  0  0  0
    8.4711    6.5408    0.0000 H   0  0  0  0  0  0  0  0  0  0  0  0
    8.7730    5.4138    0.0000 H   0  0  0  0  0  0  0  0  0  0  0  0
    9.5297    4.9786    0.0000 H   0  0  0  0  0  0  0  0  0  0  0  0
   10.2703    4.9786    0.0000 H   0  0  0  0  0  0  0  0  0  0  0  0
   10.9847    6.8655    0.0000 H   0  0  0  0  0  0  0  0  0  0  0  0
   10.2442    6.8655    0.0000 H   0  0  0  0  0  0  0  0  0  0  0  0
   10.9587    4.9786    0.0000 H   0  0  0  0  0  0  0  0  0  0  0  0
   11.6992    4.9786    0.0000 H   0  0  0  0  0  0  0  0  0  0  0  0
   12.4137    6.8655    0.0000 H   0  0  0  0  0  0  0  0  0  0  0  0
   11.6732    6.8655    0.0000 H   0  0  0  0  0  0  0  0  0  0  0  0
   12.3876    4.9786    0.0000 H   0  0  0  0  0  0  0  0  0  0  0  0
   13.1281    4.9786    0.0000 H   0  0  0  0  0  0  0  0  0  0  0  0
   13.8426    6.8655    0.0000 H   0  0  0  0  0  0  0  0  0  0  0  0
   13.1021    6.8655    0.0000 H   0  0  0  0  0  0  0  0  0  0  0  0
   13.8166    4.9786    0.0000 H   0  0  0  0  0  0  0  0  0  0  0  0
   14.5571    4.9786    0.0000 H   0  0  0  0  0  0  0  0  0  0  0  0
   15.2716    6.8655    0.0000 H   0  0  0  0  0  0  0  0  0  0  0  0
   14.5310    6.8655    0.0000 H   0  0  0  0  0  0  0  0  0  0  0  0
   15.2455    4.9786    0.0000 H   0  0  0  0  0  0  0  0  0  0  0  0
   15.9860    4.9786    0.0000 H   0  0  0  0  0  0  0  0  0  0  0  0
   16.7005    6.8655    0.0000 H   0  0  0  0  0  0  0  0  0  0  0  0
   15.9600    6.8655    0.0000 H   0  0  0  0  0  0  0  0  0  0  0  0
   16.6745    4.9786    0.0000 H   0  0  0  0  0  0  0  0  0  0  0  0
   17.4150    4.9786    0.0000 H   0  0  0  0  0  0  0  0  0  0  0  0
   18.1294    6.8655    0.0000 H   0  0  0  0  0  0  0  0  0  0  0  0
   17.3889    6.8655    0.0000 H   0  0  0  0  0  0  0  0  0  0  0  0
   18.1034    4.9786    0.0000 H   0  0  0  0  0  0  0  0  0  0  0  0
   18.8439    4.9786    0.0000 H   0  0  0  0  0  0  0  0  0  0  0  0
   19.5584    6.8655    0.0000 H   0  0  0  0  0  0  0  0  0  0  0  0
   18.8179    6.8655    0.0000 H   0  0  0  0  0  0  0  0  0  0  0  0
   19.5323    4.9786    0.0000 H   0  0  0  0  0  0  0  0  0  0  0  0
   20.2729    4.9786    0.0000 H   0  0  0  0  0  0  0  0  0  0  0  0
   20.9873    6.8655    0.0000 H   0  0  0  0  0  0  0  0  0  0  0  0
   20.2468    6.8655    0.0000 H   0  0  0  0  0  0  0  0  0  0  0  0
  1  2  1  0  0  0  0
  2  3  1  0  0  0  0
  3  4  1  0  0  0  0
  4  5  1  0  0  0  0
  5  6  1  0  0  0  0
  6  7  1  0  0  0  0
  7  8  1  0  0  0  0
  8  9  1  0  0  0  0
  9 10  1  0  0  0  0
 10 11  1  0  0  0  0
 11 12  1  0  0  0  0
 12 13  1  0  0  0  0
 13 14  1  0  0  0  0
 14 15  1  0  0  0  0
 15 16  1  0  0  0  0
 16 17  1  0  0  0  0
 17 18  1  0  0  0  0
 18 19  1  0  0  0  0
 18 20  2  0  0  0  0
  1 21  1  0  0  0  0
  1 22  1  0  0  0  0
  1 23  1  0  0  0  0
  2 24  1  0  0  0  0
  2 25  1  0  0  0  0
  3 26  1  0  0  0  0
  3 27  1  0  0  0  0
  4 28  1  0  0  0  0
  4 29  1  0  0  0  0
  5 30  1  0  0  0  0
  5 31  1  0  0  0  0
  6 32  1  0  0  0  0
  6 33  1  0  0  0  0
  7 34  1  0  0  0  0
  7 35  1  0  0  0  0
  8 36  1  0  0  0  0
  8 37  1  0  0  0  0
  9 38  1  0  0  0  0
  9 39  1  0  0  0  0
 10 40  1  0  0  0  0
 10 41  1  0  0  0  0
 11 42  1  0  0  0  0
 11 43  1  0  0  0  0
 12 44  1  0  0  0  0
 12 45  1  0  0  0  0
 13 46  1  0  0  0  0
 13 47  1  0  0  0  0
 14 48  1  0  0  0  0
 14 49  1  0  0  0  0
 15 50  1  0  0  0  0
 15 51  1  0  0  0  0
 16 52  1  0  0  0  0
 16 53  1  0  0  0  0
 17 54  1  0  0  0  0
 17 55  1  0  0  0  0
M  END
>  <InChIKey>
InChI=1S/C18H35ClO/c1-2-3-4-5-6-7-8-9-10-11-12-13-14-15-16-17-18(19)20/h2-17H2,1H3

>  <CASRN>
112-76-5

> <Outcome>
1

>  <Index>
3210

>  <StandardizerResult>
Clear Stereo (ID: ClearStereo)
Wedge Clean (ID: WedgeClean)
Mesomerize (ID: Mesomerize)
Tautomerize (ID: Tautomerize)
Add Explicit Hydrogens (ID: AddExplicitH)
Neutralize (ID: Neutralize)
Clean 2D (ID: Clean2D)

> <knn Distance>


> <CpId>
3210

$$$$
3212
  Mrv1532301301811342D          

 27 26  0  0  0  0            999 V2000
    3.7097    2.1273    0.0000 C   0  0  0  0  0  0  0  0  0  0  0  0
    3.2972    1.4128    0.0000 C   0  0  0  0  0  0  0  0  0  0  0  0
    3.7097    0.6983    0.0000 C   0  0  0  0  0  0  0  0  0  0  0  0
    2.4722    1.4128    0.0000 C   0  0  0  0  0  0  0  0  0  0  0  0
    2.0597    0.6983    0.0000 C   0  0  0  0  0  0  0  0  0  0  0  0
    1.2347    0.6983    0.0000 C   0  0  0  0  0  0  0  0  0  0  0  0
    0.8222   -0.0161    0.0000 C   0  0  0  0  0  0  0  0  0  0  0  0
    1.2347   -0.7306    0.0000 C   0  0  0  0  0  0  0  0  0  0  0  0
   -0.0028   -0.0161    0.0000 C   0  0  0  0  0  0  0  0  0  0  0  0
   -0.4153   -0.7306    0.0000 C   0  0  0  0  0  0  0  0  0  0  0  0
   -0.0028   -1.4451    0.0000 O   0  0  0  0  0  0  0  0  0  0  0  0
    4.4241    1.7148    0.0000 H   0  0  0  0  0  0  0  0  0  0  0  0
    4.1222    2.8417    0.0000 H   0  0  0  0  0  0  0  0  0  0  0  0
    2.9952    2.5398    0.0000 H   0  0  0  0  0  0  0  0  0  0  0  0
    2.9952    0.2858    0.0000 H   0  0  0  0  0  0  0  0  0  0  0  0
    4.1222   -0.0161    0.0000 H   0  0  0  0  0  0  0  0  0  0  0  0
    4.4241    1.1108    0.0000 H   0  0  0  0  0  0  0  0  0  0  0  0
    2.0597    2.1273    0.0000 H   0  0  0  0  0  0  0  0  0  0  0  0
    2.1076   -0.1253    0.0000 H   0  0  0  0  0  0  0  0  0  0  0  0
    2.7489    0.2450    0.0000 H   0  0  0  0  0  0  0  0  0  0  0  0
    1.1867    1.5219    0.0000 H   0  0  0  0  0  0  0  0  0  0  0  0
    0.5454    1.1517    0.0000 H   0  0  0  0  0  0  0  0  0  0  0  0
    0.5202   -1.1431    0.0000 H   0  0  0  0  0  0  0  0  0  0  0  0
    1.6472   -1.4451    0.0000 H   0  0  0  0  0  0  0  0  0  0  0  0
    1.9491   -0.3181    0.0000 H   0  0  0  0  0  0  0  0  0  0  0  0
   -0.4153    0.6983    0.0000 H   0  0  0  0  0  0  0  0  0  0  0  0
   -1.2403   -0.7306    0.0000 H   0  0  0  0  0  0  0  0  0  0  0  0
  1  2  1  0  0  0  0
  2  3  1  0  0  0  0
  2  4  2  0  0  0  0
  4  5  1  0  0  0  0
  5  6  1  0  0  0  0
  6  7  1  0  0  0  0
  7  8  1  0  0  0  0
  7  9  2  0  0  0  0
  9 10  1  4  0  0  0
 10 11  2  0  0  0  0
  1 12  1  0  0  0  0
  1 13  1  0  0  0  0
  1 14  1  0  0  0  0
  3 15  1  0  0  0  0
  3 16  1  0  0  0  0
  3 17  1  0  0  0  0
  4 18  1  0  0  0  0
  5 19  1  0  0  0  0
  5 20  1  0  0  0  0
  6 21  1  0  0  0  0
  6 22  1  0  0  0  0
  8 23  1  0  0  0  0
  8 24  1  0  0  0  0
  8 25  1  0  0  0  0
  9 26  1  0  0  0  0
 10 27  1  0  0  0  0
M  END
>  <InChIKey>
InChI=1S/C10H16O/c1-9(2)5-4-6-10(3)7-8-11/h5,7-8H,4,6H2,1-3H3

>  <CASRN>
5392-40-5

> <Outcome>
1

>  <Index>
3212

>  <StandardizerResult>
Clear Stereo (ID: ClearStereo)
Wedge Clean (ID: WedgeClean)
Mesomerize (ID: Mesomerize)
Tautomerize (ID: Tautomerize)
Add Explicit Hydrogens (ID: AddExplicitH)
Neutralize (ID: Neutralize)
Clean 2D (ID: Clean2D)

> <knn Distance>


> <CpId>
3212

$$$$
3214
  Mrv1532301301811342D          

 10  9  0  0  0  0            999 V2000
    2.0634   -0.7130    0.0000 C   0  0  0  0  0  0  0  0  0  0  0  0
    1.2384   -0.7130    0.0000 C   0  0  0  0  0  0  0  0  0  0  0  0
    0.8259    0.0015    0.0000 N   0  0  0  0  0  0  0  0  0  0  0  0
    0.0009    0.0015    0.0000 C   0  0  0  0  0  0  0  0  0  0  0  0
   -0.8241    0.0015    0.0000 O   0  0  0  0  0  0  0  0  0  0  0  0
    2.0634   -1.5380    0.0000 H   0  0  0  0  0  0  0  0  0  0  0  0
    2.8884   -0.7130    0.0000 H   0  0  0  0  0  0  0  0  0  0  0  0
    2.0634    0.1120    0.0000 H   0  0  0  0  0  0  0  0  0  0  0  0
    0.5491   -1.1663    0.0000 H   0  0  0  0  0  0  0  0  0  0  0  0
    1.1904   -1.5366    0.0000 H   0  0  0  0  0  0  0  0  0  0  0  0
  1  2  1  0  0  0  0
  2  3  1  0  0  0  0
  3  4  2  0  0  0  0
  4  5  2  0  0  0  0
  1  6  1  0  0  0  0
  1  7  1  0  0  0  0
  1  8  1  0  0  0  0
  2  9  1  0  0  0  0
  2 10  1  0  0  0  0
M  END
>  <InChIKey>
InChI=1S/C3H5NO/c1-2-4-3-5/h2H2,1H3

>  <CASRN>
109-90-0

> <Outcome>
1

>  <Index>
3214

>  <StandardizerResult>
Clear Stereo (ID: ClearStereo)
Wedge Clean (ID: WedgeClean)
Mesomerize (ID: Mesomerize)
Tautomerize (ID: Tautomerize)
Add Explicit Hydrogens (ID: AddExplicitH)
Neutralize (ID: Neutralize)
Clean 2D (ID: Clean2D)

> <knn Distance>


> <CpId>
3214

$$$$
3215
  Mrv1532301301811342D          

 29 29  0  0  0  0            999 V2000
   -0.7173    3.7341    0.0000 C   0  0  0  0  0  0  0  0  0  0  0  0
   -0.7173    2.9091    0.0000 N   0  0  0  0  0  0  0  0  0  0  0  0
   -1.4318    2.4966    0.0000 C   0  0  0  0  0  0  0  0  0  0  0  0
   -0.0028    2.4966    0.0000 S   0  0  0  0  0  0  0  0  0  0  0  0
   -0.4153    1.7821    0.0000 O   0  0  0  0  0  0  0  0  0  0  0  0
    0.4097    3.2111    0.0000 O   0  0  0  0  0  0  0  0  0  0  0  0
    0.7116    2.0841    0.0000 N   0  0  0  0  0  0  0  0  0  0  0  0
    1.4261    2.4966    0.0000 S   0  0  0  0  0  0  0  0  0  0  0  0
    2.1406    2.0841    0.0000 C   0  0  0  0  0  0  0  0  0  0  0  0
    1.7281    1.3696    0.0000 F   0  0  0  0  0  0  0  0  0  0  0  0
    2.5531    2.7986    0.0000 Cl  0  0  0  0  0  0  0  0  0  0  0  0
    2.8550    1.6716    0.0000 Cl  0  0  0  0  0  0  0  0  0  0  0  0
    0.7116    1.2591    0.0000 C   0  0  0  0  0  0  0  0  0  0  0  0
    1.4261    0.8466    0.0000 C   0  0  0  0  0  0  0  0  0  0  0  0
    1.4261    0.0216    0.0000 C   0  0  0  0  0  0  0  0  0  0  0  0
    0.7116   -0.3909    0.0000 C   0  0  0  0  0  0  0  0  0  0  0  0
   -0.0028    0.0216    0.0000 C   0  0  0  0  0  0  0  0  0  0  0  0
   -0.0028    0.8466    0.0000 C   0  0  0  0  0  0  0  0  0  0  0  0
    0.1077    3.7341    0.0000 H   0  0  0  0  0  0  0  0  0  0  0  0
   -0.7173    4.5591    0.0000 H   0  0  0  0  0  0  0  0  0  0  0  0
   -1.5423    3.7341    0.0000 H   0  0  0  0  0  0  0  0  0  0  0  0
   -1.8443    3.2111    0.0000 H   0  0  0  0  0  0  0  0  0  0  0  0
   -2.1463    2.0841    0.0000 H   0  0  0  0  0  0  0  0  0  0  0  0
   -1.0193    1.7821    0.0000 H   0  0  0  0  0  0  0  0  0  0  0  0
    2.2230    0.6331    0.0000 H   0  0  0  0  0  0  0  0  0  0  0  0
    2.1406   -0.3909    0.0000 H   0  0  0  0  0  0  0  0  0  0  0  0
    0.7116   -1.2159    0.0000 H   0  0  0  0  0  0  0  0  0  0  0  0
   -0.7173   -0.3909    0.0000 H   0  0  0  0  0  0  0  0  0  0  0  0
   -0.7173    1.2591    0.0000 H   0  0  0  0  0  0  0  0  0  0  0  0
  1  2  1  0  0  0  0
  2  3  1  0  0  0  0
  2  4  1  0  0  0  0
  4  5  2  0  0  0  0
  4  6  2  0  0  0  0
  4  7  1  0  0  0  0
  7  8  1  0  0  0  0
  8  9  1  0  0  0  0
  9 10  1  0  0  0  0
  9 11  1  0  0  0  0
  9 12  1  0  0  0  0
  7 13  1  0  0  0  0
 13 14  4  0  0  0  0
 14 15  4  0  0  0  0
 15 16  4  0  0  0  0
 16 17  4  0  0  0  0
 17 18  4  0  0  0  0
 13 18  4  0  0  0  0
  1 19  1  0  0  0  0
  1 20  1  0  0  0  0
  1 21  1  0  0  0  0
  3 22  1  0  0  0  0
  3 23  1  0  0  0  0
  3 24  1  0  0  0  0
 14 25  1  0  0  0  0
 15 26  1  0  0  0  0
 16 27  1  0  0  0  0
 17 28  1  0  0  0  0
 18 29  1  0  0  0  0
M  END
>  <InChIKey>
InChI=1S/C9H11Cl2FN2O2S2/c1-13(2)18(15,16)14(17-9(10,11)12)8-6-4-3-5-7-8/h3-7H,1-2H3

>  <CASRN>
1085-98-9

> <Outcome>
1

>  <Index>
3215

>  <StandardizerResult>
Dearomatize (ID: Dearomatize)
Clear Stereo (ID: ClearStereo)
Wedge Clean (ID: WedgeClean)
Mesomerize (ID: Mesomerize)
Tautomerize (ID: Tautomerize)
Aromatize (ID: Aromatize)
Add Explicit Hydrogens (ID: AddExplicitH)
Neutralize (ID: Neutralize)
Clean 2D (ID: Clean2D)

> <knn Distance>


> <CpId>
3215

$$$$
3218
  Mrv1532301301811342D          

 16 16  0  0  0  0            999 V2000
   -0.0010    2.4744    0.0000 O   0  0  0  0  0  0  0  0  0  0  0  0
    0.7135    2.0619    0.0000 C   0  0  0  0  0  0  0  0  0  0  0  0
    0.7135    1.2369    0.0000 C   0  0  0  0  0  0  0  0  0  0  0  0
    1.4280    0.8244    0.0000 C   0  0  0  0  0  0  0  0  0  0  0  0
    1.4280   -0.0006    0.0000 C   0  0  0  0  0  0  0  0  0  0  0  0
    0.7135   -0.4131    0.0000 C   0  0  0  0  0  0  0  0  0  0  0  0
   -0.0010   -0.0006    0.0000 C   0  0  0  0  0  0  0  0  0  0  0  0
   -0.0010    0.8244    0.0000 C   0  0  0  0  0  0  0  0  0  0  0  0
   -0.0010    3.2994    0.0000 H   0  0  0  0  0  0  0  0  0  0  0  0
    1.5371    2.1099    0.0000 H   0  0  0  0  0  0  0  0  0  0  0  0
    1.1669    2.7512    0.0000 H   0  0  0  0  0  0  0  0  0  0  0  0
    2.1425    1.2369    0.0000 H   0  0  0  0  0  0  0  0  0  0  0  0
    2.1425   -0.4131    0.0000 H   0  0  0  0  0  0  0  0  0  0  0  0
    0.7135   -1.2381    0.0000 H   0  0  0  0  0  0  0  0  0  0  0  0
   -0.7154   -0.4131    0.0000 H   0  0  0  0  0  0  0  0  0  0  0  0
   -0.7154    1.2369    0.0000 H   0  0  0  0  0  0  0  0  0  0  0  0
  1  2  1  0  0  0  0
  2  3  1  0  0  0  0
  3  4  4  0  0  0  0
  4  5  4  0  0  0  0
  5  6  4  0  0  0  0
  6  7  4  0  0  0  0
  7  8  4  0  0  0  0
  3  8  4  0  0  0  0
  1  9  1  0  0  0  0
  2 10  1  0  0  0  0
  2 11  1  0  0  0  0
  4 12  1  0  0  0  0
  5 13  1  0  0  0  0
  6 14  1  0  0  0  0
  7 15  1  0  0  0  0
  8 16  1  0  0  0  0
M  END
>  <InChIKey>
InChI=1S/C7H8O/c8-6-7-4-2-1-3-5-7/h1-5,8H,6H2

>  <CASRN>
100-51-6

> <Outcome>
1

>  <Index>
3218

>  <StandardizerResult>
Dearomatize (ID: Dearomatize)
Clear Stereo (ID: ClearStereo)
Wedge Clean (ID: WedgeClean)
Mesomerize (ID: Mesomerize)
Tautomerize (ID: Tautomerize)
Aromatize (ID: Aromatize)
Add Explicit Hydrogens (ID: AddExplicitH)
Neutralize (ID: Neutralize)
Clean 2D (ID: Clean2D)

> <knn Distance>


> <CpId>
3218

$$$$
3219
  Mrv1532301301811342D          

 17 16  0  0  0  0            999 V2000
    2.6375    0.7343    0.0000 C   0  0  0  0  0  0  0  0  0  0  0  0
    1.9230    0.3218    0.0000 O   0  0  0  0  0  0  0  0  0  0  0  0
    1.2085    0.7343    0.0000 P   0  0  0  0  0  0  0  0  0  0  0  0
    1.6210    1.4488    0.0000 O   0  0  0  0  0  0  0  0  0  0  0  0
    0.4941    1.1468    0.0000 O   0  0  0  0  0  0  0  0  0  0  0  0
   -0.2204    0.7343    0.0000 C   0  0  0  0  0  0  0  0  0  0  0  0
    0.7960    0.0198    0.0000 O   0  0  0  0  0  0  0  0  0  0  0  0
   -0.0290    0.0198    0.0000 C   0  0  0  0  0  0  0  0  0  0  0  0
    3.0500    0.0198    0.0000 H   0  0  0  0  0  0  0  0  0  0  0  0
    3.3519    1.1468    0.0000 H   0  0  0  0  0  0  0  0  0  0  0  0
    2.2250    1.4488    0.0000 H   0  0  0  0  0  0  0  0  0  0  0  0
   -0.2744    1.5575    0.0000 H   0  0  0  0  0  0  0  0  0  0  0  0
   -0.9826    1.0500    0.0000 H   0  0  0  0  0  0  0  0  0  0  0  0
   -0.8407    0.1903    0.0000 H   0  0  0  0  0  0  0  0  0  0  0  0
   -0.4067   -0.7136    0.0000 H   0  0  0  0  0  0  0  0  0  0  0  0
    0.1899   -0.7756    0.0000 H   0  0  0  0  0  0  0  0  0  0  0  0
    0.4733    0.6743    0.0000 H   0  0  0  0  0  0  0  0  0  0  0  0
  1  2  1  0  0  0  0
  2  3  1  0  0  0  0
  3  4  2  0  0  0  0
  3  5  1  0  0  0  0
  5  6  1  0  0  0  0
  3  7  1  0  0  0  0
  7  8  1  0  0  0  0
  1  9  1  0  0  0  0
  1 10  1  0  0  0  0
  1 11  1  0  0  0  0
  6 12  1  0  0  0  0
  6 13  1  0  0  0  0
  6 14  1  0  0  0  0
  8 15  1  0  0  0  0
  8 16  1  0  0  0  0
  8 17  1  0  0  0  0
M  END
>  <InChIKey>
InChI=1S/C3H9O4P/c1-5-8(4,6-2)7-3/h1-3H3

>  <CASRN>
512-56-1

> <Outcome>
1

>  <Index>
3219

>  <StandardizerResult>
Clear Stereo (ID: ClearStereo)
Wedge Clean (ID: WedgeClean)
Mesomerize (ID: Mesomerize)
Tautomerize (ID: Tautomerize)
Add Explicit Hydrogens (ID: AddExplicitH)
Neutralize (ID: Neutralize)
Clean 2D (ID: Clean2D)

> <knn Distance>


> <CpId>
3219

$$$$
3222
  Mrv1532301301811342D          

 45 45  0  0  0  0            999 V2000
    5.6443   -6.2062    0.0000 C   0  0  0  0  0  0  0  0  0  0  0  0
    6.3587   -5.7937    0.0000 C   0  0  0  0  0  0  0  0  0  0  0  0
    7.0732   -6.2062    0.0000 C   0  0  0  0  0  0  0  0  0  0  0  0
    7.7877   -5.7937    0.0000 C   0  0  0  0  0  0  0  0  0  0  0  0
    8.5021   -6.2062    0.0000 C   0  0  0  0  0  0  0  0  0  0  0  0
    9.2166   -5.7937    0.0000 C   0  0  0  0  0  0  0  0  0  0  0  0
    9.9311   -6.2062    0.0000 C   0  0  0  0  0  0  0  0  0  0  0  0
   10.6456   -5.7937    0.0000 C   0  0  0  0  0  0  0  0  0  0  0  0
   11.3600   -6.2062    0.0000 C   0  0  0  0  0  0  0  0  0  0  0  0
   12.0745   -5.7937    0.0000 C   0  0  0  0  0  0  0  0  0  0  0  0
   12.7890   -6.2062    0.0000 C   0  0  0  0  0  0  0  0  0  0  0  0
   13.5034   -5.7937    0.0000 C   0  0  0  0  0  0  0  0  0  0  0  0
   14.2179   -6.2062    0.0000 C   0  0  0  0  0  0  0  0  0  0  0  0
   14.9716   -5.8706    0.0000 C   0  0  0  0  0  0  0  0  0  0  0  0
   15.5236   -6.4837    0.0000 C   0  0  0  0  0  0  0  0  0  0  0  0
   16.3441   -6.3975    0.0000 O   0  0  0  0  0  0  0  0  0  0  0  0
   15.1111   -7.1982    0.0000 O   0  0  0  0  0  0  0  0  0  0  0  0
   14.3042   -7.0267    0.0000 C   0  0  0  0  0  0  0  0  0  0  0  0
   13.6911   -7.5787    0.0000 O   0  0  0  0  0  0  0  0  0  0  0  0
    5.2318   -5.4917    0.0000 H   0  0  0  0  0  0  0  0  0  0  0  0
    4.9298   -6.6187    0.0000 H   0  0  0  0  0  0  0  0  0  0  0  0
    6.0568   -6.9207    0.0000 H   0  0  0  0  0  0  0  0  0  0  0  0
    6.7290   -5.0564    0.0000 H   0  0  0  0  0  0  0  0  0  0  0  0
    5.9885   -5.0564    0.0000 H   0  0  0  0  0  0  0  0  0  0  0  0
    6.7029   -6.9434    0.0000 H   0  0  0  0  0  0  0  0  0  0  0  0
    7.4435   -6.9434    0.0000 H   0  0  0  0  0  0  0  0  0  0  0  0
    8.1579   -5.0564    0.0000 H   0  0  0  0  0  0  0  0  0  0  0  0
    7.4174   -5.0564    0.0000 H   0  0  0  0  0  0  0  0  0  0  0  0
    8.1319   -6.9434    0.0000 H   0  0  0  0  0  0  0  0  0  0  0  0
    8.8724   -6.9434    0.0000 H   0  0  0  0  0  0  0  0  0  0  0  0
    9.5869   -5.0564    0.0000 H   0  0  0  0  0  0  0  0  0  0  0  0
    8.8464   -5.0564    0.0000 H   0  0  0  0  0  0  0  0  0  0  0  0
    9.5608   -6.9434    0.0000 H   0  0  0  0  0  0  0  0  0  0  0  0
   10.3013   -6.9434    0.0000 H   0  0  0  0  0  0  0  0  0  0  0  0
   11.0158   -5.0564    0.0000 H   0  0  0  0  0  0  0  0  0  0  0  0
   10.2753   -5.0564    0.0000 H   0  0  0  0  0  0  0  0  0  0  0  0
   10.9898   -6.9434    0.0000 H   0  0  0  0  0  0  0  0  0  0  0  0
   11.7303   -6.9434    0.0000 H   0  0  0  0  0  0  0  0  0  0  0  0
   12.4448   -5.0564    0.0000 H   0  0  0  0  0  0  0  0  0  0  0  0
   11.7042   -5.0564    0.0000 H   0  0  0  0  0  0  0  0  0  0  0  0
   12.7890   -7.0312    0.0000 H   0  0  0  0  0  0  0  0  0  0  0  0
   13.5034   -4.9687    0.0000 H   0  0  0  0  0  0  0  0  0  0  0  0
   13.5260   -6.6555    0.0000 H   0  0  0  0  0  0  0  0  0  0  0  0
   15.5019   -5.2386    0.0000 H   0  0  0  0  0  0  0  0  0  0  0  0
   14.7442   -5.0776    0.0000 H   0  0  0  0  0  0  0  0  0  0  0  0
  1  2  1  0  0  0  0
  2  3  1  0  0  0  0
  3  4  1  0  0  0  0
  4  5  1  0  0  0  0
  5  6  1  0  0  0  0
  6  7  1  0  0  0  0
  7  8  1  0  0  0  0
  8  9  1  0  0  0  0
  9 10  1  0  0  0  0
 11 10  1  4  0  0  0
 11 12  2  0  0  0  0
 12 13  1  0  0  0  0
 13 14  1  0  0  0  0
 14 15  1  0  0  0  0
 15 16  2  0  0  0  0
 15 17  1  0  0  0  0
 17 18  1  0  0  0  0
 13 18  1  0  0  0  0
 18 19  2  0  0  0  0
  1 20  1  0  0  0  0
  1 21  1  0  0  0  0
  1 22  1  0  0  0  0
  2 23  1  0  0  0  0
  2 24  1  0  0  0  0
  3 25  1  0  0  0  0
  3 26  1  0  0  0  0
  4 27  1  0  0  0  0
  4 28  1  0  0  0  0
  5 29  1  0  0  0  0
  5 30  1  0  0  0  0
  6 31  1  0  0  0  0
  6 32  1  0  0  0  0
  7 33  1  0  0  0  0
  7 34  1  0  0  0  0
  8 35  1  0  0  0  0
  8 36  1  0  0  0  0
  9 37  1  0  0  0  0
  9 38  1  0  0  0  0
 10 39  1  0  0  0  0
 10 40  1  0  0  0  0
 11 41  1  0  0  0  0
 12 42  1  0  0  0  0
 13 43  1  0  0  0  0
 14 44  1  0  0  0  0
 14 45  1  0  0  0  0
M  END
>  <InChIKey>
InChI=1S/C16H26O3/c1-2-3-4-5-6-7-8-9-10-11-12-14-13-15(17)19-16(14)18/h11-12,14H,2-10,13H2,1H3

>  <CASRN>
25377-73-5

> <Outcome>
1

>  <Index>
3222

>  <StandardizerResult>
Clear Stereo (ID: ClearStereo)
Wedge Clean (ID: WedgeClean)
Mesomerize (ID: Mesomerize)
Tautomerize (ID: Tautomerize)
Add Explicit Hydrogens (ID: AddExplicitH)
Neutralize (ID: Neutralize)
Clean 2D (ID: Clean2D)

> <knn Distance>


> <CpId>
3222

$$$$
3228
  Mrv1532301301811342D          

 26 25  0  0  0  0            999 V2000
    2.9980    2.5559    0.0000 C   0  0  0  0  0  0  0  0  0  0  0  0
    3.7125    2.1434    0.0000 C   0  0  0  0  0  0  0  0  0  0  0  0
    4.4270    2.5559    0.0000 C   0  0  0  0  0  0  0  0  0  0  0  0
    5.1414    2.1434    0.0000 C   0  0  0  0  0  0  0  0  0  0  0  0
    5.8559    2.5559    0.0000 C   0  0  0  0  0  0  0  0  0  0  0  0
    6.5704    2.1434    0.0000 C   0  0  0  0  0  0  0  0  0  0  0  0
    7.2849    2.5559    0.0000 C   0  0  0  0  0  0  0  0  0  0  0  0
    7.9993    2.1434    0.0000 C   0  0  0  0  0  0  0  0  0  0  0  0
    8.7138    2.5559    0.0000 O   0  0  0  0  0  0  0  0  0  0  0  0
    7.9993    1.3184    0.0000 O   0  0  0  0  0  0  0  0  0  0  0  0
    3.4105    3.2704    0.0000 H   0  0  0  0  0  0  0  0  0  0  0  0
    2.2836    2.9684    0.0000 H   0  0  0  0  0  0  0  0  0  0  0  0
    2.5855    1.8414    0.0000 H   0  0  0  0  0  0  0  0  0  0  0  0
    3.3422    1.4062    0.0000 H   0  0  0  0  0  0  0  0  0  0  0  0
    4.0828    1.4062    0.0000 H   0  0  0  0  0  0  0  0  0  0  0  0
    4.7972    3.2931    0.0000 H   0  0  0  0  0  0  0  0  0  0  0  0
    4.0567    3.2931    0.0000 H   0  0  0  0  0  0  0  0  0  0  0  0
    4.7712    1.4062    0.0000 H   0  0  0  0  0  0  0  0  0  0  0  0
    5.5117    1.4062    0.0000 H   0  0  0  0  0  0  0  0  0  0  0  0
    6.2262    3.2931    0.0000 H   0  0  0  0  0  0  0  0  0  0  0  0
    5.4857    3.2931    0.0000 H   0  0  0  0  0  0  0  0  0  0  0  0
    6.2001    1.4062    0.0000 H   0  0  0  0  0  0  0  0  0  0  0  0
    6.9406    1.4062    0.0000 H   0  0  0  0  0  0  0  0  0  0  0  0
    7.6551    3.2931    0.0000 H   0  0  0  0  0  0  0  0  0  0  0  0
    6.9146    3.2931    0.0000 H   0  0  0  0  0  0  0  0  0  0  0  0
    9.4283    2.1434    0.0000 H   0  0  0  0  0  0  0  0  0  0  0  0
  1  2  1  0  0  0  0
  2  3  1  0  0  0  0
  3  4  1  0  0  0  0
  4  5  1  0  0  0  0
  5  6  1  0  0  0  0
  6  7  1  0  0  0  0
  7  8  1  0  0  0  0
  8  9  1  0  0  0  0
  8 10  2  0  0  0  0
  1 11  1  0  0  0  0
  1 12  1  0  0  0  0
  1 13  1  0  0  0  0
  2 14  1  0  0  0  0
  2 15  1  0  0  0  0
  3 16  1  0  0  0  0
  3 17  1  0  0  0  0
  4 18  1  0  0  0  0
  4 19  1  0  0  0  0
  5 20  1  0  0  0  0
  5 21  1  0  0  0  0
  6 22  1  0  0  0  0
  6 23  1  0  0  0  0
  7 24  1  0  0  0  0
  7 25  1  0  0  0  0
  9 26  1  0  0  0  0
M  END
>  <InChIKey>
InChI=1S/C8H16O2/c1-2-3-4-5-6-7-8(9)10/h2-7H2,1H3,(H,9,10)

>  <CASRN>
124-07-2

> <Outcome>
1

>  <Index>
3228

>  <StandardizerResult>
Clear Stereo (ID: ClearStereo)
Wedge Clean (ID: WedgeClean)
Mesomerize (ID: Mesomerize)
Tautomerize (ID: Tautomerize)
Add Explicit Hydrogens (ID: AddExplicitH)
Neutralize (ID: Neutralize)
Clean 2D (ID: Clean2D)

> <knn Distance>


> <CpId>
3228

$$$$
3231
  Mrv1532301301811342D          

 17 17  0  0  0  0            999 V2000
   -0.0000    2.4750    0.0000 O   0  0  0  0  0  0  0  0  0  0  0  0
    0.7145    2.0625    0.0000 C   0  0  0  0  0  0  0  0  0  0  0  0
    1.4289    2.4750    0.0000 O   0  0  0  0  0  0  0  0  0  0  0  0
    0.7145    1.2375    0.0000 C   0  0  0  0  0  0  0  0  0  0  0  0
    1.4289    0.8250    0.0000 C   0  0  0  0  0  0  0  0  0  0  0  0
    1.4289   -0.0000    0.0000 C   0  0  0  0  0  0  0  0  0  0  0  0
    2.1434   -0.4125    0.0000 O   0  0  0  0  0  0  0  0  0  0  0  0
    0.7145   -0.4125    0.0000 C   0  0  0  0  0  0  0  0  0  0  0  0
   -0.0000   -0.0000    0.0000 C   0  0  0  0  0  0  0  0  0  0  0  0
   -0.0000    0.8250    0.0000 C   0  0  0  0  0  0  0  0  0  0  0  0
   -0.7145    1.2375    0.0000 O   0  0  0  0  0  0  0  0  0  0  0  0
   -0.0000    3.3000    0.0000 H   0  0  0  0  0  0  0  0  0  0  0  0
    2.1434    1.2375    0.0000 H   0  0  0  0  0  0  0  0  0  0  0  0
    2.1434   -1.2375    0.0000 H   0  0  0  0  0  0  0  0  0  0  0  0
    0.7145   -1.2375    0.0000 H   0  0  0  0  0  0  0  0  0  0  0  0
   -0.7145   -0.4125    0.0000 H   0  0  0  0  0  0  0  0  0  0  0  0
   -0.7145    2.0625    0.0000 H   0  0  0  0  0  0  0  0  0  0  0  0
  1  2  1  0  0  0  0
  2  3  2  0  0  0  0
  2  4  1  0  0  0  0
  4  5  4  0  0  0  0
  5  6  4  0  0  0  0
  6  7  1  0  0  0  0
  6  8  4  0  0  0  0
  8  9  4  0  0  0  0
  9 10  4  0  0  0  0
  4 10  4  0  0  0  0
 10 11  1  0  0  0  0
  1 12  1  0  0  0  0
  5 13  1  0  0  0  0
  7 14  1  0  0  0  0
  8 15  1  0  0  0  0
  9 16  1  0  0  0  0
 11 17  1  0  0  0  0
M  END
>  <InChIKey>
InChI=1S/C7H6O4/c8-4-1-2-6(9)5(3-4)7(10)11/h1-3,8-9H,(H,10,11)

>  <CASRN>
490-79-9

> <Outcome>
1

>  <Index>
3231

>  <StandardizerResult>
Dearomatize (ID: Dearomatize)
Clear Stereo (ID: ClearStereo)
Wedge Clean (ID: WedgeClean)
Mesomerize (ID: Mesomerize)
Tautomerize (ID: Tautomerize)
Aromatize (ID: Aromatize)
Add Explicit Hydrogens (ID: AddExplicitH)
Neutralize (ID: Neutralize)
Clean 2D (ID: Clean2D)

> <knn Distance>


> <CpId>
3231

$$$$
3233
  Mrv1532301301811342D          

 21 20  0  0  0  0            999 V2000
    2.7411    0.6462    0.0000 O   0  0  0  0  0  0  0  0  0  0  0  0
    2.0266    0.2337    0.0000 C   0  0  0  0  0  0  0  0  0  0  0  0
    1.3121    0.6462    0.0000 C   0  0  0  0  0  0  0  0  0  0  0  0
    0.5976    1.0587    0.0000 C   0  0  0  0  0  0  0  0  0  0  0  0
   -0.1168    0.6462    0.0000 O   0  0  0  0  0  0  0  0  0  0  0  0
    1.7246    1.3607    0.0000 C   0  0  0  0  0  0  0  0  0  0  0  0
    1.3121    2.0751    0.0000 O   0  0  0  0  0  0  0  0  0  0  0  0
    0.8996   -0.0683    0.0000 C   0  0  0  0  0  0  0  0  0  0  0  0
    0.0746   -0.0683    0.0000 O   0  0  0  0  0  0  0  0  0  0  0  0
    3.4555    0.2337    0.0000 H   0  0  0  0  0  0  0  0  0  0  0  0
    1.6563   -0.5035    0.0000 H   0  0  0  0  0  0  0  0  0  0  0  0
    2.3968   -0.5035    0.0000 H   0  0  0  0  0  0  0  0  0  0  0  0
    0.9679    1.7959    0.0000 H   0  0  0  0  0  0  0  0  0  0  0  0
    0.2274    1.7959    0.0000 H   0  0  0  0  0  0  0  0  0  0  0  0
   -0.8790    0.9619    0.0000 H   0  0  0  0  0  0  0  0  0  0  0  0
    2.4619    0.9904    0.0000 H   0  0  0  0  0  0  0  0  0  0  0  0
    2.4619    1.7309    0.0000 H   0  0  0  0  0  0  0  0  0  0  0  0
    1.4621    2.8864    0.0000 H   0  0  0  0  0  0  0  0  0  0  0  0
    0.6867   -0.8653    0.0000 H   0  0  0  0  0  0  0  0  0  0  0  0
    0.4871    0.6462    0.0000 H   0  0  0  0  0  0  0  0  0  0  0  0
   -0.4276   -0.7228    0.0000 H   0  0  0  0  0  0  0  0  0  0  0  0
  1  2  1  0  0  0  0
  2  3  1  0  0  0  0
  3  4  1  0  0  0  0
  4  5  1  0  0  0  0
  3  6  1  0  0  0  0
  6  7  1  0  0  0  0
  3  8  1  0  0  0  0
  8  9  1  0  0  0  0
  1 10  1  0  0  0  0
  2 11  1  0  0  0  0
  2 12  1  0  0  0  0
  4 13  1  0  0  0  0
  4 14  1  0  0  0  0
  5 15  1  0  0  0  0
  6 16  1  0  0  0  0
  6 17  1  0  0  0  0
  7 18  1  0  0  0  0
  8 19  1  0  0  0  0
  8 20  1  0  0  0  0
  9 21  1  0  0  0  0
M  END
>  <InChIKey>
InChI=1S/C5H12O4/c6-1-5(2-7,3-8)4-9/h6-9H,1-4H2

>  <CASRN>
115-77-5

> <Outcome>
1

>  <Index>
3233

>  <StandardizerResult>
Clear Stereo (ID: ClearStereo)
Wedge Clean (ID: WedgeClean)
Mesomerize (ID: Mesomerize)
Tautomerize (ID: Tautomerize)
Add Explicit Hydrogens (ID: AddExplicitH)
Neutralize (ID: Neutralize)
Clean 2D (ID: Clean2D)

> <knn Distance>


> <CpId>
3233

$$$$
3234
  Mrv1532301301811342D          

 41 42  0  0  0  0            999 V2000
    4.1406   -2.7126    0.0000 C   0  0  0  0  0  0  0  0  0  0  0  0
    4.9656   -2.7126    0.0000 C   0  0  0  0  0  0  0  0  0  0  0  0
    5.3781   -1.9982    0.0000 N   0  0  0  0  0  0  0  0  0  0  0  0
    4.9656   -1.2837    0.0000 C   0  0  0  0  0  0  0  0  0  0  0  0
    5.3781   -0.5692    0.0000 C   0  0  0  0  0  0  0  0  0  0  0  0
    6.2031   -1.9982    0.0000 C   0  0  0  0  0  0  0  0  0  0  0  0
    6.6156   -2.7126    0.0000 O   0  0  0  0  0  0  0  0  0  0  0  0
    6.6156   -1.2837    0.0000 C   0  0  0  0  0  0  0  0  0  0  0  0
    6.2031   -0.5692    0.0000 C   0  0  0  0  0  0  0  0  0  0  0  0
    7.4406   -1.2837    0.0000 O   0  0  0  0  0  0  0  0  0  0  0  0
    7.8531   -0.5692    0.0000 C   0  0  0  0  0  0  0  0  0  0  0  0
    7.4406    0.1453    0.0000 C   0  0  0  0  0  0  0  0  0  0  0  0
    7.8531    0.8597    0.0000 C   0  0  0  0  0  0  0  0  0  0  0  0
    8.6781    0.8597    0.0000 C   0  0  0  0  0  0  0  0  0  0  0  0
    9.0906    0.1453    0.0000 C   0  0  0  0  0  0  0  0  0  0  0  0
    9.9156    0.1453    0.0000 C   0  0  0  0  0  0  0  0  0  0  0  0
   10.3281   -0.5692    0.0000 C   0  0  0  0  0  0  0  0  0  0  0  0
    9.9156   -1.2837    0.0000 C   0  0  0  0  0  0  0  0  0  0  0  0
    9.0906   -1.2837    0.0000 C   0  0  0  0  0  0  0  0  0  0  0  0
    8.6781   -0.5692    0.0000 C   0  0  0  0  0  0  0  0  0  0  0  0
    4.1406   -1.8876    0.0000 H   0  0  0  0  0  0  0  0  0  0  0  0
    3.3156   -2.7126    0.0000 H   0  0  0  0  0  0  0  0  0  0  0  0
    4.1406   -3.5376    0.0000 H   0  0  0  0  0  0  0  0  0  0  0  0
    5.0136   -3.5362    0.0000 H   0  0  0  0  0  0  0  0  0  0  0  0
    5.6549   -3.1660    0.0000 H   0  0  0  0  0  0  0  0  0  0  0  0
    4.2284   -0.9134    0.0000 H   0  0  0  0  0  0  0  0  0  0  0  0
    4.2284   -1.6539    0.0000 H   0  0  0  0  0  0  0  0  0  0  0  0
    5.7906    0.1453    0.0000 H   0  0  0  0  0  0  0  0  0  0  0  0
    4.9656    0.1453    0.0000 H   0  0  0  0  0  0  0  0  0  0  0  0
    4.5531   -0.5692    0.0000 H   0  0  0  0  0  0  0  0  0  0  0  0
    5.7906   -1.2837    0.0000 H   0  0  0  0  0  0  0  0  0  0  0  0
    7.0000   -0.7827    0.0000 H   0  0  0  0  0  0  0  0  0  0  0  0
    6.9176   -0.1567    0.0000 H   0  0  0  0  0  0  0  0  0  0  0  0
    6.4166    0.2277    0.0000 H   0  0  0  0  0  0  0  0  0  0  0  0
    6.8573    0.7286    0.0000 H   0  0  0  0  0  0  0  0  0  0  0  0
    7.4406    1.5742    0.0000 H   0  0  0  0  0  0  0  0  0  0  0  0
    9.0906    1.5742    0.0000 H   0  0  0  0  0  0  0  0  0  0  0  0
   10.3281    0.8597    0.0000 H   0  0  0  0  0  0  0  0  0  0  0  0
   11.1531   -0.5692    0.0000 H   0  0  0  0  0  0  0  0  0  0  0  0
   10.3281   -1.9982    0.0000 H   0  0  0  0  0  0  0  0  0  0  0  0
    8.6781   -1.9982    0.0000 H   0  0  0  0  0  0  0  0  0  0  0  0
  1  2  1  0  0  0  0
  2  3  1  0  0  0  0
  3  4  1  0  0  0  0
  4  5  1  0  0  0  0
  3  6  1  0  0  0  0
  6  7  2  0  0  0  0
  6  8  1  0  0  0  0
  8  9  1  0  0  0  0
  8 10  1  0  0  0  0
 10 11  1  0  0  0  0
 11 12  4  0  0  0  0
 12 13  4  0  0  0  0
 13 14  4  0  0  0  0
 14 15  4  0  0  0  0
 15 16  4  0  0  0  0
 16 17  4  0  0  0  0
 17 18  4  0  0  0  0
 18 19  4  0  0  0  0
 19 20  4  0  0  0  0
 11 20  4  0  0  0  0
 15 20  4  0  0  0  0
  1 21  1  0  0  0  0
  1 22  1  0  0  0  0
  1 23  1  0  0  0  0
  2 24  1  0  0  0  0
  2 25  1  0  0  0  0
  4 26  1  0  0  0  0
  4 27  1  0  0  0  0
  5 28  1  0  0  0  0
  5 29  1  0  0  0  0
  5 30  1  0  0  0  0
  8 31  1  0  0  0  0
  9 32  1  0  0  0  0
  9 33  1  0  0  0  0
  9 34  1  0  0  0  0
 12 35  1  0  0  0  0
 13 36  1  0  0  0  0
 14 37  1  0  0  0  0
 16 38  1  0  0  0  0
 17 39  1  0  0  0  0
 18 40  1  0  0  0  0
 19 41  1  0  0  0  0
M  END
>  <InChIKey>
InChI=1S/C17H21NO2/c1-4-18(5-2)17(19)13(3)20-16-12-8-10-14-9-6-7-11-15(14)16/h6-13H,4-5H2,1-3H3

>  <CASRN>
15299-99-7

> <Outcome>
1

>  <Index>
3234

>  <StandardizerResult>
Dearomatize (ID: Dearomatize)
Clear Stereo (ID: ClearStereo)
Wedge Clean (ID: WedgeClean)
Mesomerize (ID: Mesomerize)
Tautomerize (ID: Tautomerize)
Aromatize (ID: Aromatize)
Add Explicit Hydrogens (ID: AddExplicitH)
Neutralize (ID: Neutralize)
Clean 2D (ID: Clean2D)

> <knn Distance>


> <CpId>
3234

$$$$
3240
  Mrv1532301301811342D          

 13 13  0  0  0  0            999 V2000
    0.5669    1.1131    0.0000 C   0  0  0  0  0  0  0  0  0  0  0  0
    1.2343    0.6282    0.0000 C   0  0  0  0  0  0  0  0  0  0  0  0
    0.9794   -0.1564    0.0000 C   0  0  0  0  0  0  0  0  0  0  0  0
    0.1544   -0.1564    0.0000 O   0  0  0  0  0  0  0  0  0  0  0  0
   -0.1005    0.6282    0.0000 C   0  0  0  0  0  0  0  0  0  0  0  0
    0.9542    1.8415    0.0000 H   0  0  0  0  0  0  0  0  0  0  0  0
    0.1796    1.8415    0.0000 H   0  0  0  0  0  0  0  0  0  0  0  0
    2.0468    0.4849    0.0000 H   0  0  0  0  0  0  0  0  0  0  0  0
    1.8074    1.2216    0.0000 H   0  0  0  0  0  0  0  0  0  0  0  0
    1.0942   -0.9734    0.0000 H   0  0  0  0  0  0  0  0  0  0  0  0
    1.7209   -0.5181    0.0000 H   0  0  0  0  0  0  0  0  0  0  0  0
   -0.6736    1.2216    0.0000 H   0  0  0  0  0  0  0  0  0  0  0  0
   -0.9130    0.4849    0.0000 H   0  0  0  0  0  0  0  0  0  0  0  0
  1  2  1  0  0  0  0
  2  3  1  0  0  0  0
  3  4  1  0  0  0  0
  4  5  1  0  0  0  0
  1  5  1  0  0  0  0
  1  6  1  0  0  0  0
  1  7  1  0  0  0  0
  2  8  1  0  0  0  0
  2  9  1  0  0  0  0
  3 10  1  0  0  0  0
  3 11  1  0  0  0  0
  5 12  1  0  0  0  0
  5 13  1  0  0  0  0
M  END
>  <InChIKey>
InChI=1S/C4H8O/c1-2-4-5-3-1/h1-4H2

>  <UN GHS>
1

>  <CASRN>
109-99-9

> <Outcome>
1

>  <Index>
3240

>  <StandardizerResult>
Clear Stereo (ID: ClearStereo)
Wedge Clean (ID: WedgeClean)
Mesomerize (ID: Mesomerize)
Tautomerize (ID: Tautomerize)
Add Explicit Hydrogens (ID: AddExplicitH)
Neutralize (ID: Neutralize)
Clean 2D (ID: Clean2D)

> <knn Distance>


> <CpId>
3240

$$$$
3242
  Mrv1532301301811342D          

 24 23  0  0  0  0            999 V2000
    2.9980    2.5574    0.0000 C   0  0  0  0  0  0  0  0  0  0  0  0
    3.7125    2.1449    0.0000 C   0  0  0  0  0  0  0  0  0  0  0  0
    4.4270    2.5574    0.0000 C   0  0  0  0  0  0  0  0  0  0  0  0
    5.1414    2.1449    0.0000 C   0  0  0  0  0  0  0  0  0  0  0  0
    5.8559    2.5574    0.0000 N   0  0  0  0  0  0  0  0  0  0  0  0
    6.5704    2.1449    0.0000 C   0  0  0  0  0  0  0  0  0  0  0  0
    6.5704    1.3199    0.0000 O   0  0  0  0  0  0  0  0  0  0  0  0
    7.2848    2.5574    0.0000 O   0  0  0  0  0  0  0  0  0  0  0  0
    7.9993    2.1449    0.0000 C   0  0  0  0  0  0  0  0  0  0  0  0
    8.7138    2.5574    0.0000 C   0  0  0  0  0  0  0  0  0  0  0  0
    9.4283    2.9699    0.0000 C   0  0  0  0  0  0  0  0  0  0  0  0
   10.1427    3.3824    0.0000 I   0  0  0  0  0  0  0  0  0  0  0  0
    3.4105    3.2718    0.0000 H   0  0  0  0  0  0  0  0  0  0  0  0
    2.2835    2.9699    0.0000 H   0  0  0  0  0  0  0  0  0  0  0  0
    2.5855    1.8429    0.0000 H   0  0  0  0  0  0  0  0  0  0  0  0
    3.3422    1.4076    0.0000 H   0  0  0  0  0  0  0  0  0  0  0  0
    4.0827    1.4076    0.0000 H   0  0  0  0  0  0  0  0  0  0  0  0
    4.7972    3.2946    0.0000 H   0  0  0  0  0  0  0  0  0  0  0  0
    4.0567    3.2946    0.0000 H   0  0  0  0  0  0  0  0  0  0  0  0
    4.7712    1.4076    0.0000 H   0  0  0  0  0  0  0  0  0  0  0  0
    5.5117    1.4076    0.0000 H   0  0  0  0  0  0  0  0  0  0  0  0
    5.8559    3.3824    0.0000 H   0  0  0  0  0  0  0  0  0  0  0  0
    7.6291    1.4076    0.0000 H   0  0  0  0  0  0  0  0  0  0  0  0
    8.3696    1.4076    0.0000 H   0  0  0  0  0  0  0  0  0  0  0  0
  1  2  1  0  0  0  0
  2  3  1  0  0  0  0
  3  4  1  0  0  0  0
  4  5  1  0  0  0  0
  5  6  1  0  0  0  0
  6  7  2  0  0  0  0
  6  8  1  0  0  0  0
  8  9  1  0  0  0  0
  9 10  1  0  0  0  0
 10 11  3  0  0  0  0
 11 12  1  0  0  0  0
  1 13  1  0  0  0  0
  1 14  1  0  0  0  0
  1 15  1  0  0  0  0
  2 16  1  0  0  0  0
  2 17  1  0  0  0  0
  3 18  1  0  0  0  0
  3 19  1  0  0  0  0
  4 20  1  0  0  0  0
  4 21  1  0  0  0  0
  5 22  1  0  0  0  0
  9 23  1  0  0  0  0
  9 24  1  0  0  0  0
M  END
>  <InChIKey>
InChI=1S/C8H12INO2/c1-2-3-6-10-8(11)12-7-4-5-9/h2-3,6-7H2,1H3,(H,10,11)

>  <CASRN>
55406-53-6

> <Outcome>
1

>  <Index>
3242

>  <StandardizerResult>
Clear Stereo (ID: ClearStereo)
Wedge Clean (ID: WedgeClean)
Mesomerize (ID: Mesomerize)
Tautomerize (ID: Tautomerize)
Add Explicit Hydrogens (ID: AddExplicitH)
Neutralize (ID: Neutralize)
Clean 2D (ID: Clean2D)

> <knn Distance>


> <CpId>
3242

$$$$
3247
  Mrv1532301301811342D          

 36 39  0  0  0  0            999 V2000
   -1.6535   -1.9326    0.0000 O   0  0  0  0  0  0  0  0  0  0  0  0
   -0.8830   -2.2275    0.0000 C   0  0  0  0  0  0  0  0  0  0  0  0
   -0.2424   -1.7076    0.0000 C   0  0  0  0  0  0  0  0  0  0  0  0
    0.5281   -2.0024    0.0000 C   0  0  0  0  0  0  0  0  0  0  0  0
    0.6580   -2.8171    0.0000 C   0  0  0  0  0  0  0  0  0  0  0  0
    1.4285   -3.1120    0.0000 C   0  0  0  0  0  0  0  0  0  0  0  0
    2.1632   -2.7367    0.0000 C   0  0  0  0  0  0  0  0  0  0  0  0
    2.3759   -1.9395    0.0000 C   0  0  0  0  0  0  0  0  0  0  0  0
    3.1726   -1.7252    0.0000 C   0  0  0  0  0  0  0  0  0  0  0  0
    3.3852   -0.9281    0.0000 O   0  0  0  0  0  0  0  0  0  0  0  0
    3.7565   -2.3079    0.0000 C   0  0  0  0  0  0  0  0  0  0  0  0
    4.5532   -2.0936    0.0000 O   0  0  0  0  0  0  0  0  0  0  0  0
    3.5438   -3.1050    0.0000 C   0  0  0  0  0  0  0  0  0  0  0  0
    2.7472   -3.3194    0.0000 C   0  0  0  0  0  0  0  0  0  0  0  0
    2.3734   -4.0549    0.0000 C   0  0  0  0  0  0  0  0  0  0  0  0
    1.5584   -3.9267    0.0000 C   0  0  0  0  0  0  0  0  0  0  0  0
    1.7728   -4.7233    0.0000 O   0  0  0  0  0  0  0  0  0  0  0  0
    0.9178   -4.4465    0.0000 C   0  0  0  0  0  0  0  0  0  0  0  0
    0.1473   -4.1517    0.0000 O   0  0  0  0  0  0  0  0  0  0  0  0
    0.0174   -3.3370    0.0000 C   0  0  0  0  0  0  0  0  0  0  0  0
   -0.7531   -3.0422    0.0000 C   0  0  0  0  0  0  0  0  0  0  0  0
   -1.3937   -3.5620    0.0000 O   0  0  0  0  0  0  0  0  0  0  0  0
   -1.7835   -1.1179    0.0000 H   0  0  0  0  0  0  0  0  0  0  0  0
   -0.3723   -0.8929    0.0000 H   0  0  0  0  0  0  0  0  0  0  0  0
    1.1687   -1.4826    0.0000 H   0  0  0  0  0  0  0  0  0  0  0  0
    0.7879   -3.6318    0.0000 H   0  0  0  0  0  0  0  0  0  0  0  0
    1.7919   -1.3568    0.0000 H   0  0  0  0  0  0  0  0  0  0  0  0
    4.1819   -0.7137    0.0000 H   0  0  0  0  0  0  0  0  0  0  0  0
    5.1372   -2.6763    0.0000 H   0  0  0  0  0  0  0  0  0  0  0  0
    4.1278   -3.6878    0.0000 H   0  0  0  0  0  0  0  0  0  0  0  0
    2.8335   -4.7397    0.0000 H   0  0  0  0  0  0  0  0  0  0  0  0
    3.1780   -4.2373    0.0000 H   0  0  0  0  0  0  0  0  0  0  0  0
    1.9872   -5.5200    0.0000 H   0  0  0  0  0  0  0  0  0  0  0  0
    0.3900   -5.0806    0.0000 H   0  0  0  0  0  0  0  0  0  0  0  0
    0.9307   -5.2714    0.0000 H   0  0  0  0  0  0  0  0  0  0  0  0
   -2.1642   -3.2672    0.0000 H   0  0  0  0  0  0  0  0  0  0  0  0
  1  2  1  0  0  0  0
  2  3  4  0  0  0  0
  3  4  4  0  0  0  0
  4  5  4  0  0  0  0
  5  6  1  0  0  0  0
  6  7  1  0  0  0  0
  7  8  4  0  0  0  0
  8  9  4  0  0  0  0
  9 10  1  0  0  0  0
  9 11  4  0  0  0  0
 11 12  1  0  0  0  0
 11 13  4  0  0  0  0
 13 14  4  0  0  0  0
  7 14  4  0  0  0  0
 14 15  1  0  0  0  0
 15 16  1  0  0  0  0
  6 16  1  0  0  0  0
 16 17  1  0  0  0  0
 16 18  1  0  0  0  0
 18 19  1  0  0  0  0
 19 20  1  0  0  0  0
  5 20  4  0  0  0  0
 20 21  4  0  0  0  0
  2 21  4  0  0  0  0
 21 22  1  0  0  0  0
  1 23  1  0  0  0  0
  3 24  1  0  0  0  0
  4 25  1  0  0  0  0
  6 26  1  0  0  0  0
  8 27  1  0  0  0  0
 10 28  1  0  0  0  0
 12 29  1  0  0  0  0
 13 30  1  0  0  0  0
 15 31  1  0  0  0  0
 15 32  1  0  0  0  0
 17 33  1  0  0  0  0
 18 34  1  0  0  0  0
 18 35  1  0  0  0  0
 22 36  1  0  0  0  0
M  END
>  <InChIKey>
InChI=1S/C16H14O6/c17-10-2-1-8-13-9-4-12(19)11(18)3-7(9)5-16(13,21)6-22-15(8)14(10)20/h1-4,13,17-21H,5-6H2

>  <CASRN>
517-28-2

> <Outcome>
1

>  <Index>
3247

>  <StandardizerResult>
Dearomatize (ID: Dearomatize)
Clear Stereo (ID: ClearStereo)
Wedge Clean (ID: WedgeClean)
Mesomerize (ID: Mesomerize)
Tautomerize (ID: Tautomerize)
Aromatize (ID: Aromatize)
Add Explicit Hydrogens (ID: AddExplicitH)
Neutralize (ID: Neutralize)
Clean 2D (ID: Clean2D)

> <knn Distance>


> <CpId>
3247

$$$$
3258
  Mrv1532301301811342D          

 16 16  0  0  0  0            999 V2000
    0.5664    2.0023    0.0000 O   0  0  0  0  0  0  0  0  0  0  0  0
    0.5664    1.1773    0.0000 C   0  0  0  0  0  0  0  0  0  0  0  0
    1.2339    0.6923    0.0000 C   0  0  0  0  0  0  0  0  0  0  0  0
    0.9789   -0.0923    0.0000 C   0  0  0  0  0  0  0  0  0  0  0  0
    0.1539   -0.0923    0.0000 C   0  0  0  0  0  0  0  0  0  0  0  0
   -0.1010    0.6923    0.0000 C   0  0  0  0  0  0  0  0  0  0  0  0
    1.2809    2.4148    0.0000 H   0  0  0  0  0  0  0  0  0  0  0  0
   -0.1687    1.5518    0.0000 H   0  0  0  0  0  0  0  0  0  0  0  0
    2.0463    0.5491    0.0000 H   0  0  0  0  0  0  0  0  0  0  0  0
    1.8070    1.2858    0.0000 H   0  0  0  0  0  0  0  0  0  0  0  0
    1.0937   -0.9092    0.0000 H   0  0  0  0  0  0  0  0  0  0  0  0
    1.7204   -0.4539    0.0000 H   0  0  0  0  0  0  0  0  0  0  0  0
   -0.5876   -0.4539    0.0000 H   0  0  0  0  0  0  0  0  0  0  0  0
    0.0391   -0.9092    0.0000 H   0  0  0  0  0  0  0  0  0  0  0  0
   -0.9128    0.8391    0.0000 H   0  0  0  0  0  0  0  0  0  0  0  0
   -0.7949    0.2460    0.0000 H   0  0  0  0  0  0  0  0  0  0  0  0
  1  2  1  0  0  0  0
  2  3  1  0  0  0  0
  3  4  1  0  0  0  0
  4  5  1  0  0  0  0
  5  6  1  0  0  0  0
  2  6  1  0  0  0  0
  1  7  1  0  0  0  0
  2  8  1  0  0  0  0
  3  9  1  0  0  0  0
  3 10  1  0  0  0  0
  4 11  1  0  0  0  0
  4 12  1  0  0  0  0
  5 13  1  0  0  0  0
  5 14  1  0  0  0  0
  6 15  1  0  0  0  0
  6 16  1  0  0  0  0
M  END
>  <InChIKey>
InChI=1S/C5H10O/c6-5-3-1-2-4-5/h5-6H,1-4H2

>  <UN GHS>
2A

>  <CASRN>
96-41-3

> <Outcome>
1

>  <Index>
3258

>  <StandardizerResult>
Clear Stereo (ID: ClearStereo)
Wedge Clean (ID: WedgeClean)
Mesomerize (ID: Mesomerize)
Tautomerize (ID: Tautomerize)
Add Explicit Hydrogens (ID: AddExplicitH)
Neutralize (ID: Neutralize)
Clean 2D (ID: Clean2D)

> <knn Distance>


> <CpId>
3258

$$$$
3261
  Mrv1532301301811342D          

 18 17  0  0  0  0            999 V2000
   -0.6152   -3.3711    0.0000 O   0  0  0  0  0  0  0  0  0  0  0  0
   -0.6152   -2.5461    0.0000 C   0  0  0  0  0  0  0  0  0  0  0  0
   -1.3296   -2.1336    0.0000 O   0  0  0  0  0  0  0  0  0  0  0  0
    0.0993   -2.1336    0.0000 C   0  0  0  0  0  0  0  0  0  0  0  0
    0.0993   -1.3086    0.0000 N   0  0  0  0  0  0  0  0  0  0  0  0
    0.8138   -0.8961    0.0000 C   0  0  0  0  0  0  0  0  0  0  0  0
    0.8138   -0.0711    0.0000 P   0  0  0  0  0  0  0  0  0  0  0  0
    0.8138    0.7539    0.0000 O   0  0  0  0  0  0  0  0  0  0  0  0
    1.6388   -0.0711    0.0000 O   0  0  0  0  0  0  0  0  0  0  0  0
   -0.0112   -0.0711    0.0000 O   0  0  0  0  0  0  0  0  0  0  0  0
   -1.3296   -3.7836    0.0000 H   0  0  0  0  0  0  0  0  0  0  0  0
    0.5527   -2.8229    0.0000 H   0  0  0  0  0  0  0  0  0  0  0  0
    0.9229   -2.1816    0.0000 H   0  0  0  0  0  0  0  0  0  0  0  0
   -0.6152   -0.8961    0.0000 H   0  0  0  0  0  0  0  0  0  0  0  0
    1.2671   -1.5854    0.0000 H   0  0  0  0  0  0  0  0  0  0  0  0
    1.6374   -0.9441    0.0000 H   0  0  0  0  0  0  0  0  0  0  0  0
    1.5283    1.1664    0.0000 H   0  0  0  0  0  0  0  0  0  0  0  0
    2.2226    0.5118    0.0000 H   0  0  0  0  0  0  0  0  0  0  0  0
  1  2  1  0  0  0  0
  2  3  2  0  0  0  0
  2  4  1  0  0  0  0
  4  5  1  0  0  0  0
  5  6  1  0  0  0  0
  6  7  1  0  0  0  0
  7  8  1  0  0  0  0
  7  9  1  0  0  0  0
  7 10  2  0  0  0  0
  1 11  1  0  0  0  0
  4 12  1  0  0  0  0
  4 13  1  0  0  0  0
  5 14  1  0  0  0  0
  6 15  1  0  0  0  0
  6 16  1  0  0  0  0
  8 17  1  0  0  0  0
  9 18  1  0  0  0  0
M  END
>  <InChIKey>
InChI=1S/C3H8NO5P/c5-3(6)1-4-2-10(7,8)9/h4H,1-2H2,(H,5,6)(H2,7,8,9)

>  <CASRN>
1071-83-6

> <Outcome>
1

>  <Index>
3261

>  <StandardizerResult>
Clear Stereo (ID: ClearStereo)
Wedge Clean (ID: WedgeClean)
Mesomerize (ID: Mesomerize)
Tautomerize (ID: Tautomerize)
Add Explicit Hydrogens (ID: AddExplicitH)
Neutralize (ID: Neutralize)
Clean 2D (ID: Clean2D)

> <knn Distance>


> <CpId>
3261

$$$$
3266
  Mrv1532301301811342D          

 24 25  0  0  0  0            999 V2000
    2.0681   -0.4611    0.0000 O   0  0  0  0  0  0  0  0  0  0  0  0
    2.0681   -1.2861    0.0000 C   0  0  0  0  0  0  0  0  0  0  0  0
    1.3536   -1.6986    0.0000 C   0  0  0  0  0  0  0  0  0  0  0  0
    1.3536   -2.5236    0.0000 C   0  0  0  0  0  0  0  0  0  0  0  0
    0.6391   -2.9361    0.0000 Cl  0  0  0  0  0  0  0  0  0  0  0  0
    2.0681   -2.9361    0.0000 C   0  0  0  0  0  0  0  0  0  0  0  0
    2.7826   -2.5236    0.0000 C   0  0  0  0  0  0  0  0  0  0  0  0
    2.7826   -1.6986    0.0000 C   0  0  0  0  0  0  0  0  0  0  0  0
    3.4970   -1.2861    0.0000 O   0  0  0  0  0  0  0  0  0  0  0  0
    4.2115   -1.6986    0.0000 C   0  0  0  0  0  0  0  0  0  0  0  0
    4.9260   -1.2861    0.0000 C   0  0  0  0  0  0  0  0  0  0  0  0
    5.6404   -1.6986    0.0000 C   0  0  0  0  0  0  0  0  0  0  0  0
    5.6404   -2.5236    0.0000 C   0  0  0  0  0  0  0  0  0  0  0  0
    6.3549   -2.9361    0.0000 Cl  0  0  0  0  0  0  0  0  0  0  0  0
    4.9260   -2.9361    0.0000 C   0  0  0  0  0  0  0  0  0  0  0  0
    4.2115   -2.5236    0.0000 C   0  0  0  0  0  0  0  0  0  0  0  0
    3.4970   -2.9361    0.0000 Cl  0  0  0  0  0  0  0  0  0  0  0  0
    2.7826   -0.0486    0.0000 H   0  0  0  0  0  0  0  0  0  0  0  0
    0.6391   -1.2861    0.0000 H   0  0  0  0  0  0  0  0  0  0  0  0
    2.0681   -3.7611    0.0000 H   0  0  0  0  0  0  0  0  0  0  0  0
    3.4970   -2.1111    0.0000 H   0  0  0  0  0  0  0  0  0  0  0  0
    4.9260   -0.4611    0.0000 H   0  0  0  0  0  0  0  0  0  0  0  0
    6.3549   -1.2861    0.0000 H   0  0  0  0  0  0  0  0  0  0  0  0
    4.9260   -3.7611    0.0000 H   0  0  0  0  0  0  0  0  0  0  0  0
  1  2  1  0  0  0  0
  2  3  4  0  0  0  0
  3  4  4  0  0  0  0
  4  5  1  0  0  0  0
  4  6  4  0  0  0  0
  6  7  4  0  0  0  0
  7  8  4  0  0  0  0
  2  8  4  0  0  0  0
  8  9  1  0  0  0  0
  9 10  1  0  0  0  0
 10 11  4  0  0  0  0
 11 12  4  0  0  0  0
 12 13  4  0  0  0  0
 13 14  1  0  0  0  0
 13 15  4  0  0  0  0
 15 16  4  0  0  0  0
 10 16  4  0  0  0  0
 16 17  1  0  0  0  0
  1 18  1  0  0  0  0
  3 19  1  0  0  0  0
  6 20  1  0  0  0  0
  7 21  1  0  0  0  0
 11 22  1  0  0  0  0
 12 23  1  0  0  0  0
 15 24  1  0  0  0  0
M  END
>  <InChIKey>
InChI=1S/C12H7Cl3O2/c13-7-1-3-11(9(15)5-7)17-12-4-2-8(14)6-10(12)16/h1-6,16H

>  <CASRN>
3380-34-5

> <Outcome>
1

>  <Index>
3266

>  <StandardizerResult>
Dearomatize (ID: Dearomatize)
Clear Stereo (ID: ClearStereo)
Wedge Clean (ID: WedgeClean)
Mesomerize (ID: Mesomerize)
Tautomerize (ID: Tautomerize)
Aromatize (ID: Aromatize)
Add Explicit Hydrogens (ID: AddExplicitH)
Neutralize (ID: Neutralize)
Clean 2D (ID: Clean2D)

> <knn Distance>


> <CpId>
3266

$$$$
3268
  Mrv1532301301811342D          

 13 12  0  0  0  0            999 V2000
    1.2389    2.1434    0.0000 C   0  0  0  0  0  0  0  0  0  0  0  0
    0.8264    1.4289    0.0000 C   0  0  0  0  0  0  0  0  0  0  0  0
    1.2389    0.7145    0.0000 C   0  0  0  0  0  0  0  0  0  0  0  0
    2.0639    0.7145    0.0000 Cl  0  0  0  0  0  0  0  0  0  0  0  0
    0.8264   -0.0000    0.0000 N   0  0  0  0  0  0  0  0  0  0  0  0
    1.2389   -0.7145    0.0000 O   0  0  0  0  0  0  0  0  0  0  0  0
    0.0014   -0.0000    0.0000 O   0  0  0  0  0  0  0  0  0  0  0  0
    1.9533    1.7309    0.0000 H   0  0  0  0  0  0  0  0  0  0  0  0
    1.6514    2.8579    0.0000 H   0  0  0  0  0  0  0  0  0  0  0  0
    0.5244    2.5559    0.0000 H   0  0  0  0  0  0  0  0  0  0  0  0
    0.0891    1.7992    0.0000 H   0  0  0  0  0  0  0  0  0  0  0  0
    0.0891    1.0587    0.0000 H   0  0  0  0  0  0  0  0  0  0  0  0
    1.6514    1.4289    0.0000 H   0  0  0  0  0  0  0  0  0  0  0  0
  1  2  1  0  0  0  0
  2  3  1  0  0  0  0
  3  4  1  0  0  0  0
  3  5  1  0  0  0  0
  5  6  2  0  0  0  0
  5  7  2  0  0  0  0
  1  8  1  0  0  0  0
  1  9  1  0  0  0  0
  1 10  1  0  0  0  0
  2 11  1  0  0  0  0
  2 12  1  0  0  0  0
  3 13  1  0  0  0  0
M  END
>  <InChIKey>
InChI=1S/C3H6ClNO2/c1-2-3(4)5(6)7/h3H,2H2,1H3

>  <CASRN>
600-25-9

> <Outcome>
1

>  <Index>
3268

>  <StandardizerResult>
Clear Stereo (ID: ClearStereo)
Wedge Clean (ID: WedgeClean)
Mesomerize (ID: Mesomerize)
Tautomerize (ID: Tautomerize)
Add Explicit Hydrogens (ID: AddExplicitH)
Neutralize (ID: Neutralize)
Clean 2D (ID: Clean2D)

> <knn Distance>


> <CpId>
3268

$$$$
3271
  Mrv1532301301811342D          

 35 34  0  0  0  0            999 V2000
    5.4730    3.9849    0.0000 C   0  0  0  0  0  0  0  0  0  0  0  0
    6.1875    3.5724    0.0000 C   0  0  0  0  0  0  0  0  0  0  0  0
    6.1875    2.7474    0.0000 C   0  0  0  0  0  0  0  0  0  0  0  0
    6.9020    3.9849    0.0000 C   0  0  0  0  0  0  0  0  0  0  0  0
    6.9020    4.8099    0.0000 O   0  0  0  0  0  0  0  0  0  0  0  0
    7.6164    3.5724    0.0000 O   0  0  0  0  0  0  0  0  0  0  0  0
    8.3309    3.9849    0.0000 C   0  0  0  0  0  0  0  0  0  0  0  0
    9.0454    3.5724    0.0000 C   0  0  0  0  0  0  0  0  0  0  0  0
    9.7599    3.9849    0.0000 O   0  0  0  0  0  0  0  0  0  0  0  0
   10.4743    3.5724    0.0000 C   0  0  0  0  0  0  0  0  0  0  0  0
   11.1888    3.9849    0.0000 C   0  0  0  0  0  0  0  0  0  0  0  0
   11.9033    3.5724    0.0000 O   0  0  0  0  0  0  0  0  0  0  0  0
   12.6177    3.9849    0.0000 C   0  0  0  0  0  0  0  0  0  0  0  0
   12.6177    4.8099    0.0000 O   0  0  0  0  0  0  0  0  0  0  0  0
   13.3322    3.5724    0.0000 C   0  0  0  0  0  0  0  0  0  0  0  0
   14.0467    3.9849    0.0000 C   0  0  0  0  0  0  0  0  0  0  0  0
   13.3322    2.7474    0.0000 C   0  0  0  0  0  0  0  0  0  0  0  0
    5.8855    4.6994    0.0000 H   0  0  0  0  0  0  0  0  0  0  0  0
    4.7586    4.3974    0.0000 H   0  0  0  0  0  0  0  0  0  0  0  0
    5.0605    3.2704    0.0000 H   0  0  0  0  0  0  0  0  0  0  0  0
    5.4730    2.3349    0.0000 H   0  0  0  0  0  0  0  0  0  0  0  0
    6.9020    2.3349    0.0000 H   0  0  0  0  0  0  0  0  0  0  0  0
    8.7012    4.7221    0.0000 H   0  0  0  0  0  0  0  0  0  0  0  0
    7.9606    4.7221    0.0000 H   0  0  0  0  0  0  0  0  0  0  0  0
    8.6751    2.8352    0.0000 H   0  0  0  0  0  0  0  0  0  0  0  0
    9.4156    2.8352    0.0000 H   0  0  0  0  0  0  0  0  0  0  0  0
   10.1041    2.8352    0.0000 H   0  0  0  0  0  0  0  0  0  0  0  0
   10.8446    2.8352    0.0000 H   0  0  0  0  0  0  0  0  0  0  0  0
   11.5591    4.7221    0.0000 H   0  0  0  0  0  0  0  0  0  0  0  0
   10.8185    4.7221    0.0000 H   0  0  0  0  0  0  0  0  0  0  0  0
   14.4592    3.2704    0.0000 H   0  0  0  0  0  0  0  0  0  0  0  0
   14.7611    4.3974    0.0000 H   0  0  0  0  0  0  0  0  0  0  0  0
   13.6342    4.6994    0.0000 H   0  0  0  0  0  0  0  0  0  0  0  0
   12.6177    2.3349    0.0000 H   0  0  0  0  0  0  0  0  0  0  0  0
   14.0467    2.3349    0.0000 H   0  0  0  0  0  0  0  0  0  0  0  0
  1  2  1  0  0  0  0
  2  3  2  0  0  0  0
  2  4  1  0  0  0  0
  4  5  2  0  0  0  0
  4  6  1  0  0  0  0
  6  7  1  0  0  0  0
  7  8  1  0  0  0  0
  8  9  1  0  0  0  0
  9 10  1  0  0  0  0
 10 11  1  0  0  0  0
 11 12  1  0  0  0  0
 12 13  1  0  0  0  0
 13 14  2  0  0  0  0
 13 15  1  0  0  0  0
 15 16  1  0  0  0  0
 15 17  2  0  0  0  0
  1 18  1  0  0  0  0
  1 19  1  0  0  0  0
  1 20  1  0  0  0  0
  3 21  1  0  0  0  0
  3 22  1  0  0  0  0
  7 23  1  0  0  0  0
  7 24  1  0  0  0  0
  8 25  1  0  0  0  0
  8 26  1  0  0  0  0
 10 27  1  0  0  0  0
 10 28  1  0  0  0  0
 11 29  1  0  0  0  0
 11 30  1  0  0  0  0
 16 31  1  0  0  0  0
 16 32  1  0  0  0  0
 16 33  1  0  0  0  0
 17 34  1  0  0  0  0
 17 35  1  0  0  0  0
M  END
>  <InChIKey>
InChI=1S/C12H18O5/c1-9(2)11(13)16-7-5-15-6-8-17-12(14)10(3)4/h1,3,5-8H2,2,4H3

>  <CASRN>
2358-84-1

> <Outcome>
1

>  <Index>
3271

>  <StandardizerResult>
Clear Stereo (ID: ClearStereo)
Wedge Clean (ID: WedgeClean)
Mesomerize (ID: Mesomerize)
Tautomerize (ID: Tautomerize)
Add Explicit Hydrogens (ID: AddExplicitH)
Neutralize (ID: Neutralize)
Clean 2D (ID: Clean2D)

> <knn Distance>


> <CpId>
3271

$$$$
3273
  Mrv1532301301811342D          

 21 20  0  0  0  0            999 V2000
    4.2355    3.2704    0.0000 Cl  0  0  0  0  0  0  0  0  0  0  0  0
    4.9500    2.8579    0.0000 C   0  0  0  0  0  0  0  0  0  0  0  0
    4.9500    2.0329    0.0000 O   0  0  0  0  0  0  0  0  0  0  0  0
    5.6645    3.2704    0.0000 O   0  0  0  0  0  0  0  0  0  0  0  0
    6.3789    2.8579    0.0000 C   0  0  0  0  0  0  0  0  0  0  0  0
    7.0934    3.2704    0.0000 C   0  0  0  0  0  0  0  0  0  0  0  0
    7.8079    2.8579    0.0000 O   0  0  0  0  0  0  0  0  0  0  0  0
    8.5223    3.2704    0.0000 C   0  0  0  0  0  0  0  0  0  0  0  0
    9.2368    2.8579    0.0000 C   0  0  0  0  0  0  0  0  0  0  0  0
    9.9513    3.2704    0.0000 O   0  0  0  0  0  0  0  0  0  0  0  0
   10.6658    2.8579    0.0000 C   0  0  0  0  0  0  0  0  0  0  0  0
   11.3802    3.2704    0.0000 Cl  0  0  0  0  0  0  0  0  0  0  0  0
   10.6658    2.0329    0.0000 O   0  0  0  0  0  0  0  0  0  0  0  0
    6.0087    2.1207    0.0000 H   0  0  0  0  0  0  0  0  0  0  0  0
    6.7492    2.1207    0.0000 H   0  0  0  0  0  0  0  0  0  0  0  0
    7.4637    4.0076    0.0000 H   0  0  0  0  0  0  0  0  0  0  0  0
    6.7231    4.0076    0.0000 H   0  0  0  0  0  0  0  0  0  0  0  0
    8.8926    4.0076    0.0000 H   0  0  0  0  0  0  0  0  0  0  0  0
    8.1521    4.0076    0.0000 H   0  0  0  0  0  0  0  0  0  0  0  0
    8.8666    2.1207    0.0000 H   0  0  0  0  0  0  0  0  0  0  0  0
    9.6071    2.1207    0.0000 H   0  0  0  0  0  0  0  0  0  0  0  0
  1  2  1  0  0  0  0
  2  3  2  0  0  0  0
  2  4  1  0  0  0  0
  4  5  1  0  0  0  0
  5  6  1  0  0  0  0
  6  7  1  0  0  0  0
  7  8  1  0  0  0  0
  8  9  1  0  0  0  0
  9 10  1  0  0  0  0
 10 11  1  0  0  0  0
 11 12  1  0  0  0  0
 11 13  2  0  0  0  0
  5 14  1  0  0  0  0
  5 15  1  0  0  0  0
  6 16  1  0  0  0  0
  6 17  1  0  0  0  0
  8 18  1  0  0  0  0
  8 19  1  0  0  0  0
  9 20  1  0  0  0  0
  9 21  1  0  0  0  0
M  END
>  <InChIKey>
InChI=1S/C6H8Cl2O5/c7-5(9)12-3-1-11-2-4-13-6(8)10/h1-4H2

>  <CASRN>
106-75-2

> <Outcome>
1

>  <Index>
3273

>  <StandardizerResult>
Clear Stereo (ID: ClearStereo)
Wedge Clean (ID: WedgeClean)
Mesomerize (ID: Mesomerize)
Tautomerize (ID: Tautomerize)
Add Explicit Hydrogens (ID: AddExplicitH)
Neutralize (ID: Neutralize)
Clean 2D (ID: Clean2D)

> <knn Distance>


> <CpId>
3273

$$$$
3283
  Mrv1532301301811342D          

 26 25  0  0  0  0            999 V2000
    1.0248    1.4599    0.0000 C   0  0  0  0  0  0  0  0  0  0  0  0
    1.7392    1.8724    0.0000 C   0  0  0  0  0  0  0  0  0  0  0  0
    2.4537    1.4599    0.0000 N   0  0  0  0  0  0  0  0  0  0  0  0
    2.4537    0.6349    0.0000 C   0  0  0  0  0  0  0  0  0  0  0  0
    1.7392    0.2224    0.0000 C   0  0  0  0  0  0  0  0  0  0  0  0
    3.1682    1.8724    0.0000 C   0  0  0  0  0  0  0  0  0  0  0  0
    3.1682    2.6974    0.0000 S   0  0  0  0  0  0  0  0  0  0  0  0
    3.8827    1.4599    0.0000 S   0  0  0  0  0  0  0  0  0  0  0  0
    4.5971    1.8724    0.0000 C   0  0  0  0  0  0  0  0  0  0  0  0
    5.3116    1.4599    0.0000 C   0  0  0  0  0  0  0  0  0  0  0  0
    6.0261    1.8724    0.0000 Cl  0  0  0  0  0  0  0  0  0  0  0  0
    5.3116    0.6349    0.0000 C   0  0  0  0  0  0  0  0  0  0  0  0
    0.6123    2.1743    0.0000 H   0  0  0  0  0  0  0  0  0  0  0  0
    0.3103    1.0474    0.0000 H   0  0  0  0  0  0  0  0  0  0  0  0
    1.4373    0.7454    0.0000 H   0  0  0  0  0  0  0  0  0  0  0  0
    2.1095    2.6096    0.0000 H   0  0  0  0  0  0  0  0  0  0  0  0
    1.3690    2.6096    0.0000 H   0  0  0  0  0  0  0  0  0  0  0  0
    2.9071   -0.0544    0.0000 H   0  0  0  0  0  0  0  0  0  0  0  0
    3.2773    0.5869    0.0000 H   0  0  0  0  0  0  0  0  0  0  0  0
    0.9213    0.1147    0.0000 H   0  0  0  0  0  0  0  0  0  0  0  0
    1.5257   -0.5745    0.0000 H   0  0  0  0  0  0  0  0  0  0  0  0
    2.3938   -0.2799    0.0000 H   0  0  0  0  0  0  0  0  0  0  0  0
    4.9674    2.6096    0.0000 H   0  0  0  0  0  0  0  0  0  0  0  0
    4.2269    2.6096    0.0000 H   0  0  0  0  0  0  0  0  0  0  0  0
    4.5971    0.2224    0.0000 H   0  0  0  0  0  0  0  0  0  0  0  0
    6.0261    0.2224    0.0000 H   0  0  0  0  0  0  0  0  0  0  0  0
  1  2  1  0  0  0  0
  2  3  1  0  0  0  0
  3  4  1  0  0  0  0
  4  5  1  0  0  0  0
  3  6  1  0  0  0  0
  6  7  2  0  0  0  0
  6  8  1  0  0  0  0
  8  9  1  0  0  0  0
  9 10  1  0  0  0  0
 10 11  1  0  0  0  0
 10 12  2  0  0  0  0
  1 13  1  0  0  0  0
  1 14  1  0  0  0  0
  1 15  1  0  0  0  0
  2 16  1  0  0  0  0
  2 17  1  0  0  0  0
  4 18  1  0  0  0  0
  4 19  1  0  0  0  0
  5 20  1  0  0  0  0
  5 21  1  0  0  0  0
  5 22  1  0  0  0  0
  9 23  1  0  0  0  0
  9 24  1  0  0  0  0
 12 25  1  0  0  0  0
 12 26  1  0  0  0  0
M  END
>  <InChIKey>
InChI=1S/C8H14ClNS2/c1-4-10(5-2)8(11)12-6-7(3)9/h3-6H2,1-2H3

>  <CASRN>
95-06-7

> <Outcome>
1

>  <Index>
3283

>  <StandardizerResult>
Clear Stereo (ID: ClearStereo)
Wedge Clean (ID: WedgeClean)
Mesomerize (ID: Mesomerize)
Tautomerize (ID: Tautomerize)
Add Explicit Hydrogens (ID: AddExplicitH)
Neutralize (ID: Neutralize)
Clean 2D (ID: Clean2D)

> <knn Distance>


> <CpId>
3283

$$$$
3285
  Mrv1532301301811342D          

 18 18  0  0  0  0            999 V2000
    0.7145    2.0625    0.0000 N   0  0  0  0  0  0  0  0  0  0  0  0
    0.7145    1.2375    0.0000 C   0  0  0  0  0  0  0  0  0  0  0  0
    1.4289    0.8250    0.0000 C   0  0  0  0  0  0  0  0  0  0  0  0
    1.4289   -0.0000    0.0000 C   0  0  0  0  0  0  0  0  0  0  0  0
    0.7145   -0.4125    0.0000 C   0  0  0  0  0  0  0  0  0  0  0  0
    0.0000   -0.0000    0.0000 C   0  0  0  0  0  0  0  0  0  0  0  0
    0.0000    0.8250    0.0000 C   0  0  0  0  0  0  0  0  0  0  0  0
   -0.7145    1.2375    0.0000 Cl  0  0  0  0  0  0  0  0  0  0  0  0
    2.1434   -0.4125    0.0000 S   0  0  0  0  0  0  0  0  0  0  0  0
    2.8579   -0.8250    0.0000 O   0  0  0  0  0  0  0  0  0  0  0  0
    1.7309   -1.1270    0.0000 O   0  0  0  0  0  0  0  0  0  0  0  0
    2.5559    0.3020    0.0000 O   0  0  0  0  0  0  0  0  0  0  0  0
    1.4289    2.4750    0.0000 H   0  0  0  0  0  0  0  0  0  0  0  0
    0.0000    2.4750    0.0000 H   0  0  0  0  0  0  0  0  0  0  0  0
    2.1434    1.2375    0.0000 H   0  0  0  0  0  0  0  0  0  0  0  0
    0.7145   -1.2375    0.0000 H   0  0  0  0  0  0  0  0  0  0  0  0
   -0.7145   -0.4125    0.0000 H   0  0  0  0  0  0  0  0  0  0  0  0
    2.8579   -1.6500    0.0000 H   0  0  0  0  0  0  0  0  0  0  0  0
  1  2  1  0  0  0  0
  2  3  4  0  0  0  0
  3  4  4  0  0  0  0
  4  5  4  0  0  0  0
  5  6  4  0  0  0  0
  6  7  4  0  0  0  0
  2  7  4  0  0  0  0
  7  8  1  0  0  0  0
  4  9  1  0  0  0  0
  9 10  1  0  0  0  0
  9 11  2  0  0  0  0
  9 12  2  0  0  0  0
  1 13  1  0  0  0  0
  1 14  1  0  0  0  0
  3 15  1  0  0  0  0
  5 16  1  0  0  0  0
  6 17  1  0  0  0  0
 10 18  1  0  0  0  0
M  END
>  <InChIKey>
InChI=1S/C6H6ClNO3S/c7-5-2-1-4(3-6(5)8)12(9,10)11/h1-3H,8H2,(H,9,10,11)

>  <UN GHS>
1

>  <CASRN>
98-36-2

> <Outcome>
1

>  <Index>
3285

>  <StandardizerResult>
Dearomatize (ID: Dearomatize)
Clear Stereo (ID: ClearStereo)
Wedge Clean (ID: WedgeClean)
Mesomerize (ID: Mesomerize)
Tautomerize (ID: Tautomerize)
Aromatize (ID: Aromatize)
Add Explicit Hydrogens (ID: AddExplicitH)
Neutralize (ID: Neutralize)
Clean 2D (ID: Clean2D)

> <knn Distance>


> <CpId>
3285

$$$$
3286
  Mrv1532301301811342D          

  9  8  0  0  0  0            999 V2000
    2.0615   -0.7162    0.0000 C   0  0  0  0  0  0  0  0  0  0  0  0
    1.2365   -0.7162    0.0000 O   0  0  0  0  0  0  0  0  0  0  0  0
    0.8240   -0.0017    0.0000 C   0  0  0  0  0  0  0  0  0  0  0  0
   -0.0010   -0.0017    0.0000 Cl  0  0  0  0  0  0  0  0  0  0  0  0
    2.0615   -1.5412    0.0000 H   0  0  0  0  0  0  0  0  0  0  0  0
    2.8865   -0.7162    0.0000 H   0  0  0  0  0  0  0  0  0  0  0  0
    2.0615    0.1088    0.0000 H   0  0  0  0  0  0  0  0  0  0  0  0
    1.5133    0.4516    0.0000 H   0  0  0  0  0  0  0  0  0  0  0  0
    0.8720    0.8219    0.0000 H   0  0  0  0  0  0  0  0  0  0  0  0
  1  2  1  0  0  0  0
  2  3  1  0  0  0  0
  3  4  1  0  0  0  0
  1  5  1  0  0  0  0
  1  6  1  0  0  0  0
  1  7  1  0  0  0  0
  3  8  1  0  0  0  0
  3  9  1  0  0  0  0
M  END
>  <InChIKey>
InChI=1S/C2H5ClO/c1-4-2-3/h2H2,1H3

>  <CASRN>
107-30-2

> <Outcome>
1

>  <Index>
3286

>  <StandardizerResult>
Clear Stereo (ID: ClearStereo)
Wedge Clean (ID: WedgeClean)
Mesomerize (ID: Mesomerize)
Tautomerize (ID: Tautomerize)
Add Explicit Hydrogens (ID: AddExplicitH)
Neutralize (ID: Neutralize)
Clean 2D (ID: Clean2D)

> <knn Distance>


> <CpId>
3286

$$$$
3287
  Mrv1532301301811342D          

 12 12  0  0  0  0            999 V2000
    0.7145    2.0625    0.0000 Cl  0  0  0  0  0  0  0  0  0  0  0  0
    0.7145    1.2375    0.0000 C   0  0  0  0  0  0  0  0  0  0  0  0
    1.4289    0.8250    0.0000 C   0  0  0  0  0  0  0  0  0  0  0  0
    1.4289   -0.0000    0.0000 C   0  0  0  0  0  0  0  0  0  0  0  0
    2.1434   -0.4125    0.0000 Cl  0  0  0  0  0  0  0  0  0  0  0  0
    0.7145   -0.4125    0.0000 C   0  0  0  0  0  0  0  0  0  0  0  0
   -0.0000   -0.0000    0.0000 C   0  0  0  0  0  0  0  0  0  0  0  0
   -0.7145   -0.4125    0.0000 Cl  0  0  0  0  0  0  0  0  0  0  0  0
   -0.0000    0.8250    0.0000 C   0  0  0  0  0  0  0  0  0  0  0  0
    2.1434    1.2375    0.0000 H   0  0  0  0  0  0  0  0  0  0  0  0
    0.7145   -1.2375    0.0000 H   0  0  0  0  0  0  0  0  0  0  0  0
   -0.7145    1.2375    0.0000 H   0  0  0  0  0  0  0  0  0  0  0  0
  1  2  1  0  0  0  0
  2  3  4  0  0  0  0
  3  4  4  0  0  0  0
  4  5  1  0  0  0  0
  4  6  4  0  0  0  0
  6  7  4  0  0  0  0
  7  8  1  0  0  0  0
  7  9  4  0  0  0  0
  2  9  4  0  0  0  0
  3 10  1  0  0  0  0
  6 11  1  0  0  0  0
  9 12  1  0  0  0  0
M  END
>  <InChIKey>
InChI=1S/C6H3Cl3/c7-4-1-5(8)3-6(9)2-4/h1-3H

>  <CASRN>
108-70-3

> <Outcome>
1

>  <Index>
3287

>  <StandardizerResult>
Dearomatize (ID: Dearomatize)
Clear Stereo (ID: ClearStereo)
Wedge Clean (ID: WedgeClean)
Mesomerize (ID: Mesomerize)
Tautomerize (ID: Tautomerize)
Aromatize (ID: Aromatize)
Add Explicit Hydrogens (ID: AddExplicitH)
Neutralize (ID: Neutralize)
Clean 2D (ID: Clean2D)

> <knn Distance>


> <CpId>
3287

$$$$
3291
  Mrv1532301301811342D          

 18 17  0  0  0  0            999 V2000
    1.7605    1.8414    0.0000 C   0  0  0  0  0  0  0  0  0  0  0  0
    2.4750    1.4289    0.0000 O   0  0  0  0  0  0  0  0  0  0  0  0
    3.1895    1.8414    0.0000 C   0  0  0  0  0  0  0  0  0  0  0  0
    3.9039    1.4289    0.0000 C   0  0  0  0  0  0  0  0  0  0  0  0
    4.6184    1.8414    0.0000 O   0  0  0  0  0  0  0  0  0  0  0  0
    5.3329    1.4289    0.0000 C   0  0  0  0  0  0  0  0  0  0  0  0
    6.0474    1.8414    0.0000 C   0  0  0  0  0  0  0  0  0  0  0  0
    5.3329    0.6039    0.0000 O   0  0  0  0  0  0  0  0  0  0  0  0
    2.1730    2.5559    0.0000 H   0  0  0  0  0  0  0  0  0  0  0  0
    1.0461    2.2539    0.0000 H   0  0  0  0  0  0  0  0  0  0  0  0
    1.3480    1.1269    0.0000 H   0  0  0  0  0  0  0  0  0  0  0  0
    3.5597    2.5786    0.0000 H   0  0  0  0  0  0  0  0  0  0  0  0
    2.8192    2.5786    0.0000 H   0  0  0  0  0  0  0  0  0  0  0  0
    3.5337    0.6917    0.0000 H   0  0  0  0  0  0  0  0  0  0  0  0
    4.2742    0.6917    0.0000 H   0  0  0  0  0  0  0  0  0  0  0  0
    6.4599    1.1269    0.0000 H   0  0  0  0  0  0  0  0  0  0  0  0
    6.7618    2.2539    0.0000 H   0  0  0  0  0  0  0  0  0  0  0  0
    5.6349    2.5559    0.0000 H   0  0  0  0  0  0  0  0  0  0  0  0
  1  2  1  0  0  0  0
  2  3  1  0  0  0  0
  3  4  1  0  0  0  0
  4  5  1  0  0  0  0
  5  6  1  0  0  0  0
  6  7  1  0  0  0  0
  6  8  2  0  0  0  0
  1  9  1  0  0  0  0
  1 10  1  0  0  0  0
  1 11  1  0  0  0  0
  3 12  1  0  0  0  0
  3 13  1  0  0  0  0
  4 14  1  0  0  0  0
  4 15  1  0  0  0  0
  7 16  1  0  0  0  0
  7 17  1  0  0  0  0
  7 18  1  0  0  0  0
M  END
>  <InChIKey>
InChI=1S/C5H10O3/c1-5(6)8-4-3-7-2/h3-4H2,1-2H3

>  <UN GHS>
1

>  <CASRN>
110-49-6

> <Outcome>
1

>  <Index>
3291

>  <StandardizerResult>
Clear Stereo (ID: ClearStereo)
Wedge Clean (ID: WedgeClean)
Mesomerize (ID: Mesomerize)
Tautomerize (ID: Tautomerize)
Add Explicit Hydrogens (ID: AddExplicitH)
Neutralize (ID: Neutralize)
Clean 2D (ID: Clean2D)

> <knn Distance>


> <CpId>
3291

$$$$
3296
  Mrv1532301301811342D          

  8  7  0  0  0  0            999 V2000
    0.8250    1.4289    0.0000 C   0  0  0  0  0  0  0  0  0  0  0  0
    1.2375    0.7144    0.0000 O   0  0  0  0  0  0  0  0  0  0  0  0
    0.8250   -0.0000    0.0000 C   0  0  0  0  0  0  0  0  0  0  0  0
    1.2375   -0.7145    0.0000 Cl  0  0  0  0  0  0  0  0  0  0  0  0
   -0.0000   -0.0000    0.0000 O   0  0  0  0  0  0  0  0  0  0  0  0
    1.5395    1.8414    0.0000 H   0  0  0  0  0  0  0  0  0  0  0  0
    0.4125    2.1434    0.0000 H   0  0  0  0  0  0  0  0  0  0  0  0
    0.1105    1.0164    0.0000 H   0  0  0  0  0  0  0  0  0  0  0  0
  1  2  1  0  0  0  0
  2  3  1  0  0  0  0
  3  4  1  0  0  0  0
  3  5  2  0  0  0  0
  1  6  1  0  0  0  0
  1  7  1  0  0  0  0
  1  8  1  0  0  0  0
M  END
>  <InChIKey>
InChI=1S/C2H3ClO2/c1-5-2(3)4/h1H3

>  <CASRN>
79-22-1

> <Outcome>
1

>  <Index>
3296

>  <StandardizerResult>
Clear Stereo (ID: ClearStereo)
Wedge Clean (ID: WedgeClean)
Mesomerize (ID: Mesomerize)
Tautomerize (ID: Tautomerize)
Add Explicit Hydrogens (ID: AddExplicitH)
Neutralize (ID: Neutralize)
Clean 2D (ID: Clean2D)

> <knn Distance>


> <CpId>
3296

$$$$
3298
  Mrv1532301301811342D          

 18 18  0  0  0  0            999 V2000
   -0.0000    2.4750    0.0000 O   0  0  0  0  0  0  0  0  0  0  0  0
    0.7145    2.0625    0.0000 C   0  0  0  0  0  0  0  0  0  0  0  0
    1.4289    2.4750    0.0000 O   0  0  0  0  0  0  0  0  0  0  0  0
    0.7145    1.2375    0.0000 C   0  0  0  0  0  0  0  0  0  0  0  0
    1.4289    0.8250    0.0000 C   0  0  0  0  0  0  0  0  0  0  0  0
    1.4289   -0.0000    0.0000 C   0  0  0  0  0  0  0  0  0  0  0  0
    0.7145   -0.4125    0.0000 C   0  0  0  0  0  0  0  0  0  0  0  0
   -0.0000   -0.0000    0.0000 C   0  0  0  0  0  0  0  0  0  0  0  0
   -0.0000    0.8250    0.0000 C   0  0  0  0  0  0  0  0  0  0  0  0
   -0.7145    1.2375    0.0000 C   0  0  0  0  0  0  0  0  0  0  0  0
   -0.7145    2.0625    0.0000 O   0  0  0  0  0  0  0  0  0  0  0  0
   -1.4289    0.8250    0.0000 O   0  0  0  0  0  0  0  0  0  0  0  0
   -0.0000    3.3000    0.0000 H   0  0  0  0  0  0  0  0  0  0  0  0
    2.1434    1.2375    0.0000 H   0  0  0  0  0  0  0  0  0  0  0  0
    2.1434   -0.4125    0.0000 H   0  0  0  0  0  0  0  0  0  0  0  0
    0.7145   -1.2375    0.0000 H   0  0  0  0  0  0  0  0  0  0  0  0
   -0.7145   -0.4125    0.0000 H   0  0  0  0  0  0  0  0  0  0  0  0
   -1.4289    2.4750    0.0000 H   0  0  0  0  0  0  0  0  0  0  0  0
  1  2  1  0  0  0  0
  2  3  2  0  0  0  0
  2  4  1  0  0  0  0
  4  5  4  0  0  0  0
  5  6  4  0  0  0  0
  6  7  4  0  0  0  0
  7  8  4  0  0  0  0
  8  9  4  0  0  0  0
  4  9  4  0  0  0  0
  9 10  1  0  0  0  0
 10 11  1  0  0  0  0
 10 12  2  0  0  0  0
  1 13  1  0  0  0  0
  5 14  1  0  0  0  0
  6 15  1  0  0  0  0
  7 16  1  0  0  0  0
  8 17  1  0  0  0  0
 11 18  1  0  0  0  0
M  END
>  <InChIKey>
InChI=1S/C8H6O4/c9-7(10)5-3-1-2-4-6(5)8(11)12/h1-4H,(H,9,10)(H,11,12)

>  <CASRN>
88-99-3

> <Outcome>
1

>  <Index>
3298

>  <StandardizerResult>
Dearomatize (ID: Dearomatize)
Clear Stereo (ID: ClearStereo)
Wedge Clean (ID: WedgeClean)
Mesomerize (ID: Mesomerize)
Tautomerize (ID: Tautomerize)
Aromatize (ID: Aromatize)
Add Explicit Hydrogens (ID: AddExplicitH)
Neutralize (ID: Neutralize)
Clean 2D (ID: Clean2D)

> <knn Distance>


> <CpId>
3298

$$$$
3301
  Mrv1532301301811342D          

 28 28  0  0  0  0            999 V2000
    0.7145    2.0002    0.0000 C   0  0  0  0  0  0  0  0  0  0  0  0
    0.7145    1.1752    0.0000 C   0  0  0  0  0  0  0  0  0  0  0  0
    1.4290    0.7627    0.0000 C   0  0  0  0  0  0  0  0  0  0  0  0
    1.4290   -0.0623    0.0000 C   0  0  0  0  0  0  0  0  0  0  0  0
    0.7145   -0.4748    0.0000 C   0  0  0  0  0  0  0  0  0  0  0  0
    0.0000   -0.0623    0.0000 C   0  0  0  0  0  0  0  0  0  0  0  0
   -0.7145   -0.4748    0.0000 O   0  0  0  0  0  0  0  0  0  0  0  0
    0.0000    0.7627    0.0000 C   0  0  0  0  0  0  0  0  0  0  0  0
    0.7145   -1.2998    0.0000 C   0  0  0  0  0  0  0  0  0  0  0  0
    0.7145   -2.1248    0.0000 C   0  0  0  0  0  0  0  0  0  0  0  0
   -0.1105   -1.2998    0.0000 C   0  0  0  0  0  0  0  0  0  0  0  0
    1.5395   -1.2998    0.0000 C   0  0  0  0  0  0  0  0  0  0  0  0
    1.5395    2.0002    0.0000 H   0  0  0  0  0  0  0  0  0  0  0  0
    0.7145    2.8252    0.0000 H   0  0  0  0  0  0  0  0  0  0  0  0
   -0.1105    2.0002    0.0000 H   0  0  0  0  0  0  0  0  0  0  0  0
    2.1434    1.1752    0.0000 H   0  0  0  0  0  0  0  0  0  0  0  0
    2.1434   -0.4748    0.0000 H   0  0  0  0  0  0  0  0  0  0  0  0
   -1.4289   -0.0623    0.0000 H   0  0  0  0  0  0  0  0  0  0  0  0
   -0.7145    1.1752    0.0000 H   0  0  0  0  0  0  0  0  0  0  0  0
   -0.1105   -2.1248    0.0000 H   0  0  0  0  0  0  0  0  0  0  0  0
    0.7145   -2.9498    0.0000 H   0  0  0  0  0  0  0  0  0  0  0  0
    1.5395   -2.1248    0.0000 H   0  0  0  0  0  0  0  0  0  0  0  0
    0.2052   -0.5376    0.0000 H   0  0  0  0  0  0  0  0  0  0  0  0
   -0.6939   -0.7164    0.0000 H   0  0  0  0  0  0  0  0  0  0  0  0
   -0.8727   -1.6155    0.0000 H   0  0  0  0  0  0  0  0  0  0  0  0
    2.3017   -1.6155    0.0000 H   0  0  0  0  0  0  0  0  0  0  0  0
    2.1228   -0.7164    0.0000 H   0  0  0  0  0  0  0  0  0  0  0  0
    1.2238   -0.5376    0.0000 H   0  0  0  0  0  0  0  0  0  0  0  0
  1  2  1  0  0  0  0
  2  3  4  0  0  0  0
  3  4  4  0  0  0  0
  4  5  4  0  0  0  0
  5  6  4  0  0  0  0
  6  7  1  0  0  0  0
  6  8  4  0  0  0  0
  2  8  4  0  0  0  0
  5  9  1  0  0  0  0
  9 10  1  0  0  0  0
  9 11  1  0  0  0  0
  9 12  1  0  0  0  0
  1 13  1  0  0  0  0
  1 14  1  0  0  0  0
  1 15  1  0  0  0  0
  3 16  1  0  0  0  0
  4 17  1  0  0  0  0
  7 18  1  0  0  0  0
  8 19  1  0  0  0  0
 10 20  1  0  0  0  0
 10 21  1  0  0  0  0
 10 22  1  0  0  0  0
 11 23  1  0  0  0  0
 11 24  1  0  0  0  0
 11 25  1  0  0  0  0
 12 26  1  0  0  0  0
 12 27  1  0  0  0  0
 12 28  1  0  0  0  0
M  END
>  <InChIKey>
InChI=1S/C11H16O/c1-8-5-6-9(10(12)7-8)11(2,3)4/h5-7,12H,1-4H3

>  <CASRN>
88-60-8

> <Outcome>
1

>  <Index>
3301

>  <StandardizerResult>
Dearomatize (ID: Dearomatize)
Clear Stereo (ID: ClearStereo)
Wedge Clean (ID: WedgeClean)
Mesomerize (ID: Mesomerize)
Tautomerize (ID: Tautomerize)
Aromatize (ID: Aromatize)
Add Explicit Hydrogens (ID: AddExplicitH)
Neutralize (ID: Neutralize)
Clean 2D (ID: Clean2D)

> <knn Distance>


> <CpId>
3301

$$$$
3303
  Mrv1532301301811342D          

 12 11  0  0  0  0            999 V2000
    2.0625    0.7145    0.0000 N   0  0  0  0  0  0  0  0  0  0  0  0
    1.2375    0.7145    0.0000 C   0  0  0  0  0  0  0  0  0  0  0  0
    0.8250    1.4290    0.0000 O   0  0  0  0  0  0  0  0  0  0  0  0
    0.8250    0.0000    0.0000 N   0  0  0  0  0  0  0  0  0  0  0  0
    0.0000    0.0000    0.0000 N   0  0  0  0  0  0  0  0  0  0  0  0
   -0.4125   -0.7145    0.0000 C   0  0  0  0  0  0  0  0  0  0  0  0
    0.0000   -1.4289    0.0000 N   0  0  0  0  0  0  0  0  0  0  0  0
   -1.2375   -0.7145    0.0000 O   0  0  0  0  0  0  0  0  0  0  0  0
    2.4750    0.0000    0.0000 H   0  0  0  0  0  0  0  0  0  0  0  0
    2.4750    1.4290    0.0000 H   0  0  0  0  0  0  0  0  0  0  0  0
   -0.4125   -2.1434    0.0000 H   0  0  0  0  0  0  0  0  0  0  0  0
    0.8250   -1.4289    0.0000 H   0  0  0  0  0  0  0  0  0  0  0  0
  1  2  1  0  0  0  0
  2  3  2  0  0  0  0
  4  2  1  4  0  0  0
  4  5  2  0  0  0  0
  5  6  1  0  0  0  0
  6  7  1  0  0  0  0
  6  8  2  0  0  0  0
  1  9  1  0  0  0  0
  1 10  1  0  0  0  0
  7 11  1  0  0  0  0
  7 12  1  0  0  0  0
M  END
>  <InChIKey>
InChI=1S/C2H4N4O2/c3-1(7)5-6-2(4)8/h(H2,3,7)(H2,4,8)

>  <CASRN>
123-77-3

> <Outcome>
1

>  <Index>
3303

>  <StandardizerResult>
Clear Stereo (ID: ClearStereo)
Wedge Clean (ID: WedgeClean)
Mesomerize (ID: Mesomerize)
Tautomerize (ID: Tautomerize)
Add Explicit Hydrogens (ID: AddExplicitH)
Neutralize (ID: Neutralize)
Clean 2D (ID: Clean2D)

> <knn Distance>


> <CpId>
3303

$$$$
3305
  Mrv1532301301811342D          

 13 13  0  0  0  0            999 V2000
   -0.1479    2.3511    0.0000 O   0  0  0  0  0  0  0  0  0  0  0  0
    0.5666    1.9386    0.0000 C   0  0  0  0  0  0  0  0  0  0  0  0
    0.5666    1.1136    0.0000 C   0  0  0  0  0  0  0  0  0  0  0  0
    1.2340    0.6287    0.0000 C   0  0  0  0  0  0  0  0  0  0  0  0
    0.9791   -0.1559    0.0000 C   0  0  0  0  0  0  0  0  0  0  0  0
    0.1541   -0.1559    0.0000 C   0  0  0  0  0  0  0  0  0  0  0  0
   -0.1008    0.6287    0.0000 O   0  0  0  0  0  0  0  0  0  0  0  0
   -0.1479    3.1761    0.0000 H   0  0  0  0  0  0  0  0  0  0  0  0
    1.3902    1.9866    0.0000 H   0  0  0  0  0  0  0  0  0  0  0  0
    1.0200    2.6279    0.0000 H   0  0  0  0  0  0  0  0  0  0  0  0
    2.0187    0.8836    0.0000 H   0  0  0  0  0  0  0  0  0  0  0  0
    1.4640   -0.8234    0.0000 H   0  0  0  0  0  0  0  0  0  0  0  0
   -0.3308   -0.8234    0.0000 H   0  0  0  0  0  0  0  0  0  0  0  0
  1  2  1  0  0  0  0
  2  3  1  0  0  0  0
  3  4  4  0  0  0  0
  4  5  4  0  0  0  0
  5  6  4  0  0  0  0
  6  7  4  0  0  0  0
  3  7  4  0  0  0  0
  1  8  1  0  0  0  0
  2  9  1  0  0  0  0
  2 10  1  0  0  0  0
  4 11  1  0  0  0  0
  5 12  1  0  0  0  0
  6 13  1  0  0  0  0
M  END
>  <InChIKey>
InChI=1S/C5H6O2/c6-4-5-2-1-3-7-5/h1-3,6H,4H2

>  <CASRN>
98-00-0

> <Outcome>
1

>  <Index>
3305

>  <StandardizerResult>
Dearomatize (ID: Dearomatize)
Clear Stereo (ID: ClearStereo)
Wedge Clean (ID: WedgeClean)
Mesomerize (ID: Mesomerize)
Tautomerize (ID: Tautomerize)
Aromatize (ID: Aromatize)
Add Explicit Hydrogens (ID: AddExplicitH)
Neutralize (ID: Neutralize)
Clean 2D (ID: Clean2D)

> <knn Distance>


> <CpId>
3305

$$$$
3312
  Mrv1532301301811342D          

 18 18  0  0  0  0            999 V2000
   -0.0000    3.3000    0.0000 C   0  0  0  0  0  0  0  0  0  0  0  0
   -0.0000    2.4750    0.0000 O   0  0  0  0  0  0  0  0  0  0  0  0
    0.7145    2.0625    0.0000 C   0  0  0  0  0  0  0  0  0  0  0  0
    1.4289    2.4750    0.0000 O   0  0  0  0  0  0  0  0  0  0  0  0
    0.7145    1.2375    0.0000 C   0  0  0  0  0  0  0  0  0  0  0  0
    1.4289    0.8250    0.0000 C   0  0  0  0  0  0  0  0  0  0  0  0
    1.4289    0.0000    0.0000 C   0  0  0  0  0  0  0  0  0  0  0  0
    0.7145   -0.4125    0.0000 C   0  0  0  0  0  0  0  0  0  0  0  0
   -0.0000    0.0000    0.0000 C   0  0  0  0  0  0  0  0  0  0  0  0
   -0.7145   -0.4125    0.0000 Cl  0  0  0  0  0  0  0  0  0  0  0  0
   -0.0000    0.8250    0.0000 C   0  0  0  0  0  0  0  0  0  0  0  0
    0.8250    3.3000    0.0000 H   0  0  0  0  0  0  0  0  0  0  0  0
   -0.0000    4.1250    0.0000 H   0  0  0  0  0  0  0  0  0  0  0  0
   -0.8250    3.3000    0.0000 H   0  0  0  0  0  0  0  0  0  0  0  0
    2.1434    1.2375    0.0000 H   0  0  0  0  0  0  0  0  0  0  0  0
    2.1434   -0.4125    0.0000 H   0  0  0  0  0  0  0  0  0  0  0  0
    0.7145   -1.2375    0.0000 H   0  0  0  0  0  0  0  0  0  0  0  0
   -0.7145    1.2375    0.0000 H   0  0  0  0  0  0  0  0  0  0  0  0
  1  2  1  0  0  0  0
  2  3  1  0  0  0  0
  3  4  2  0  0  0  0
  3  5  1  0  0  0  0
  5  6  4  0  0  0  0
  6  7  4  0  0  0  0
  7  8  4  0  0  0  0
  8  9  4  0  0  0  0
  9 10  1  0  0  0  0
  9 11  4  0  0  0  0
  5 11  4  0  0  0  0
  1 12  1  0  0  0  0
  1 13  1  0  0  0  0
  1 14  1  0  0  0  0
  6 15  1  0  0  0  0
  7 16  1  0  0  0  0
  8 17  1  0  0  0  0
 11 18  1  0  0  0  0
M  END
>  <InChIKey>
InChI=1S/C8H7ClO2/c1-11-8(10)6-3-2-4-7(9)5-6/h2-5H,1H3

>  <CASRN>
2905-65-9

> <Outcome>
1

>  <Index>
3312

>  <StandardizerResult>
Dearomatize (ID: Dearomatize)
Clear Stereo (ID: ClearStereo)
Wedge Clean (ID: WedgeClean)
Mesomerize (ID: Mesomerize)
Tautomerize (ID: Tautomerize)
Aromatize (ID: Aromatize)
Add Explicit Hydrogens (ID: AddExplicitH)
Neutralize (ID: Neutralize)
Clean 2D (ID: Clean2D)

> <knn Distance>


> <CpId>
3312

$$$$
3319
  Mrv1532301301811342D          

 27 27  0  0  0  0            999 V2000
    1.4289   -4.1257    0.0000 C   0  0  0  0  0  0  0  0  0  0  0  0
    2.1434   -3.7132    0.0000 C   0  0  0  0  0  0  0  0  0  0  0  0
    2.8579   -4.1257    0.0000 C   0  0  0  0  0  0  0  0  0  0  0  0
    3.5723   -3.7132    0.0000 C   0  0  0  0  0  0  0  0  0  0  0  0
    4.2868   -4.1257    0.0000 O   0  0  0  0  0  0  0  0  0  0  0  0
    5.0013   -3.7132    0.0000 C   0  0  0  0  0  0  0  0  0  0  0  0
    5.0013   -2.8882    0.0000 O   0  0  0  0  0  0  0  0  0  0  0  0
    5.7158   -4.1257    0.0000 C   0  0  0  0  0  0  0  0  0  0  0  0
    6.4302   -3.7132    0.0000 C   0  0  0  0  0  0  0  0  0  0  0  0
    7.1447   -4.1257    0.0000 C   0  0  0  0  0  0  0  0  0  0  0  0
    7.1447   -4.9507    0.0000 C   0  0  0  0  0  0  0  0  0  0  0  0
    6.4302   -5.3632    0.0000 C   0  0  0  0  0  0  0  0  0  0  0  0
    5.7158   -4.9507    0.0000 C   0  0  0  0  0  0  0  0  0  0  0  0
    1.0164   -3.4112    0.0000 H   0  0  0  0  0  0  0  0  0  0  0  0
    0.7145   -4.5382    0.0000 H   0  0  0  0  0  0  0  0  0  0  0  0
    1.8414   -4.8401    0.0000 H   0  0  0  0  0  0  0  0  0  0  0  0
    2.5137   -2.9759    0.0000 H   0  0  0  0  0  0  0  0  0  0  0  0
    1.7731   -2.9759    0.0000 H   0  0  0  0  0  0  0  0  0  0  0  0
    2.4876   -4.8629    0.0000 H   0  0  0  0  0  0  0  0  0  0  0  0
    3.2281   -4.8629    0.0000 H   0  0  0  0  0  0  0  0  0  0  0  0
    3.9426   -2.9759    0.0000 H   0  0  0  0  0  0  0  0  0  0  0  0
    3.2021   -2.9759    0.0000 H   0  0  0  0  0  0  0  0  0  0  0  0
    6.4302   -2.8882    0.0000 H   0  0  0  0  0  0  0  0  0  0  0  0
    7.8592   -3.7132    0.0000 H   0  0  0  0  0  0  0  0  0  0  0  0
    7.8592   -5.3632    0.0000 H   0  0  0  0  0  0  0  0  0  0  0  0
    6.4302   -6.1882    0.0000 H   0  0  0  0  0  0  0  0  0  0  0  0
    5.0013   -5.3632    0.0000 H   0  0  0  0  0  0  0  0  0  0  0  0
  1  2  1  0  0  0  0
  2  3  1  0  0  0  0
  3  4  1  0  0  0  0
  4  5  1  0  0  0  0
  5  6  1  0  0  0  0
  6  7  2  0  0  0  0
  6  8  1  0  0  0  0
  8  9  4  0  0  0  0
  9 10  4  0  0  0  0
 10 11  4  0  0  0  0
 11 12  4  0  0  0  0
 12 13  4  0  0  0  0
  8 13  4  0  0  0  0
  1 14  1  0  0  0  0
  1 15  1  0  0  0  0
  1 16  1  0  0  0  0
  2 17  1  0  0  0  0
  2 18  1  0  0  0  0
  3 19  1  0  0  0  0
  3 20  1  0  0  0  0
  4 21  1  0  0  0  0
  4 22  1  0  0  0  0
  9 23  1  0  0  0  0
 10 24  1  0  0  0  0
 11 25  1  0  0  0  0
 12 26  1  0  0  0  0
 13 27  1  0  0  0  0
M  END
>  <InChIKey>
InChI=1S/C11H14O2/c1-2-3-9-13-11(12)10-7-5-4-6-8-10/h4-8H,2-3,9H2,1H3

>  <CASRN>
136-60-7

> <Outcome>
1

>  <Index>
3319

>  <StandardizerResult>
Dearomatize (ID: Dearomatize)
Clear Stereo (ID: ClearStereo)
Wedge Clean (ID: WedgeClean)
Mesomerize (ID: Mesomerize)
Tautomerize (ID: Tautomerize)
Aromatize (ID: Aromatize)
Add Explicit Hydrogens (ID: AddExplicitH)
Neutralize (ID: Neutralize)
Clean 2D (ID: Clean2D)

> <knn Distance>


> <CpId>
3319

$$$$
3320
  Mrv1532301301811342D          

  6  5  0  0  0  0            999 V2000
    1.2375    0.7145    0.0000 Cl  0  0  0  0  0  0  0  0  0  0  0  0
    0.8250    0.0000    0.0000 C   0  0  0  0  0  0  0  0  0  0  0  0
    0.0000    0.0000    0.0000 C   0  0  0  0  0  0  0  0  0  0  0  0
   -0.4125   -0.7145    0.0000 Cl  0  0  0  0  0  0  0  0  0  0  0  0
   -0.4125    0.7145    0.0000 Cl  0  0  0  0  0  0  0  0  0  0  0  0
    1.2375   -0.7145    0.0000 H   0  0  0  0  0  0  0  0  0  0  0  0
  1  2  1  0  0  0  0
  2  3  2  0  0  0  0
  3  4  1  0  0  0  0
  3  5  1  0  0  0  0
  2  6  1  0  0  0  0
M  END
>  <InChIKey>
InChI=1S/C2HCl3/c3-1-2(4)5/h1H

>  <CASRN>
79-01-6

> <Outcome>
1

>  <Index>
3320

>  <StandardizerResult>
Clear Stereo (ID: ClearStereo)
Wedge Clean (ID: WedgeClean)
Mesomerize (ID: Mesomerize)
Tautomerize (ID: Tautomerize)
Add Explicit Hydrogens (ID: AddExplicitH)
Neutralize (ID: Neutralize)
Clean 2D (ID: Clean2D)

> <knn Distance>


> <CpId>
3320

$$$$
3323
  Mrv1532301301811342D          

 21 23  0  0  0  0            999 V2000
    4.2575    1.6387    0.0000 Cl  0  0  0  0  0  0  0  0  0  0  0  0
    3.7054    1.0256    0.0000 C   0  0  0  0  0  0  0  0  0  0  0  0
    2.8985    1.1971    0.0000 C   0  0  0  0  0  0  0  0  0  0  0  0
    2.3464    0.5840    0.0000 C   0  0  0  0  0  0  0  0  0  0  0  0
    2.6014   -0.2006    0.0000 C   0  0  0  0  0  0  0  0  0  0  0  0
    1.9339   -0.6855    0.0000 O   0  0  0  0  0  0  0  0  0  0  0  0
    1.2665   -0.2006    0.0000 C   0  0  0  0  0  0  0  0  0  0  0  0
    0.4595   -0.3721    0.0000 C   0  0  0  0  0  0  0  0  0  0  0  0
    0.2046   -1.1567    0.0000 Cl  0  0  0  0  0  0  0  0  0  0  0  0
   -0.0925    0.2410    0.0000 C   0  0  0  0  0  0  0  0  0  0  0  0
   -0.8995    0.0694    0.0000 Cl  0  0  0  0  0  0  0  0  0  0  0  0
    0.1624    1.0256    0.0000 C   0  0  0  0  0  0  0  0  0  0  0  0
   -0.3896    1.6387    0.0000 Cl  0  0  0  0  0  0  0  0  0  0  0  0
    0.9694    1.1971    0.0000 C   0  0  0  0  0  0  0  0  0  0  0  0
    1.5214    0.5840    0.0000 C   0  0  0  0  0  0  0  0  0  0  0  0
    3.4084   -0.3721    0.0000 C   0  0  0  0  0  0  0  0  0  0  0  0
    3.6633   -1.1567    0.0000 Cl  0  0  0  0  0  0  0  0  0  0  0  0
    3.9604    0.2410    0.0000 C   0  0  0  0  0  0  0  0  0  0  0  0
    4.7674    0.0694    0.0000 Cl  0  0  0  0  0  0  0  0  0  0  0  0
    2.6435    1.9817    0.0000 H   0  0  0  0  0  0  0  0  0  0  0  0
    1.2243    1.9817    0.0000 H   0  0  0  0  0  0  0  0  0  0  0  0
  1  2  1  0  0  0  0
  2  3  4  0  0  0  0
  3  4  4  0  0  0  0
  4  5  4  0  0  0  0
  5  6  4  0  0  0  0
  6  7  4  0  0  0  0
  7  8  4  0  0  0  0
  8  9  1  0  0  0  0
  8 10  4  0  0  0  0
 10 11  1  0  0  0  0
 10 12  4  0  0  0  0
 12 13  1  0  0  0  0
 12 14  4  0  0  0  0
 14 15  4  0  0  0  0
  4 15  4  0  0  0  0
  7 15  4  0  0  0  0
  5 16  4  0  0  0  0
 16 17  1  0  0  0  0
 16 18  4  0  0  0  0
  2 18  4  0  0  0  0
 18 19  1  0  0  0  0
  3 20  1  0  0  0  0
 14 21  1  0  0  0  0
M  END
>  <InChIKey>
InChI=1S/C12H2Cl6O/c13-5-1-3-4-2-6(14)8(16)10(18)12(4)19-11(3)9(17)7(5)15/h1-2H

>  <CASRN>
60851-34-5

> <Outcome>
1

>  <Index>
3323

>  <StandardizerResult>
Dearomatize (ID: Dearomatize)
Clear Stereo (ID: ClearStereo)
Wedge Clean (ID: WedgeClean)
Mesomerize (ID: Mesomerize)
Tautomerize (ID: Tautomerize)
Aromatize (ID: Aromatize)
Add Explicit Hydrogens (ID: AddExplicitH)
Neutralize (ID: Neutralize)
Clean 2D (ID: Clean2D)

> <knn Distance>


> <CpId>
3323

$$$$
3324
  Mrv1532301301811342D          

 21 21  0  0  0  0            999 V2000
    2.8579    0.8250    0.0000 O   0  0  0  0  0  0  0  0  0  0  0  0
    2.1434    1.2375    0.0000 N   0  0  0  0  0  0  0  0  0  0  0  0
    2.1434    2.0625    0.0000 O   0  0  0  0  0  0  0  0  0  0  0  0
    1.4289    0.8250    0.0000 N   0  0  0  0  0  0  0  0  0  0  0  0
    1.4289   -0.0000    0.0000 C   0  0  0  0  0  0  0  0  0  0  0  0
    0.7145   -0.4125    0.0000 N   0  0  0  0  0  0  0  0  0  0  0  0
   -0.0000   -0.0000    0.0000 C   0  0  0  0  0  0  0  0  0  0  0  0
   -0.0000    0.8250    0.0000 N   0  0  0  0  0  0  0  0  0  0  0  0
    0.7145    1.2375    0.0000 C   0  0  0  0  0  0  0  0  0  0  0  0
   -0.7145    1.2375    0.0000 N   0  0  0  0  0  0  0  0  0  0  0  0
   -1.4289    0.8250    0.0000 O   0  0  0  0  0  0  0  0  0  0  0  0
   -0.7145    2.0625    0.0000 O   0  0  0  0  0  0  0  0  0  0  0  0
    0.7145   -1.2375    0.0000 N   0  0  0  0  0  0  0  0  0  0  0  0
   -0.0000   -1.6500    0.0000 O   0  0  0  0  0  0  0  0  0  0  0  0
    1.4289   -1.6500    0.0000 O   0  0  0  0  0  0  0  0  0  0  0  0
    1.8823   -0.6893    0.0000 H   0  0  0  0  0  0  0  0  0  0  0  0
    2.2525   -0.0480    0.0000 H   0  0  0  0  0  0  0  0  0  0  0  0
   -0.8236   -0.0480    0.0000 H   0  0  0  0  0  0  0  0  0  0  0  0
   -0.4533   -0.6893    0.0000 H   0  0  0  0  0  0  0  0  0  0  0  0
    1.0847    1.9747    0.0000 H   0  0  0  0  0  0  0  0  0  0  0  0
    0.3442    1.9747    0.0000 H   0  0  0  0  0  0  0  0  0  0  0  0
  1  2  2  0  0  0  0
  2  3  2  0  0  0  0
  2  4  1  0  0  0  0
  4  5  1  0  0  0  0
  5  6  1  0  0  0  0
  6  7  1  0  0  0  0
  7  8  1  0  0  0  0
  8  9  1  0  0  0  0
  4  9  1  0  0  0  0
  8 10  1  0  0  0  0
 10 11  2  0  0  0  0
 10 12  2  0  0  0  0
  6 13  1  0  0  0  0
 13 14  2  0  0  0  0
 13 15  2  0  0  0  0
  5 16  1  0  0  0  0
  5 17  1  0  0  0  0
  7 18  1  0  0  0  0
  7 19  1  0  0  0  0
  9 20  1  0  0  0  0
  9 21  1  0  0  0  0
M  END
>  <InChIKey>
InChI=1S/C3H6N6O6/c10-7(11)4-1-5(8(12)13)3-6(2-4)9(14)15/h1-3H2

>  <CASRN>
121-82-4

> <Outcome>
1

>  <Index>
3324

>  <StandardizerResult>
Clear Stereo (ID: ClearStereo)
Wedge Clean (ID: WedgeClean)
Mesomerize (ID: Mesomerize)
Tautomerize (ID: Tautomerize)
Add Explicit Hydrogens (ID: AddExplicitH)
Neutralize (ID: Neutralize)
Clean 2D (ID: Clean2D)

> <knn Distance>


> <CpId>
3324

$$$$
3325
  Mrv1532301301811342D          

 49 52  0  0  0  0            999 V2000
   -0.7655    1.3142    0.0000 C   0  0  0  0  0  0  0  0  0  0  0  0
   -0.0510    0.9017    0.0000 O   0  0  0  0  0  0  0  0  0  0  0  0
   -0.0510    0.0767    0.0000 C   0  0  0  0  0  0  0  0  0  0  0  0
   -0.7655   -0.3358    0.0000 C   0  0  0  0  0  0  0  0  0  0  0  0
   -1.4800    0.0767    0.0000 N   0  0  0  0  0  0  0  0  0  0  0  0
   -2.1945   -0.3358    0.0000 C   0  0  0  0  0  0  0  0  0  0  0  0
   -2.9089    0.0767    0.0000 C   0  0  0  0  0  0  0  0  0  0  0  0
   -2.9089    0.9017    0.0000 N   0  0  0  0  0  0  0  0  0  0  0  0
   -2.1945    1.3142    0.0000 C   0  0  0  0  0  0  0  0  0  0  0  0
   -2.1945    2.1392    0.0000 C   0  0  0  0  0  0  0  0  0  0  0  0
   -1.4800    0.9017    0.0000 C   0  0  0  0  0  0  0  0  0  0  0  0
   -0.7655   -1.1608    0.0000 C   0  0  0  0  0  0  0  0  0  0  0  0
   -1.4800   -1.5733    0.0000 F   0  0  0  0  0  0  0  0  0  0  0  0
   -0.0510   -1.5733    0.0000 C   0  0  0  0  0  0  0  0  0  0  0  0
    0.6634   -1.1608    0.0000 C   0  0  0  0  0  0  0  0  0  0  0  0
    0.6634   -0.3358    0.0000 C   0  0  0  0  0  0  0  0  0  0  0  0
    1.3779    0.0767    0.0000 N   0  0  0  0  0  0  0  0  0  0  0  0
    2.0924   -0.3358    0.0000 C   0  0  0  0  0  0  0  0  0  0  0  0
    2.0924   -1.1608    0.0000 C   0  0  0  0  0  0  0  0  0  0  0  0
    2.8068   -1.5733    0.0000 C   0  0  0  0  0  0  0  0  0  0  0  0
    3.5213   -1.1608    0.0000 O   0  0  0  0  0  0  0  0  0  0  0  0
    2.8068   -2.3983    0.0000 O   0  0  0  0  0  0  0  0  0  0  0  0
    1.3779   -1.5733    0.0000 C   0  0  0  0  0  0  0  0  0  0  0  0
    1.3779   -2.3983    0.0000 O   0  0  0  0  0  0  0  0  0  0  0  0
    1.3779    0.9017    0.0000 C   0  0  0  0  0  0  0  0  0  0  0  0
    0.9654    1.6162    0.0000 C   0  0  0  0  0  0  0  0  0  0  0  0
    1.7904    1.6162    0.0000 C   0  0  0  0  0  0  0  0  0  0  0  0
   -0.0510    1.7267    0.0000 H   0  0  0  0  0  0  0  0  0  0  0  0
   -0.7655    2.1392    0.0000 H   0  0  0  0  0  0  0  0  0  0  0  0
   -1.4800    1.7267    0.0000 H   0  0  0  0  0  0  0  0  0  0  0  0
   -2.5647   -1.0730    0.0000 H   0  0  0  0  0  0  0  0  0  0  0  0
   -1.8242   -1.0730    0.0000 H   0  0  0  0  0  0  0  0  0  0  0  0
   -3.7325    0.0288    0.0000 H   0  0  0  0  0  0  0  0  0  0  0  0
   -3.3623   -0.6126    0.0000 H   0  0  0  0  0  0  0  0  0  0  0  0
   -3.6234    1.3142    0.0000 H   0  0  0  0  0  0  0  0  0  0  0  0
   -2.1945    0.4892    0.0000 H   0  0  0  0  0  0  0  0  0  0  0  0
   -1.6111    2.7226    0.0000 H   0  0  0  0  0  0  0  0  0  0  0  0
   -2.6070    2.8537    0.0000 H   0  0  0  0  0  0  0  0  0  0  0  0
   -2.9913    1.9257    0.0000 H   0  0  0  0  0  0  0  0  0  0  0  0
   -0.9497    0.2697    0.0000 H   0  0  0  0  0  0  0  0  0  0  0  0
   -0.6675    0.7585    0.0000 H   0  0  0  0  0  0  0  0  0  0  0  0
   -0.0510   -2.3983    0.0000 H   0  0  0  0  0  0  0  0  0  0  0  0
    2.8068    0.0767    0.0000 H   0  0  0  0  0  0  0  0  0  0  0  0
    4.2358   -1.5733    0.0000 H   0  0  0  0  0  0  0  0  0  0  0  0
    2.1748    0.6882    0.0000 H   0  0  0  0  0  0  0  0  0  0  0  0
    0.5951    2.3534    0.0000 H   0  0  0  0  0  0  0  0  0  0  0  0
    0.1418    1.5682    0.0000 H   0  0  0  0  0  0  0  0  0  0  0  0
    2.6140    1.5682    0.0000 H   0  0  0  0  0  0  0  0  0  0  0  0
    2.1607    2.3534    0.0000 H   0  0  0  0  0  0  0  0  0  0  0  0
  1  2  1  0  0  0  0
  2  3  1  0  0  0  0
  3  4  4  0  0  0  0
  4  5  1  0  0  0  0
  5  6  1  0  0  0  0
  6  7  1  0  0  0  0
  7  8  1  0  0  0  0
  8  9  1  0  0  0  0
  9 10  1  0  0  0  0
  9 11  1  0  0  0  0
  5 11  1  0  0  0  0
  4 12  4  0  0  0  0
 12 13  1  0  0  0  0
 12 14  4  0  0  0  0
 14 15  4  0  0  0  0
 15 16  4  0  0  0  0
  3 16  4  0  0  0  0
 16 17  1  0  0  0  0
 17 18  1  0  0  0  0
 18 19  2  0  0  0  0
 19 20  1  0  0  0  0
 20 21  1  0  0  0  0
 20 22  2  0  0  0  0
 19 23  1  0  0  0  0
 15 23  1  0  0  0  0
 23 24  2  0  0  0  0
 17 25  1  0  0  0  0
 25 26  1  0  0  0  0
 26 27  1  0  0  0  0
 25 27  1  0  0  0  0
  1 28  1  0  0  0  0
  1 29  1  0  0  0  0
  1 30  1  0  0  0  0
  6 31  1  0  0  0  0
  6 32  1  0  0  0  0
  7 33  1  0  0  0  0
  7 34  1  0  0  0  0
  8 35  1  0  0  0  0
  9 36  1  0  0  0  0
 10 37  1  0  0  0  0
 10 38  1  0  0  0  0
 10 39  1  0  0  0  0
 11 40  1  0  0  0  0
 11 41  1  0  0  0  0
 14 42  1  0  0  0  0
 18 43  1  0  0  0  0
 21 44  1  0  0  0  0
 25 45  1  0  0  0  0
 26 46  1  0  0  0  0
 26 47  1  0  0  0  0
 27 48  1  0  0  0  0
 27 49  1  0  0  0  0
M  END
>  <InChIKey>
InChI=1S/C19H22FN3O4/c1-10-8-22(6-5-21-10)16-14(20)7-12-15(18(16)27-2)23(11-3-4-11)9-13(17(12)24)19(25)26/h7,9-11,21H,3-6,8H2,1-2H3,(H,25,26)

>  <CASRN>
112811-59-3

> <Outcome>
1

>  <Index>
3325

>  <StandardizerResult>
Dearomatize (ID: Dearomatize)
Clear Stereo (ID: ClearStereo)
Wedge Clean (ID: WedgeClean)
Mesomerize (ID: Mesomerize)
Tautomerize (ID: Tautomerize)
Aromatize (ID: Aromatize)
Add Explicit Hydrogens (ID: AddExplicitH)
Neutralize (ID: Neutralize)
Clean 2D (ID: Clean2D)

> <knn Distance>


> <CpId>
3325

$$$$
3328
  Mrv1532301301811342D          

 16 16  0  0  0  0            999 V2000
    1.4289    2.4750    0.0000 Br  0  0  0  0  0  0  0  0  0  0  0  0
    0.7145    2.0625    0.0000 C   0  0  0  0  0  0  0  0  0  0  0  0
   -0.0000    2.4750    0.0000 C   0  0  0  0  0  0  0  0  0  0  0  0
   -0.7145    2.8875    0.0000 N   0  0  0  0  0  0  0  0  0  0  0  0
    0.7145    1.2375    0.0000 C   0  0  0  0  0  0  0  0  0  0  0  0
    1.4289    0.8250    0.0000 C   0  0  0  0  0  0  0  0  0  0  0  0
    1.4289   -0.0000    0.0000 C   0  0  0  0  0  0  0  0  0  0  0  0
    0.7145   -0.4125    0.0000 C   0  0  0  0  0  0  0  0  0  0  0  0
   -0.0000    0.0000    0.0000 C   0  0  0  0  0  0  0  0  0  0  0  0
   -0.0000    0.8250    0.0000 C   0  0  0  0  0  0  0  0  0  0  0  0
    0.7145    2.8875    0.0000 H   0  0  0  0  0  0  0  0  0  0  0  0
    2.1434    1.2375    0.0000 H   0  0  0  0  0  0  0  0  0  0  0  0
    2.1434   -0.4125    0.0000 H   0  0  0  0  0  0  0  0  0  0  0  0
    0.7145   -1.2375    0.0000 H   0  0  0  0  0  0  0  0  0  0  0  0
   -0.7145   -0.4125    0.0000 H   0  0  0  0  0  0  0  0  0  0  0  0
   -0.7145    1.2375    0.0000 H   0  0  0  0  0  0  0  0  0  0  0  0
  1  2  1  0  0  0  0
  2  3  1  0  0  0  0
  3  4  3  0  0  0  0
  2  5  1  0  0  0  0
  5  6  4  0  0  0  0
  6  7  4  0  0  0  0
  7  8  4  0  0  0  0
  8  9  4  0  0  0  0
  9 10  4  0  0  0  0
  5 10  4  0  0  0  0
  2 11  1  0  0  0  0
  6 12  1  0  0  0  0
  7 13  1  0  0  0  0
  8 14  1  0  0  0  0
  9 15  1  0  0  0  0
 10 16  1  0  0  0  0
M  END
>  <InChIKey>
InChI=1S/C8H6BrN/c9-8(6-10)7-4-2-1-3-5-7/h1-5,8H

>  <CASRN>
5798-79-8

> <Outcome>
1

>  <Index>
3328

>  <StandardizerResult>
Dearomatize (ID: Dearomatize)
Clear Stereo (ID: ClearStereo)
Wedge Clean (ID: WedgeClean)
Mesomerize (ID: Mesomerize)
Tautomerize (ID: Tautomerize)
Aromatize (ID: Aromatize)
Add Explicit Hydrogens (ID: AddExplicitH)
Neutralize (ID: Neutralize)
Clean 2D (ID: Clean2D)

> <knn Distance>


> <CpId>
3328

$$$$
3331
  Mrv1532301301811342D          

 25 24  0  0  0  0            999 V2000
    1.0296    1.4333    0.0000 C   0  0  0  0  0  0  0  0  0  0  0  0
    1.7440    1.8458    0.0000 S   0  0  0  0  0  0  0  0  0  0  0  0
    2.4585    1.4333    0.0000 C   0  0  0  0  0  0  0  0  0  0  0  0
    3.1730    1.8458    0.0000 C   0  0  0  0  0  0  0  0  0  0  0  0
    3.8875    1.4333    0.0000 C   0  0  0  0  0  0  0  0  0  0  0  0
    4.6019    1.8458    0.0000 N   0  0  0  0  0  0  0  0  0  0  0  0
    5.3164    1.4333    0.0000 C   0  0  0  0  0  0  0  0  0  0  0  0
    6.0309    1.8458    0.0000 C   0  0  0  0  0  0  0  0  0  0  0  0
    5.3164    0.6083    0.0000 O   0  0  0  0  0  0  0  0  0  0  0  0
    3.8875    0.6083    0.0000 C   0  0  0  0  0  0  0  0  0  0  0  0
    4.6019    0.1958    0.0000 O   0  0  0  0  0  0  0  0  0  0  0  0
    3.1730    0.1958    0.0000 O   0  0  0  0  0  0  0  0  0  0  0  0
    0.6171    2.1478    0.0000 H   0  0  0  0  0  0  0  0  0  0  0  0
    0.3151    1.0208    0.0000 H   0  0  0  0  0  0  0  0  0  0  0  0
    1.4421    0.7188    0.0000 H   0  0  0  0  0  0  0  0  0  0  0  0
    2.0883    0.6961    0.0000 H   0  0  0  0  0  0  0  0  0  0  0  0
    2.8288    0.6961    0.0000 H   0  0  0  0  0  0  0  0  0  0  0  0
    3.5432    2.5831    0.0000 H   0  0  0  0  0  0  0  0  0  0  0  0
    2.8027    2.5831    0.0000 H   0  0  0  0  0  0  0  0  0  0  0  0
    3.8875    2.2583    0.0000 H   0  0  0  0  0  0  0  0  0  0  0  0
    5.0144    2.5603    0.0000 H   0  0  0  0  0  0  0  0  0  0  0  0
    6.4434    1.1313    0.0000 H   0  0  0  0  0  0  0  0  0  0  0  0
    6.7453    2.2583    0.0000 H   0  0  0  0  0  0  0  0  0  0  0  0
    5.6184    2.5603    0.0000 H   0  0  0  0  0  0  0  0  0  0  0  0
    4.6019   -0.6292    0.0000 H   0  0  0  0  0  0  0  0  0  0  0  0
  1  2  1  0  0  0  0
  2  3  1  0  0  0  0
  3  4  1  0  0  0  0
  4  5  1  0  0  0  0
  5  6  1  0  0  0  0
  6  7  1  0  0  0  0
  7  8  1  0  0  0  0
  7  9  2  0  0  0  0
  5 10  1  0  0  0  0
 10 11  1  0  0  0  0
 10 12  2  0  0  0  0
  1 13  1  0  0  0  0
  1 14  1  0  0  0  0
  1 15  1  0  0  0  0
  3 16  1  0  0  0  0
  3 17  1  0  0  0  0
  4 18  1  0  0  0  0
  4 19  1  0  0  0  0
  5 20  1  0  0  0  0
  6 21  1  0  0  0  0
  8 22  1  0  0  0  0
  8 23  1  0  0  0  0
  8 24  1  0  0  0  0
 11 25  1  0  0  0  0
M  END
>  <InChIKey>
InChI=1S/C7H13NO3S/c1-5(9)8-6(7(10)11)3-4-12-2/h6H,3-4H2,1-2H3,(H,8,9)(H,10,11)

>  <UN GHS>
1

>  <CASRN>
1115-47-5

> <Outcome>
1

>  <Index>
3331

>  <StandardizerResult>
Clear Stereo (ID: ClearStereo)
Wedge Clean (ID: WedgeClean)
Mesomerize (ID: Mesomerize)
Tautomerize (ID: Tautomerize)
Add Explicit Hydrogens (ID: AddExplicitH)
Neutralize (ID: Neutralize)
Clean 2D (ID: Clean2D)

> <knn Distance>


> <CpId>
3331

$$$$
3332
  Mrv1532301301811342D          

 16 16  0  0  0  0            999 V2000
    0.1842    1.8695    0.0000 Br  0  0  0  0  0  0  0  0  0  0  0  0
    0.7145    1.2375    0.0000 C   0  0  0  0  0  0  0  0  0  0  0  0
    1.4289    0.8250    0.0000 C   0  0  0  0  0  0  0  0  0  0  0  0
    1.4289   -0.0000    0.0000 O   0  0  0  0  0  0  0  0  0  0  0  0
    0.7145   -0.4125    0.0000 C   0  0  0  0  0  0  0  0  0  0  0  0
    0.0000   -0.0000    0.0000 O   0  0  0  0  0  0  0  0  0  0  0  0
    0.0000    0.8250    0.0000 C   0  0  0  0  0  0  0  0  0  0  0  0
    1.2448    1.8695    0.0000 N   0  0  0  0  0  0  0  0  0  0  0  0
    0.9626    2.6447    0.0000 O   0  0  0  0  0  0  0  0  0  0  0  0
    2.0572    1.7262    0.0000 O   0  0  0  0  0  0  0  0  0  0  0  0
    2.2525    0.8730    0.0000 H   0  0  0  0  0  0  0  0  0  0  0  0
    1.8823    1.5143    0.0000 H   0  0  0  0  0  0  0  0  0  0  0  0
    0.3442   -1.1497    0.0000 H   0  0  0  0  0  0  0  0  0  0  0  0
    1.0847   -1.1497    0.0000 H   0  0  0  0  0  0  0  0  0  0  0  0
   -0.4533    1.5143    0.0000 H   0  0  0  0  0  0  0  0  0  0  0  0
   -0.8236    0.8730    0.0000 H   0  0  0  0  0  0  0  0  0  0  0  0
  1  2  1  0  0  0  0
  2  3  1  0  0  0  0
  3  4  1  0  0  0  0
  4  5  1  0  0  0  0
  5  6  1  0  0  0  0
  6  7  1  0  0  0  0
  2  7  1  0  0  0  0
  2  8  1  0  0  0  0
  8  9  2  0  0  0  0
  8 10  2  0  0  0  0
  3 11  1  0  0  0  0
  3 12  1  0  0  0  0
  5 13  1  0  0  0  0
  5 14  1  0  0  0  0
  7 15  1  0  0  0  0
  7 16  1  0  0  0  0
M  END
>  <InChIKey>
InChI=1S/C4H6BrNO4/c5-4(6(7)8)1-9-3-10-2-4/h1-3H2

>  <CASRN>
30007-47-7

> <Outcome>
1

>  <Index>
3332

>  <StandardizerResult>
Clear Stereo (ID: ClearStereo)
Wedge Clean (ID: WedgeClean)
Mesomerize (ID: Mesomerize)
Tautomerize (ID: Tautomerize)
Add Explicit Hydrogens (ID: AddExplicitH)
Neutralize (ID: Neutralize)
Clean 2D (ID: Clean2D)

> <knn Distance>


> <CpId>
3332

$$$$
3333
  Mrv1532301301811342D          

 12 11  0  0  0  0            999 V2000
    2.4743   -1.4302    0.0000 Cl  0  0  0  0  0  0  0  0  0  0  0  0
    2.0618   -0.7157    0.0000 C   0  0  0  0  0  0  0  0  0  0  0  0
    1.2368   -0.7157    0.0000 C   0  0  0  0  0  0  0  0  0  0  0  0
    0.8243   -1.4302    0.0000 Cl  0  0  0  0  0  0  0  0  0  0  0  0
    0.8243   -0.0013    0.0000 C   0  0  0  0  0  0  0  0  0  0  0  0
   -0.0007   -0.0013    0.0000 C   0  0  0  0  0  0  0  0  0  0  0  0
    2.7510   -0.2624    0.0000 H   0  0  0  0  0  0  0  0  0  0  0  0
    2.1097    0.1079    0.0000 H   0  0  0  0  0  0  0  0  0  0  0  0
    1.6493   -1.4302    0.0000 H   0  0  0  0  0  0  0  0  0  0  0  0
    1.2368    0.7132    0.0000 H   0  0  0  0  0  0  0  0  0  0  0  0
   -0.4132    0.7132    0.0000 H   0  0  0  0  0  0  0  0  0  0  0  0
   -0.4132   -0.7157    0.0000 H   0  0  0  0  0  0  0  0  0  0  0  0
  1  2  1  0  0  0  0
  2  3  1  0  0  0  0
  3  4  1  0  0  0  0
  3  5  1  0  0  0  0
  5  6  2  0  0  0  0
  2  7  1  0  0  0  0
  2  8  1  0  0  0  0
  3  9  1  0  0  0  0
  5 10  1  0  0  0  0
  6 11  1  0  0  0  0
  6 12  1  0  0  0  0
M  END
>  <InChIKey>
InChI=1S/C4H6Cl2/c1-2-4(6)3-5/h2,4H,1,3H2

>  <CASRN>
760-23-6

> <Outcome>
1

>  <Index>
3333

>  <StandardizerResult>
Clear Stereo (ID: ClearStereo)
Wedge Clean (ID: WedgeClean)
Mesomerize (ID: Mesomerize)
Tautomerize (ID: Tautomerize)
Add Explicit Hydrogens (ID: AddExplicitH)
Neutralize (ID: Neutralize)
Clean 2D (ID: Clean2D)

> <knn Distance>


> <CpId>
3333

$$$$
3342
  Mrv1532301301811342D          

 10  9  0  0  0  0            999 V2000
    2.0634   -0.7130    0.0000 O   0  0  0  0  0  0  0  0  0  0  0  0
    1.2384   -0.7130    0.0000 C   0  0  0  0  0  0  0  0  0  0  0  0
    0.8259    0.0015    0.0000 C   0  0  0  0  0  0  0  0  0  0  0  0
    0.0009    0.0015    0.0000 C   0  0  0  0  0  0  0  0  0  0  0  0
    2.4759   -1.4274    0.0000 H   0  0  0  0  0  0  0  0  0  0  0  0
    0.5491   -1.1663    0.0000 H   0  0  0  0  0  0  0  0  0  0  0  0
    1.1904   -1.5366    0.0000 H   0  0  0  0  0  0  0  0  0  0  0  0
    1.2384    0.7160    0.0000 H   0  0  0  0  0  0  0  0  0  0  0  0
   -0.4116    0.7160    0.0000 H   0  0  0  0  0  0  0  0  0  0  0  0
   -0.4116   -0.7130    0.0000 H   0  0  0  0  0  0  0  0  0  0  0  0
  1  2  1  0  0  0  0
  2  3  1  0  0  0  0
  3  4  2  0  0  0  0
  1  5  1  0  0  0  0
  2  6  1  0  0  0  0
  2  7  1  0  0  0  0
  3  8  1  0  0  0  0
  4  9  1  0  0  0  0
  4 10  1  0  0  0  0
M  END
>  <InChIKey>
InChI=1S/C3H6O/c1-2-3-4/h2,4H,1,3H2

>  <UN GHS>
2A

>  <CASRN>
107-18-6

> <Outcome>
1

>  <Index>
3342

>  <StandardizerResult>
Clear Stereo (ID: ClearStereo)
Wedge Clean (ID: WedgeClean)
Mesomerize (ID: Mesomerize)
Tautomerize (ID: Tautomerize)
Add Explicit Hydrogens (ID: AddExplicitH)
Neutralize (ID: Neutralize)
Clean 2D (ID: Clean2D)

> <knn Distance>


> <CpId>
3342

$$$$
3345
  Mrv1532301301811342D          

 27 29  0  0  0  0            999 V2000
    0.9201   -1.3883    0.0000 Br  0  0  0  0  0  0  0  0  0  0  0  0
    0.9201   -0.5633    0.0000 C   0  0  0  0  0  0  0  0  0  0  0  0
    0.2056   -0.1508    0.0000 C   0  0  0  0  0  0  0  0  0  0  0  0
   -0.5089   -0.5633    0.0000 N   0  0  0  0  0  0  0  0  0  0  0  0
   -0.5089   -1.3883    0.0000 C   0  0  0  0  0  0  0  0  0  0  0  0
    0.1586   -1.8732    0.0000 N   0  0  0  0  0  0  0  0  0  0  0  0
   -0.0964   -2.6578    0.0000 C   0  0  0  0  0  0  0  0  0  0  0  0
   -0.9214   -2.6578    0.0000 C   0  0  0  0  0  0  0  0  0  0  0  0
   -1.1763   -1.8732    0.0000 N   0  0  0  0  0  0  0  0  0  0  0  0
    0.2056    0.6742    0.0000 C   0  0  0  0  0  0  0  0  0  0  0  0
    0.9201    1.0867    0.0000 C   0  0  0  0  0  0  0  0  0  0  0  0
    1.6345    0.6742    0.0000 C   0  0  0  0  0  0  0  0  0  0  0  0
    2.3490    1.0867    0.0000 N   0  0  0  0  0  0  0  0  0  0  0  0
    3.0635    0.6742    0.0000 C   0  0  0  0  0  0  0  0  0  0  0  0
    3.0635   -0.1508    0.0000 C   0  0  0  0  0  0  0  0  0  0  0  0
    2.3490   -0.5633    0.0000 N   0  0  0  0  0  0  0  0  0  0  0  0
    1.6345   -0.1508    0.0000 C   0  0  0  0  0  0  0  0  0  0  0  0
   -1.2234   -0.1508    0.0000 H   0  0  0  0  0  0  0  0  0  0  0  0
    0.0184   -3.4748    0.0000 H   0  0  0  0  0  0  0  0  0  0  0  0
    0.6451   -3.0195    0.0000 H   0  0  0  0  0  0  0  0  0  0  0  0
   -1.6629   -3.0195    0.0000 H   0  0  0  0  0  0  0  0  0  0  0  0
   -1.0362   -3.4748    0.0000 H   0  0  0  0  0  0  0  0  0  0  0  0
   -1.9609   -1.6183    0.0000 H   0  0  0  0  0  0  0  0  0  0  0  0
   -0.5089    1.0867    0.0000 H   0  0  0  0  0  0  0  0  0  0  0  0
    0.9201    1.9117    0.0000 H   0  0  0  0  0  0  0  0  0  0  0  0
    3.7779    1.0867    0.0000 H   0  0  0  0  0  0  0  0  0  0  0  0
    3.7779   -0.5633    0.0000 H   0  0  0  0  0  0  0  0  0  0  0  0
  1  2  1  0  0  0  0
  2  3  4  0  0  0  0
  3  4  1  0  0  0  0
  4  5  1  0  0  0  0
  5  6  2  0  0  0  0
  6  7  1  0  0  0  0
  7  8  1  0  0  0  0
  8  9  1  0  0  0  0
  5  9  1  0  0  0  0
  3 10  4  0  0  0  0
 10 11  4  0  0  0  0
 11 12  4  0  0  0  0
 12 13  4  0  0  0  0
 13 14  4  0  0  0  0
 14 15  4  0  0  0  0
 15 16  4  0  0  0  0
 16 17  4  0  0  0  0
  2 17  4  0  0  0  0
 12 17  4  0  0  0  0
  4 18  1  0  0  0  0
  7 19  1  0  0  0  0
  7 20  1  0  0  0  0
  8 21  1  0  0  0  0
  8 22  1  0  0  0  0
  9 23  1  0  0  0  0
 10 24  1  0  0  0  0
 11 25  1  0  0  0  0
 14 26  1  0  0  0  0
 15 27  1  0  0  0  0
M  END
>  <InChIKey>
InChI=1S/C11H10BrN5/c12-9-7(17-11-15-5-6-16-11)1-2-8-10(9)14-4-3-13-8/h1-4H,5-6H2,(H2,15,16,17)

>  <CASRN>
59803-98-4

> <Outcome>
1

>  <Index>
3345

>  <StandardizerResult>
Dearomatize (ID: Dearomatize)
Clear Stereo (ID: ClearStereo)
Wedge Clean (ID: WedgeClean)
Mesomerize (ID: Mesomerize)
Tautomerize (ID: Tautomerize)
Aromatize (ID: Aromatize)
Add Explicit Hydrogens (ID: AddExplicitH)
Neutralize (ID: Neutralize)
Clean 2D (ID: Clean2D)

> <knn Distance>


> <CpId>
3345

$$$$
3346
  Mrv1532301301811342D          

 19 19  0  0  0  0            999 V2000
   -0.0000    2.4750    0.0000 C   0  0  0  0  0  0  0  0  0  0  0  0
    0.7145    2.0625    0.0000 C   0  0  0  0  0  0  0  0  0  0  0  0
    1.4289    2.4750    0.0000 C   0  0  0  0  0  0  0  0  0  0  0  0
    0.7145    1.2375    0.0000 C   0  0  0  0  0  0  0  0  0  0  0  0
    1.4289    0.8250    0.0000 C   0  0  0  0  0  0  0  0  0  0  0  0
    1.4289    0.0000    0.0000 C   0  0  0  0  0  0  0  0  0  0  0  0
    0.7145   -0.4125    0.0000 C   0  0  0  0  0  0  0  0  0  0  0  0
   -0.0000    0.0000    0.0000 C   0  0  0  0  0  0  0  0  0  0  0  0
   -0.0000    0.8250    0.0000 C   0  0  0  0  0  0  0  0  0  0  0  0
    0.4125    3.1895    0.0000 H   0  0  0  0  0  0  0  0  0  0  0  0
   -0.7145    2.8875    0.0000 H   0  0  0  0  0  0  0  0  0  0  0  0
   -0.4125    1.7605    0.0000 H   0  0  0  0  0  0  0  0  0  0  0  0
    2.1434    2.0625    0.0000 H   0  0  0  0  0  0  0  0  0  0  0  0
    1.4289    3.3000    0.0000 H   0  0  0  0  0  0  0  0  0  0  0  0
    2.1434    1.2375    0.0000 H   0  0  0  0  0  0  0  0  0  0  0  0
    2.1434   -0.4125    0.0000 H   0  0  0  0  0  0  0  0  0  0  0  0
    0.7145   -1.2375    0.0000 H   0  0  0  0  0  0  0  0  0  0  0  0
   -0.7145   -0.4125    0.0000 H   0  0  0  0  0  0  0  0  0  0  0  0
   -0.7145    1.2375    0.0000 H   0  0  0  0  0  0  0  0  0  0  0  0
  1  2  1  0  0  0  0
  2  3  2  0  0  0  0
  2  4  1  0  0  0  0
  4  5  4  0  0  0  0
  5  6  4  0  0  0  0
  6  7  4  0  0  0  0
  7  8  4  0  0  0  0
  8  9  4  0  0  0  0
  4  9  4  0  0  0  0
  1 10  1  0  0  0  0
  1 11  1  0  0  0  0
  1 12  1  0  0  0  0
  3 13  1  0  0  0  0
  3 14  1  0  0  0  0
  5 15  1  0  0  0  0
  6 16  1  0  0  0  0
  7 17  1  0  0  0  0
  8 18  1  0  0  0  0
  9 19  1  0  0  0  0
M  END
>  <InChIKey>
InChI=1S/C9H10/c1-8(2)9-6-4-3-5-7-9/h3-7H,1H2,2H3

>  <CASRN>
98-83-9

> <Outcome>
1

>  <Index>
3346

>  <StandardizerResult>
Dearomatize (ID: Dearomatize)
Clear Stereo (ID: ClearStereo)
Wedge Clean (ID: WedgeClean)
Mesomerize (ID: Mesomerize)
Tautomerize (ID: Tautomerize)
Aromatize (ID: Aromatize)
Add Explicit Hydrogens (ID: AddExplicitH)
Neutralize (ID: Neutralize)
Clean 2D (ID: Clean2D)

> <knn Distance>


> <CpId>
3346

$$$$
3350
  Mrv1532301301811342D          

 34 36  0  0  0  0            999 V2000
    3.6076   -3.7200    0.0000 C   0  0  0  0  0  0  0  0  0  0  0  0
    2.8932   -4.1325    0.0000 C   0  0  0  0  0  0  0  0  0  0  0  0
    2.8932   -4.9575    0.0000 C   0  0  0  0  0  0  0  0  0  0  0  0
    2.1787   -5.3700    0.0000 C   0  0  0  0  0  0  0  0  0  0  0  0
    1.4642   -4.9575    0.0000 C   0  0  0  0  0  0  0  0  0  0  0  0
    1.4642   -4.1325    0.0000 C   0  0  0  0  0  0  0  0  0  0  0  0
    2.1787   -3.7200    0.0000 C   0  0  0  0  0  0  0  0  0  0  0  0
    2.1787   -2.8950    0.0000 N   0  0  0  0  0  0  0  0  0  0  0  0
    1.4642   -2.4825    0.0000 N   0  0  0  0  0  0  0  0  0  0  0  0
    1.4642   -1.6575    0.0000 C   0  0  0  0  0  0  0  0  0  0  0  0
    0.7498   -1.2450    0.0000 C   0  0  0  0  0  0  0  0  0  0  0  0
    0.0353   -1.6575    0.0000 O   0  0  0  0  0  0  0  0  0  0  0  0
    0.7498   -0.4200    0.0000 C   0  0  0  0  0  0  0  0  0  0  0  0
    1.4642   -0.0075    0.0000 C   0  0  0  0  0  0  0  0  0  0  0  0
    2.1787   -0.4200    0.0000 C   0  0  0  0  0  0  0  0  0  0  0  0
    2.8932   -0.0075    0.0000 C   0  0  0  0  0  0  0  0  0  0  0  0
    3.6076   -0.4200    0.0000 C   0  0  0  0  0  0  0  0  0  0  0  0
    3.6076   -1.2450    0.0000 C   0  0  0  0  0  0  0  0  0  0  0  0
    2.8932   -1.6575    0.0000 C   0  0  0  0  0  0  0  0  0  0  0  0
    2.1787   -1.2450    0.0000 C   0  0  0  0  0  0  0  0  0  0  0  0
    4.0201   -4.4345    0.0000 H   0  0  0  0  0  0  0  0  0  0  0  0
    4.3221   -3.3075    0.0000 H   0  0  0  0  0  0  0  0  0  0  0  0
    3.1951   -3.0055    0.0000 H   0  0  0  0  0  0  0  0  0  0  0  0
    3.6076   -5.3700    0.0000 H   0  0  0  0  0  0  0  0  0  0  0  0
    2.1787   -6.1950    0.0000 H   0  0  0  0  0  0  0  0  0  0  0  0
    0.7498   -5.3700    0.0000 H   0  0  0  0  0  0  0  0  0  0  0  0
    0.7498   -3.7200    0.0000 H   0  0  0  0  0  0  0  0  0  0  0  0
    2.8932   -2.4825    0.0000 H   0  0  0  0  0  0  0  0  0  0  0  0
    0.0353   -0.0075    0.0000 H   0  0  0  0  0  0  0  0  0  0  0  0
    1.4642    0.8175    0.0000 H   0  0  0  0  0  0  0  0  0  0  0  0
    2.8932    0.8175    0.0000 H   0  0  0  0  0  0  0  0  0  0  0  0
    4.3221   -0.0075    0.0000 H   0  0  0  0  0  0  0  0  0  0  0  0
    4.3221   -1.6575    0.0000 H   0  0  0  0  0  0  0  0  0  0  0  0
    2.1787   -2.0700    0.0000 H   0  0  0  0  0  0  0  0  0  0  0  0
  1  2  1  0  0  0  0
  2  3  4  0  0  0  0
  3  4  4  0  0  0  0
  4  5  4  0  0  0  0
  5  6  4  0  0  0  0
  6  7  4  0  0  0  0
  2  7  4  0  0  0  0
  7  8  1  0  0  0  0
  9  8  1  4  0  0  0
  9 10  2  0  0  0  0
 10 11  1  0  0  0  0
 11 12  2  0  0  0  0
 11 13  1  0  0  0  0
 13 14  2  0  0  0  0
 14 15  1  0  0  0  0
 15 16  4  0  0  0  0
 16 17  4  0  0  0  0
 17 18  4  0  0  0  0
 18 19  4  0  0  0  0
 19 20  4  0  0  0  0
 10 20  1  0  0  0  0
 15 20  4  0  0  0  0
  1 21  1  0  0  0  0
  1 22  1  0  0  0  0
  1 23  1  0  0  0  0
  3 24  1  0  0  0  0
  4 25  1  0  0  0  0
  5 26  1  0  0  0  0
  6 27  1  0  0  0  0
  8 28  1  0  0  0  0
 13 29  1  0  0  0  0
 14 30  1  0  0  0  0
 16 31  1  0  0  0  0
 17 32  1  0  0  0  0
 18 33  1  0  0  0  0
 19 34  1  0  0  0  0
M  END
>  <InChIKey>
InChI=1S/C17H14N2O/c1-12-6-2-5-9-15(12)18-19-17-14-8-4-3-7-13(14)10-11-16(17)20/h2-11,18H,1H3

>  <CASRN>
2646-17-5

> <Outcome>
1

>  <Index>
3350

>  <StandardizerResult>
Dearomatize (ID: Dearomatize)
Clear Stereo (ID: ClearStereo)
Wedge Clean (ID: WedgeClean)
Mesomerize (ID: Mesomerize)
Tautomerize (ID: Tautomerize)
Aromatize (ID: Aromatize)
Add Explicit Hydrogens (ID: AddExplicitH)
Neutralize (ID: Neutralize)
Clean 2D (ID: Clean2D)

> <knn Distance>


> <CpId>
3350

$$$$
3353
  Mrv1532301301811342D          

 14 13  0  0  0  0            999 V2000
    0.8250    1.4289    0.0000 C   0  0  0  0  0  0  0  0  0  0  0  0
    1.2375    0.7145    0.0000 N   0  0  0  0  0  0  0  0  0  0  0  0
    2.0625    0.7145    0.0000 C   0  0  0  0  0  0  0  0  0  0  0  0
    0.8250   -0.0000    0.0000 C   0  0  0  0  0  0  0  0  0  0  0  0
    1.2375   -0.7145    0.0000 N   0  0  0  0  0  0  0  0  0  0  0  0
   -0.0000   -0.0000    0.0000 O   0  0  0  0  0  0  0  0  0  0  0  0
    1.5395    1.8414    0.0000 H   0  0  0  0  0  0  0  0  0  0  0  0
    0.4125    2.1434    0.0000 H   0  0  0  0  0  0  0  0  0  0  0  0
    0.1105    1.0164    0.0000 H   0  0  0  0  0  0  0  0  0  0  0  0
    2.0625   -0.1105    0.0000 H   0  0  0  0  0  0  0  0  0  0  0  0
    2.8875    0.7145    0.0000 H   0  0  0  0  0  0  0  0  0  0  0  0
    2.0625    1.5395    0.0000 H   0  0  0  0  0  0  0  0  0  0  0  0
    0.8250   -1.4290    0.0000 H   0  0  0  0  0  0  0  0  0  0  0  0
    2.0625   -0.7145    0.0000 H   0  0  0  0  0  0  0  0  0  0  0  0
  1  2  1  0  0  0  0
  2  3  1  0  0  0  0
  2  4  1  0  0  0  0
  4  5  1  0  0  0  0
  4  6  2  0  0  0  0
  1  7  1  0  0  0  0
  1  8  1  0  0  0  0
  1  9  1  0  0  0  0
  3 10  1  0  0  0  0
  3 11  1  0  0  0  0
  3 12  1  0  0  0  0
  5 13  1  0  0  0  0
  5 14  1  0  0  0  0
M  END
>  <InChIKey>
InChI=1S/C3H8N2O/c1-5(2)3(4)6/h1-2H3,(H2,4,6)

>  <CASRN>
598-94-7

> <Outcome>
1

>  <Index>
3353

>  <StandardizerResult>
Clear Stereo (ID: ClearStereo)
Wedge Clean (ID: WedgeClean)
Mesomerize (ID: Mesomerize)
Tautomerize (ID: Tautomerize)
Add Explicit Hydrogens (ID: AddExplicitH)
Neutralize (ID: Neutralize)
Clean 2D (ID: Clean2D)

> <knn Distance>


> <CpId>
3353

$$$$
3357
  Mrv1532301301811342D          

 16 15  0  0  0  0            999 V2000
    0.8580   -0.8250    0.0000 C   0  0  0  0  0  0  0  0  0  0  0  0
    0.8580    0.0000    0.0000 C   0  0  0  0  0  0  0  0  0  0  0  0
    0.8580    0.8250    0.0000 C   0  0  0  0  0  0  0  0  0  0  0  0
    1.6830   -0.0000    0.0000 C   0  0  0  0  0  0  0  0  0  0  0  0
    0.0330    0.0000    0.0000 N   0  0  0  0  0  0  0  0  0  0  0  0
    0.0330   -0.8250    0.0000 H   0  0  0  0  0  0  0  0  0  0  0  0
    0.8580   -1.6500    0.0000 H   0  0  0  0  0  0  0  0  0  0  0  0
    1.6830   -0.8250    0.0000 H   0  0  0  0  0  0  0  0  0  0  0  0
    1.6830    0.8250    0.0000 H   0  0  0  0  0  0  0  0  0  0  0  0
    0.8580    1.6500    0.0000 H   0  0  0  0  0  0  0  0  0  0  0  0
    0.0330    0.8250    0.0000 H   0  0  0  0  0  0  0  0  0  0  0  0
    2.2664   -0.5834    0.0000 H   0  0  0  0  0  0  0  0  0  0  0  0
    2.5080   -0.0000    0.0000 H   0  0  0  0  0  0  0  0  0  0  0  0
    2.2664    0.5834    0.0000 H   0  0  0  0  0  0  0  0  0  0  0  0
   -0.7422    0.2822    0.0000 H   0  0  0  0  0  0  0  0  0  0  0  0
   -0.7422   -0.2822    0.0000 H   0  0  0  0  0  0  0  0  0  0  0  0
  1  2  1  0  0  0  0
  2  3  1  0  0  0  0
  2  4  1  0  0  0  0
  2  5  1  0  0  0  0
  1  6  1  0  0  0  0
  1  7  1  0  0  0  0
  1  8  1  0  0  0  0
  3  9  1  0  0  0  0
  3 10  1  0  0  0  0
  3 11  1  0  0  0  0
  4 12  1  0  0  0  0
  4 13  1  0  0  0  0
  4 14  1  0  0  0  0
  5 15  1  0  0  0  0
  5 16  1  0  0  0  0
M  END
>  <InChIKey>
InChI=1S/C4H11N/c1-4(2,3)5/h5H2,1-3H3

>  <CASRN>
75-64-9

> <Outcome>
1

>  <Index>
3357

>  <StandardizerResult>
Clear Stereo (ID: ClearStereo)
Wedge Clean (ID: WedgeClean)
Mesomerize (ID: Mesomerize)
Tautomerize (ID: Tautomerize)
Add Explicit Hydrogens (ID: AddExplicitH)
Neutralize (ID: Neutralize)
Clean 2D (ID: Clean2D)

> <knn Distance>


> <CpId>
3357

$$$$
3359
  Mrv1532301301811342D          

 22 21  0  0  0  0            999 V2000
    2.2836    2.1434    0.0000 O   0  0  0  0  0  0  0  0  0  0  0  0
    2.9980    2.5559    0.0000 C   0  0  0  0  0  0  0  0  0  0  0  0
    2.9980    3.3809    0.0000 O   0  0  0  0  0  0  0  0  0  0  0  0
    3.7125    2.1434    0.0000 C   0  0  0  0  0  0  0  0  0  0  0  0
    4.4270    2.5559    0.0000 C   0  0  0  0  0  0  0  0  0  0  0  0
    5.1415    2.1434    0.0000 S   0  0  0  0  0  0  0  0  0  0  0  0
    5.8559    2.5559    0.0000 S   0  0  0  0  0  0  0  0  0  0  0  0
    6.5704    2.1434    0.0000 C   0  0  0  0  0  0  0  0  0  0  0  0
    7.2849    2.5559    0.0000 C   0  0  0  0  0  0  0  0  0  0  0  0
    7.9993    2.1434    0.0000 C   0  0  0  0  0  0  0  0  0  0  0  0
    8.7138    2.5559    0.0000 O   0  0  0  0  0  0  0  0  0  0  0  0
    7.9993    1.3184    0.0000 O   0  0  0  0  0  0  0  0  0  0  0  0
    1.5691    2.5559    0.0000 H   0  0  0  0  0  0  0  0  0  0  0  0
    3.3423    1.4062    0.0000 H   0  0  0  0  0  0  0  0  0  0  0  0
    4.0828    1.4062    0.0000 H   0  0  0  0  0  0  0  0  0  0  0  0
    4.7972    3.2931    0.0000 H   0  0  0  0  0  0  0  0  0  0  0  0
    4.0567    3.2931    0.0000 H   0  0  0  0  0  0  0  0  0  0  0  0
    6.2001    1.4062    0.0000 H   0  0  0  0  0  0  0  0  0  0  0  0
    6.9407    1.4062    0.0000 H   0  0  0  0  0  0  0  0  0  0  0  0
    7.6551    3.2931    0.0000 H   0  0  0  0  0  0  0  0  0  0  0  0
    6.9146    3.2931    0.0000 H   0  0  0  0  0  0  0  0  0  0  0  0
    9.4283    2.1434    0.0000 H   0  0  0  0  0  0  0  0  0  0  0  0
  1  2  1  0  0  0  0
  2  3  2  0  0  0  0
  2  4  1  0  0  0  0
  4  5  1  0  0  0  0
  5  6  1  0  0  0  0
  6  7  1  0  0  0  0
  7  8  1  0  0  0  0
  8  9  1  0  0  0  0
  9 10  1  0  0  0  0
 10 11  1  0  0  0  0
 10 12  2  0  0  0  0
  1 13  1  0  0  0  0
  4 14  1  0  0  0  0
  4 15  1  0  0  0  0
  5 16  1  0  0  0  0
  5 17  1  0  0  0  0
  8 18  1  0  0  0  0
  8 19  1  0  0  0  0
  9 20  1  0  0  0  0
  9 21  1  0  0  0  0
 11 22  1  0  0  0  0
M  END
>  <InChIKey>
InChI=1S/C6H10O4S2/c7-5(8)1-3-11-12-4-2-6(9)10/h1-4H2,(H,7,8)(H,9,10)

>  <UN GHS>
2A

>  <CASRN>
1119-62-6

> <Outcome>
1

>  <Index>
3359

>  <StandardizerResult>
Clear Stereo (ID: ClearStereo)
Wedge Clean (ID: WedgeClean)
Mesomerize (ID: Mesomerize)
Tautomerize (ID: Tautomerize)
Add Explicit Hydrogens (ID: AddExplicitH)
Neutralize (ID: Neutralize)
Clean 2D (ID: Clean2D)

> <knn Distance>


> <CpId>
3359

$$$$
3360
  Mrv1532301301811342D          

 22 24  0  0  0  0            999 V2000
    0.7145   -1.2375    0.0000 Cl  0  0  0  0  0  0  0  0  0  0  0  0
    1.4289   -1.6500    0.0000 C   0  0  0  0  0  0  0  0  0  0  0  0
    2.1434   -1.2375    0.0000 C   0  0  0  0  0  0  0  0  0  0  0  0
    2.8579   -1.6500    0.0000 C   0  0  0  0  0  0  0  0  0  0  0  0
    3.5724   -1.2375    0.0000 O   0  0  0  0  0  0  0  0  0  0  0  0
    4.2868   -1.6500    0.0000 C   0  0  0  0  0  0  0  0  0  0  0  0
    5.0013   -1.2375    0.0000 C   0  0  0  0  0  0  0  0  0  0  0  0
    5.0013   -0.4125    0.0000 Cl  0  0  0  0  0  0  0  0  0  0  0  0
    5.7158   -1.6500    0.0000 C   0  0  0  0  0  0  0  0  0  0  0  0
    6.4302   -1.2375    0.0000 Cl  0  0  0  0  0  0  0  0  0  0  0  0
    5.7158   -2.4750    0.0000 C   0  0  0  0  0  0  0  0  0  0  0  0
    6.4302   -2.8875    0.0000 Cl  0  0  0  0  0  0  0  0  0  0  0  0
    5.0013   -2.8875    0.0000 C   0  0  0  0  0  0  0  0  0  0  0  0
    4.2868   -2.4750    0.0000 C   0  0  0  0  0  0  0  0  0  0  0  0
    3.5724   -2.8875    0.0000 O   0  0  0  0  0  0  0  0  0  0  0  0
    2.8579   -2.4750    0.0000 C   0  0  0  0  0  0  0  0  0  0  0  0
    2.1434   -2.8875    0.0000 C   0  0  0  0  0  0  0  0  0  0  0  0
    2.1434   -3.7125    0.0000 Cl  0  0  0  0  0  0  0  0  0  0  0  0
    1.4289   -2.4750    0.0000 C   0  0  0  0  0  0  0  0  0  0  0  0
    0.7145   -2.8875    0.0000 Cl  0  0  0  0  0  0  0  0  0  0  0  0
    2.1434   -0.4125    0.0000 H   0  0  0  0  0  0  0  0  0  0  0  0
    5.0013   -3.7125    0.0000 H   0  0  0  0  0  0  0  0  0  0  0  0
  1  2  1  0  0  0  0
  2  3  4  0  0  0  0
  3  4  4  0  0  0  0
  4  5  1  0  0  0  0
  5  6  1  0  0  0  0
  6  7  4  0  0  0  0
  7  8  1  0  0  0  0
  7  9  4  0  0  0  0
  9 10  1  0  0  0  0
  9 11  4  0  0  0  0
 11 12  1  0  0  0  0
 11 13  4  0  0  0  0
 13 14  4  0  0  0  0
  6 14  4  0  0  0  0
 14 15  1  0  0  0  0
 15 16  1  0  0  0  0
  4 16  4  0  0  0  0
 16 17  4  0  0  0  0
 17 18  1  0  0  0  0
 17 19  4  0  0  0  0
  2 19  4  0  0  0  0
 19 20  1  0  0  0  0
  3 21  1  0  0  0  0
 13 22  1  0  0  0  0
M  END
>  <InChIKey>
InChI=1S/C12H2Cl6O2/c13-3-1-5-11(9(17)7(3)15)20-6-2-4(14)8(16)10(18)12(6)19-5/h1-2H

>  <CASRN>
57653-85-7

> <Outcome>
1

>  <Index>
3360

>  <StandardizerResult>
Dearomatize (ID: Dearomatize)
Clear Stereo (ID: ClearStereo)
Wedge Clean (ID: WedgeClean)
Mesomerize (ID: Mesomerize)
Tautomerize (ID: Tautomerize)
Aromatize (ID: Aromatize)
Add Explicit Hydrogens (ID: AddExplicitH)
Neutralize (ID: Neutralize)
Clean 2D (ID: Clean2D)

> <knn Distance>


> <CpId>
3360

$$$$
3361
  Mrv1532301301811342D          

 20 20  0  0  0  0            999 V2000
   -0.0000    2.4750    0.0000 O   0  0  0  0  0  0  0  0  0  0  0  0
    0.7145    2.0625    0.0000 C   0  0  0  0  0  0  0  0  0  0  0  0
    1.4289    2.4750    0.0000 O   0  0  0  0  0  0  0  0  0  0  0  0
    0.7145    1.2375    0.0000 C   0  0  0  0  0  0  0  0  0  0  0  0
    1.4289    0.8250    0.0000 C   0  0  0  0  0  0  0  0  0  0  0  0
    1.4289   -0.0000    0.0000 C   0  0  0  0  0  0  0  0  0  0  0  0
    0.7145   -0.4125    0.0000 C   0  0  0  0  0  0  0  0  0  0  0  0
   -0.0000   -0.0000    0.0000 C   0  0  0  0  0  0  0  0  0  0  0  0
   -0.0000    0.8250    0.0000 C   0  0  0  0  0  0  0  0  0  0  0  0
   -0.7145    1.2375    0.0000 O   0  0  0  0  0  0  0  0  0  0  0  0
    2.1434   -0.4125    0.0000 S   0  0  0  0  0  0  0  0  0  0  0  0
    2.8579   -0.8250    0.0000 O   0  0  0  0  0  0  0  0  0  0  0  0
    1.7309   -1.1270    0.0000 O   0  0  0  0  0  0  0  0  0  0  0  0
    2.5559    0.3020    0.0000 O   0  0  0  0  0  0  0  0  0  0  0  0
   -0.0000    3.3000    0.0000 H   0  0  0  0  0  0  0  0  0  0  0  0
    2.1434    1.2375    0.0000 H   0  0  0  0  0  0  0  0  0  0  0  0
    0.7145   -1.2375    0.0000 H   0  0  0  0  0  0  0  0  0  0  0  0
   -0.7145   -0.4125    0.0000 H   0  0  0  0  0  0  0  0  0  0  0  0
   -0.7145    2.0625    0.0000 H   0  0  0  0  0  0  0  0  0  0  0  0
    2.8579   -1.6500    0.0000 H   0  0  0  0  0  0  0  0  0  0  0  0
  1  2  1  0  0  0  0
  2  3  2  0  0  0  0
  2  4  1  0  0  0  0
  4  5  4  0  0  0  0
  5  6  4  0  0  0  0
  6  7  4  0  0  0  0
  7  8  4  0  0  0  0
  8  9  4  0  0  0  0
  4  9  4  0  0  0  0
  9 10  1  0  0  0  0
  6 11  1  0  0  0  0
 11 12  1  0  0  0  0
 11 13  2  0  0  0  0
 11 14  2  0  0  0  0
  1 15  1  0  0  0  0
  5 16  1  0  0  0  0
  7 17  1  0  0  0  0
  8 18  1  0  0  0  0
 10 19  1  0  0  0  0
 12 20  1  0  0  0  0
M  END
>  <InChIKey>
InChI=1S/C7H6O6S/c8-6-2-1-4(14(11,12)13)3-5(6)7(9)10/h1-3,8H,(H,9,10)(H,11,12,13)

>  <CASRN>
97-05-2

> <Outcome>
1

>  <Index>
3361

>  <StandardizerResult>
Dearomatize (ID: Dearomatize)
Clear Stereo (ID: ClearStereo)
Wedge Clean (ID: WedgeClean)
Mesomerize (ID: Mesomerize)
Tautomerize (ID: Tautomerize)
Aromatize (ID: Aromatize)
Add Explicit Hydrogens (ID: AddExplicitH)
Neutralize (ID: Neutralize)
Clean 2D (ID: Clean2D)

> <knn Distance>


> <CpId>
3361

$$$$
3362
  Mrv1532301301811342D          

 26 28  0  0  0  0            999 V2000
    0.7145   -2.8875    0.0000 N   0  0  0  0  0  0  0  0  0  0  0  0
    1.4290   -2.4750    0.0000 C   0  0  0  0  0  0  0  0  0  0  0  0
    1.4290   -1.6500    0.0000 C   0  0  0  0  0  0  0  0  0  0  0  0
    2.1434   -1.2375    0.0000 C   0  0  0  0  0  0  0  0  0  0  0  0
    2.8579   -1.6500    0.0000 C   0  0  0  0  0  0  0  0  0  0  0  0
    3.5724   -1.2375    0.0000 C   0  0  0  0  0  0  0  0  0  0  0  0
    4.2868   -1.6500    0.0000 C   0  0  0  0  0  0  0  0  0  0  0  0
    5.0013   -1.2375    0.0000 C   0  0  0  0  0  0  0  0  0  0  0  0
    5.7158   -1.6500    0.0000 C   0  0  0  0  0  0  0  0  0  0  0  0
    5.7158   -2.4750    0.0000 C   0  0  0  0  0  0  0  0  0  0  0  0
    5.0013   -2.8875    0.0000 C   0  0  0  0  0  0  0  0  0  0  0  0
    4.2868   -2.4750    0.0000 C   0  0  0  0  0  0  0  0  0  0  0  0
    3.5724   -2.8875    0.0000 C   0  0  0  0  0  0  0  0  0  0  0  0
    2.8579   -2.4750    0.0000 C   0  0  0  0  0  0  0  0  0  0  0  0
    2.1434   -2.8875    0.0000 C   0  0  0  0  0  0  0  0  0  0  0  0
    0.0000   -2.4750    0.0000 H   0  0  0  0  0  0  0  0  0  0  0  0
    0.7145   -3.7125    0.0000 H   0  0  0  0  0  0  0  0  0  0  0  0
    0.7145   -1.2375    0.0000 H   0  0  0  0  0  0  0  0  0  0  0  0
    2.1434   -0.4125    0.0000 H   0  0  0  0  0  0  0  0  0  0  0  0
    3.5724   -0.4125    0.0000 H   0  0  0  0  0  0  0  0  0  0  0  0
    5.0013   -0.4125    0.0000 H   0  0  0  0  0  0  0  0  0  0  0  0
    6.4302   -1.2375    0.0000 H   0  0  0  0  0  0  0  0  0  0  0  0
    6.4302   -2.8875    0.0000 H   0  0  0  0  0  0  0  0  0  0  0  0
    5.0013   -3.7125    0.0000 H   0  0  0  0  0  0  0  0  0  0  0  0
    3.5724   -3.7125    0.0000 H   0  0  0  0  0  0  0  0  0  0  0  0
    2.1434   -3.7125    0.0000 H   0  0  0  0  0  0  0  0  0  0  0  0
  1  2  1  0  0  0  0
  2  3  4  0  0  0  0
  3  4  4  0  0  0  0
  4  5  4  0  0  0  0
  5  6  4  0  0  0  0
  6  7  4  0  0  0  0
  7  8  4  0  0  0  0
  8  9  4  0  0  0  0
  9 10  4  0  0  0  0
 10 11  4  0  0  0  0
 11 12  4  0  0  0  0
  7 12  4  0  0  0  0
 12 13  4  0  0  0  0
 13 14  4  0  0  0  0
  5 14  4  0  0  0  0
 14 15  4  0  0  0  0
  2 15  4  0  0  0  0
  1 16  1  0  0  0  0
  1 17  1  0  0  0  0
  3 18  1  0  0  0  0
  4 19  1  0  0  0  0
  6 20  1  0  0  0  0
  8 21  1  0  0  0  0
  9 22  1  0  0  0  0
 10 23  1  0  0  0  0
 11 24  1  0  0  0  0
 13 25  1  0  0  0  0
 15 26  1  0  0  0  0
M  END
>  <InChIKey>
InChI=1S/C14H11N/c15-14-6-5-12-7-10-3-1-2-4-11(10)8-13(12)9-14/h1-9H,15H2

>  <CASRN>
613-13-8

> <Outcome>
1

>  <Index>
3362

>  <StandardizerResult>
Dearomatize (ID: Dearomatize)
Clear Stereo (ID: ClearStereo)
Wedge Clean (ID: WedgeClean)
Mesomerize (ID: Mesomerize)
Tautomerize (ID: Tautomerize)
Aromatize (ID: Aromatize)
Add Explicit Hydrogens (ID: AddExplicitH)
Neutralize (ID: Neutralize)
Clean 2D (ID: Clean2D)

> <knn Distance>


> <CpId>
3362

$$$$
3363
  Mrv1532301301811342D          

 27 26  0  0  0  0            999 V2000
    2.2836    2.1434    0.0000 O   0  0  0  0  0  0  0  0  0  0  0  0
    2.9980    2.5559    0.0000 C   0  0  0  0  0  0  0  0  0  0  0  0
    3.7125    2.1434    0.0000 C   0  0  0  0  0  0  0  0  0  0  0  0
    4.4270    2.5559    0.0000 C   0  0  0  0  0  0  0  0  0  0  0  0
    5.1414    2.1434    0.0000 C   0  0  0  0  0  0  0  0  0  0  0  0
    5.8559    2.5559    0.0000 C   0  0  0  0  0  0  0  0  0  0  0  0
    6.5704    2.1434    0.0000 C   0  0  0  0  0  0  0  0  0  0  0  0
    7.2849    2.5559    0.0000 C   0  0  0  0  0  0  0  0  0  0  0  0
    7.9993    2.1434    0.0000 C   0  0  0  0  0  0  0  0  0  0  0  0
    8.7138    2.5559    0.0000 Cl  0  0  0  0  0  0  0  0  0  0  0  0
    1.5691    2.5559    0.0000 H   0  0  0  0  0  0  0  0  0  0  0  0
    3.3683    3.2931    0.0000 H   0  0  0  0  0  0  0  0  0  0  0  0
    2.6278    3.2931    0.0000 H   0  0  0  0  0  0  0  0  0  0  0  0
    3.3422    1.4062    0.0000 H   0  0  0  0  0  0  0  0  0  0  0  0
    4.0828    1.4062    0.0000 H   0  0  0  0  0  0  0  0  0  0  0  0
    4.7972    3.2931    0.0000 H   0  0  0  0  0  0  0  0  0  0  0  0
    4.0567    3.2931    0.0000 H   0  0  0  0  0  0  0  0  0  0  0  0
    4.7712    1.4062    0.0000 H   0  0  0  0  0  0  0  0  0  0  0  0
    5.5117    1.4062    0.0000 H   0  0  0  0  0  0  0  0  0  0  0  0
    6.2262    3.2931    0.0000 H   0  0  0  0  0  0  0  0  0  0  0  0
    5.4857    3.2931    0.0000 H   0  0  0  0  0  0  0  0  0  0  0  0
    6.2001    1.4062    0.0000 H   0  0  0  0  0  0  0  0  0  0  0  0
    6.9406    1.4062    0.0000 H   0  0  0  0  0  0  0  0  0  0  0  0
    7.6551    3.2931    0.0000 H   0  0  0  0  0  0  0  0  0  0  0  0
    6.9146    3.2931    0.0000 H   0  0  0  0  0  0  0  0  0  0  0  0
    7.6291    1.4062    0.0000 H   0  0  0  0  0  0  0  0  0  0  0  0
    8.3696    1.4062    0.0000 H   0  0  0  0  0  0  0  0  0  0  0  0
  1  2  1  0  0  0  0
  2  3  1  0  0  0  0
  3  4  1  0  0  0  0
  4  5  1  0  0  0  0
  5  6  1  0  0  0  0
  6  7  1  0  0  0  0
  7  8  1  0  0  0  0
  8  9  1  0  0  0  0
  9 10  1  0  0  0  0
  1 11  1  0  0  0  0
  2 12  1  0  0  0  0
  2 13  1  0  0  0  0
  3 14  1  0  0  0  0
  3 15  1  0  0  0  0
  4 16  1  0  0  0  0
  4 17  1  0  0  0  0
  5 18  1  0  0  0  0
  5 19  1  0  0  0  0
  6 20  1  0  0  0  0
  6 21  1  0  0  0  0
  7 22  1  0  0  0  0
  7 23  1  0  0  0  0
  8 24  1  0  0  0  0
  8 25  1  0  0  0  0
  9 26  1  0  0  0  0
  9 27  1  0  0  0  0
M  END
>  <InChIKey>
InChI=1S/C8H17ClO/c9-7-5-3-1-2-4-6-8-10/h10H,1-8H2

>  <UN GHS>
1

>  <CASRN>
23144-52-7

> <Outcome>
1

>  <Index>
3363

>  <StandardizerResult>
Clear Stereo (ID: ClearStereo)
Wedge Clean (ID: WedgeClean)
Mesomerize (ID: Mesomerize)
Tautomerize (ID: Tautomerize)
Add Explicit Hydrogens (ID: AddExplicitH)
Neutralize (ID: Neutralize)
Clean 2D (ID: Clean2D)

> <knn Distance>


> <CpId>
3363

$$$$
3368
  Mrv1532301301811342D          

 19 18  0  0  0  0            999 V2000
    1.7605    1.8414    0.0000 O   0  0  0  0  0  0  0  0  0  0  0  0
    2.4750    1.4289    0.0000 C   0  0  0  0  0  0  0  0  0  0  0  0
    3.1895    1.8414    0.0000 C   0  0  0  0  0  0  0  0  0  0  0  0
    3.9039    1.4289    0.0000 N   0  0  0  0  0  0  0  0  0  0  0  0
    4.6184    1.8414    0.0000 C   0  0  0  0  0  0  0  0  0  0  0  0
    5.3329    1.4289    0.0000 C   0  0  0  0  0  0  0  0  0  0  0  0
    6.0474    1.8414    0.0000 O   0  0  0  0  0  0  0  0  0  0  0  0
    3.9039    0.6039    0.0000 N   0  0  0  0  0  0  0  0  0  0  0  0
    4.6184    0.1914    0.0000 O   0  0  0  0  0  0  0  0  0  0  0  0
    1.7605    2.6664    0.0000 H   0  0  0  0  0  0  0  0  0  0  0  0
    2.1047    0.6917    0.0000 H   0  0  0  0  0  0  0  0  0  0  0  0
    2.8453    0.6917    0.0000 H   0  0  0  0  0  0  0  0  0  0  0  0
    3.5597    2.5786    0.0000 H   0  0  0  0  0  0  0  0  0  0  0  0
    2.8192    2.5786    0.0000 H   0  0  0  0  0  0  0  0  0  0  0  0
    4.9887    2.5786    0.0000 H   0  0  0  0  0  0  0  0  0  0  0  0
    4.2482    2.5786    0.0000 H   0  0  0  0  0  0  0  0  0  0  0  0
    4.9626    0.6917    0.0000 H   0  0  0  0  0  0  0  0  0  0  0  0
    5.7031    0.6917    0.0000 H   0  0  0  0  0  0  0  0  0  0  0  0
    6.7618    1.4289    0.0000 H   0  0  0  0  0  0  0  0  0  0  0  0
  1  2  1  0  0  0  0
  2  3  1  0  0  0  0
  3  4  1  0  0  0  0
  4  5  1  0  0  0  0
  5  6  1  0  0  0  0
  6  7  1  0  0  0  0
  4  8  1  0  0  0  0
  8  9  2  0  0  0  0
  1 10  1  0  0  0  0
  2 11  1  0  0  0  0
  2 12  1  0  0  0  0
  3 13  1  0  0  0  0
  3 14  1  0  0  0  0
  5 15  1  0  0  0  0
  5 16  1  0  0  0  0
  6 17  1  0  0  0  0
  6 18  1  0  0  0  0
  7 19  1  0  0  0  0
M  END
>  <InChIKey>
InChI=1S/C4H10N2O3/c7-3-1-6(5-9)2-4-8/h7-8H,1-4H2

>  <CASRN>
1116-54-7

> <Outcome>
1

>  <Index>
3368

>  <StandardizerResult>
Clear Stereo (ID: ClearStereo)
Wedge Clean (ID: WedgeClean)
Mesomerize (ID: Mesomerize)
Tautomerize (ID: Tautomerize)
Add Explicit Hydrogens (ID: AddExplicitH)
Neutralize (ID: Neutralize)
Clean 2D (ID: Clean2D)

> <knn Distance>


> <CpId>
3368

$$$$
3371
  Mrv1532301301811342D          

  4  3  0  0  0  0            999 V2000
    1.2375    0.7145    0.0000 Cl  0  0  0  0  0  0  0  0  0  0  0  0
    0.8250   -0.0000    0.0000 C   0  0  0  0  0  0  0  0  0  0  0  0
    1.2375   -0.7145    0.0000 Cl  0  0  0  0  0  0  0  0  0  0  0  0
    0.0000   -0.0000    0.0000 O   0  0  0  0  0  0  0  0  0  0  0  0
  1  2  1  0  0  0  0
  2  3  1  0  0  0  0
  2  4  2  0  0  0  0
M  END
>  <InChIKey>
InChI=1S/CCl2O/c2-1(3)4

>  <CASRN>
75-44-5

> <Outcome>
1

>  <Index>
3371

>  <StandardizerResult>
Clear Stereo (ID: ClearStereo)
Wedge Clean (ID: WedgeClean)
Mesomerize (ID: Mesomerize)
Tautomerize (ID: Tautomerize)
Clean 2D (ID: Clean2D)

> <knn Distance>


> <CpId>
3371

$$$$
3373
  Mrv1532301301811342D          

 16 17  0  0  0  0            999 V2000
   -0.1712   -0.6979    0.0000 S   0  0  0  0  0  0  0  0  0  0  0  0
    0.6538   -0.6979    0.0000 C   0  0  0  0  0  0  0  0  0  0  0  0
    1.1387   -0.0305    0.0000 N   0  0  0  0  0  0  0  0  0  0  0  0
    1.9233   -0.2854    0.0000 C   0  0  0  0  0  0  0  0  0  0  0  0
    2.6378    0.1271    0.0000 C   0  0  0  0  0  0  0  0  0  0  0  0
    3.3523   -0.2854    0.0000 C   0  0  0  0  0  0  0  0  0  0  0  0
    3.3523   -1.1104    0.0000 C   0  0  0  0  0  0  0  0  0  0  0  0
    2.6378   -1.5229    0.0000 C   0  0  0  0  0  0  0  0  0  0  0  0
    1.9233   -1.1104    0.0000 C   0  0  0  0  0  0  0  0  0  0  0  0
    1.1387   -1.3654    0.0000 N   0  0  0  0  0  0  0  0  0  0  0  0
    0.8838    0.7541    0.0000 H   0  0  0  0  0  0  0  0  0  0  0  0
    2.6378    0.9521    0.0000 H   0  0  0  0  0  0  0  0  0  0  0  0
    4.0667    0.1271    0.0000 H   0  0  0  0  0  0  0  0  0  0  0  0
    4.0667   -1.5229    0.0000 H   0  0  0  0  0  0  0  0  0  0  0  0
    2.6378   -2.3479    0.0000 H   0  0  0  0  0  0  0  0  0  0  0  0
    0.8838   -2.1500    0.0000 H   0  0  0  0  0  0  0  0  0  0  0  0
  1  2  2  0  0  0  0
  2  3  1  0  0  0  0
  3  4  1  0  0  0  0
  4  5  4  0  0  0  0
  5  6  4  0  0  0  0
  6  7  4  0  0  0  0
  7  8  4  0  0  0  0
  8  9  4  0  0  0  0
  4  9  4  0  0  0  0
  9 10  1  0  0  0  0
  2 10  1  0  0  0  0
  3 11  1  0  0  0  0
  5 12  1  0  0  0  0
  6 13  1  0  0  0  0
  7 14  1  0  0  0  0
  8 15  1  0  0  0  0
 10 16  1  0  0  0  0
M  END
>  <InChIKey>
InChI=1S/C7H6N2S/c10-7-8-5-3-1-2-4-6(5)9-7/h1-4H,(H2,8,9,10)

>  <CASRN>
583-39-1

> <Outcome>
1

>  <Index>
3373

>  <StandardizerResult>
Dearomatize (ID: Dearomatize)
Clear Stereo (ID: ClearStereo)
Wedge Clean (ID: WedgeClean)
Mesomerize (ID: Mesomerize)
Tautomerize (ID: Tautomerize)
Aromatize (ID: Aromatize)
Add Explicit Hydrogens (ID: AddExplicitH)
Neutralize (ID: Neutralize)
Clean 2D (ID: Clean2D)

> <knn Distance>


> <CpId>
3373

$$$$
3374
  Mrv1532301301811342D          

 15 14  0  0  0  0            999 V2000
    2.1269   -0.7767    0.0000 C   0  0  0  0  0  0  0  0  0  0  0  0
    1.3019   -0.7767    0.0000 C   0  0  0  0  0  0  0  0  0  0  0  0
    0.8894   -1.4912    0.0000 C   0  0  0  0  0  0  0  0  0  0  0  0
    0.8894   -0.0622    0.0000 C   0  0  0  0  0  0  0  0  0  0  0  0
    0.0644   -0.0622    0.0000 C   0  0  0  0  0  0  0  0  0  0  0  0
    2.1269   -1.6017    0.0000 H   0  0  0  0  0  0  0  0  0  0  0  0
    2.9519   -0.7767    0.0000 H   0  0  0  0  0  0  0  0  0  0  0  0
    2.1269    0.0483    0.0000 H   0  0  0  0  0  0  0  0  0  0  0  0
    1.7144   -1.4912    0.0000 H   0  0  0  0  0  0  0  0  0  0  0  0
    0.3061   -0.9078    0.0000 H   0  0  0  0  0  0  0  0  0  0  0  0
    0.1750   -1.9037    0.0000 H   0  0  0  0  0  0  0  0  0  0  0  0
    1.1030   -2.2880    0.0000 H   0  0  0  0  0  0  0  0  0  0  0  0
    1.3019    0.6523    0.0000 H   0  0  0  0  0  0  0  0  0  0  0  0
   -0.2339    0.7069    0.0000 H   0  0  0  0  0  0  0  0  0  0  0  0
   -0.7571    0.0133    0.0000 H   0  0  0  0  0  0  0  0  0  0  0  0
  1  2  1  0  0  0  0
  2  3  1  0  0  0  0
  2  4  1  0  0  0  0
  4  5  2  0  0  0  0
  1  6  1  0  0  0  0
  1  7  1  0  0  0  0
  1  8  1  0  0  0  0
  2  9  1  0  0  0  0
  3 10  1  0  0  0  0
  3 11  1  0  0  0  0
  3 12  1  0  0  0  0
  4 13  1  0  0  0  0
  5 14  1  0  0  0  0
  5 15  1  0  0  0  0
M  END
>  <InChIKey>
InChI=1S/C5H10/c1-4-5(2)3/h4-5H,1H2,2-3H3

>  <CASRN>
563-45-1

> <Outcome>
1

>  <Index>
3374

>  <StandardizerResult>
Clear Stereo (ID: ClearStereo)
Wedge Clean (ID: WedgeClean)
Mesomerize (ID: Mesomerize)
Tautomerize (ID: Tautomerize)
Add Explicit Hydrogens (ID: AddExplicitH)
Neutralize (ID: Neutralize)
Clean 2D (ID: Clean2D)

> <knn Distance>


> <CpId>
3374

$$$$
3378
  Mrv1532301301811342D          

 74 73  0  0  0  0            999 V2000
   12.1836    7.8592    0.0000 C   0  0  0  0  0  0  0  0  0  0  0  0
   12.8980    8.2717    0.0000 C   0  0  0  0  0  0  0  0  0  0  0  0
   13.6125    7.8592    0.0000 C   0  0  0  0  0  0  0  0  0  0  0  0
   14.3270    8.2717    0.0000 C   0  0  0  0  0  0  0  0  0  0  0  0
   15.0414    7.8592    0.0000 C   0  0  0  0  0  0  0  0  0  0  0  0
   15.7559    8.2717    0.0000 C   0  0  0  0  0  0  0  0  0  0  0  0
   16.4704    7.8592    0.0000 C   0  0  0  0  0  0  0  0  0  0  0  0
   17.1849    8.2717    0.0000 C   0  0  0  0  0  0  0  0  0  0  0  0
   17.8993    7.8592    0.0000 C   0  0  0  0  0  0  0  0  0  0  0  0
   18.6138    8.2717    0.0000 C   0  0  0  0  0  0  0  0  0  0  0  0
   19.3283    7.8592    0.0000 C   0  0  0  0  0  0  0  0  0  0  0  0
   20.0427    8.2717    0.0000 C   0  0  0  0  0  0  0  0  0  0  0  0
   20.0427    9.0967    0.0000 O   0  0  0  0  0  0  0  0  0  0  0  0
   20.7572    7.8592    0.0000 O   0  0  0  0  0  0  0  0  0  0  0  0
   21.4717    8.2717    0.0000 O   0  0  0  0  0  0  0  0  0  0  0  0
   22.1862    7.8592    0.0000 C   0  0  0  0  0  0  0  0  0  0  0  0
   22.1862    7.0342    0.0000 O   0  0  0  0  0  0  0  0  0  0  0  0
   22.9006    8.2717    0.0000 C   0  0  0  0  0  0  0  0  0  0  0  0
   23.6151    7.8592    0.0000 C   0  0  0  0  0  0  0  0  0  0  0  0
   24.3296    8.2717    0.0000 C   0  0  0  0  0  0  0  0  0  0  0  0
   25.0440    7.8592    0.0000 C   0  0  0  0  0  0  0  0  0  0  0  0
   25.7585    8.2717    0.0000 C   0  0  0  0  0  0  0  0  0  0  0  0
   26.4730    7.8592    0.0000 C   0  0  0  0  0  0  0  0  0  0  0  0
   27.1874    8.2717    0.0000 C   0  0  0  0  0  0  0  0  0  0  0  0
   27.9019    7.8592    0.0000 C   0  0  0  0  0  0  0  0  0  0  0  0
   28.6164    8.2717    0.0000 C   0  0  0  0  0  0  0  0  0  0  0  0
   29.3309    7.8592    0.0000 C   0  0  0  0  0  0  0  0  0  0  0  0
   30.0453    8.2717    0.0000 C   0  0  0  0  0  0  0  0  0  0  0  0
   11.7711    8.5737    0.0000 H   0  0  0  0  0  0  0  0  0  0  0  0
   11.4691    7.4467    0.0000 H   0  0  0  0  0  0  0  0  0  0  0  0
   12.5961    7.1447    0.0000 H   0  0  0  0  0  0  0  0  0  0  0  0
   13.2683    9.0089    0.0000 H   0  0  0  0  0  0  0  0  0  0  0  0
   12.5278    9.0089    0.0000 H   0  0  0  0  0  0  0  0  0  0  0  0
   13.2422    7.1220    0.0000 H   0  0  0  0  0  0  0  0  0  0  0  0
   13.9828    7.1220    0.0000 H   0  0  0  0  0  0  0  0  0  0  0  0
   14.6972    9.0089    0.0000 H   0  0  0  0  0  0  0  0  0  0  0  0
   13.9567    9.0089    0.0000 H   0  0  0  0  0  0  0  0  0  0  0  0
   14.6712    7.1220    0.0000 H   0  0  0  0  0  0  0  0  0  0  0  0
   15.4117    7.1220    0.0000 H   0  0  0  0  0  0  0  0  0  0  0  0
   16.1262    9.0089    0.0000 H   0  0  0  0  0  0  0  0  0  0  0  0
   15.3857    9.0089    0.0000 H   0  0  0  0  0  0  0  0  0  0  0  0
   16.1001    7.1220    0.0000 H   0  0  0  0  0  0  0  0  0  0  0  0
   16.8406    7.1220    0.0000 H   0  0  0  0  0  0  0  0  0  0  0  0
   17.5551    9.0089    0.0000 H   0  0  0  0  0  0  0  0  0  0  0  0
   16.8146    9.0089    0.0000 H   0  0  0  0  0  0  0  0  0  0  0  0
   17.5291    7.1220    0.0000 H   0  0  0  0  0  0  0  0  0  0  0  0
   18.2696    7.1220    0.0000 H   0  0  0  0  0  0  0  0  0  0  0  0
   18.9841    9.0089    0.0000 H   0  0  0  0  0  0  0  0  0  0  0  0
   18.2435    9.0089    0.0000 H   0  0  0  0  0  0  0  0  0  0  0  0
   18.9580    7.1220    0.0000 H   0  0  0  0  0  0  0  0  0  0  0  0
   19.6985    7.1220    0.0000 H   0  0  0  0  0  0  0  0  0  0  0  0
   23.2709    9.0089    0.0000 H   0  0  0  0  0  0  0  0  0  0  0  0
   22.5304    9.0089    0.0000 H   0  0  0  0  0  0  0  0  0  0  0  0
   23.2448    7.1220    0.0000 H   0  0  0  0  0  0  0  0  0  0  0  0
   23.9854    7.1220    0.0000 H   0  0  0  0  0  0  0  0  0  0  0  0
   24.6998    9.0089    0.0000 H   0  0  0  0  0  0  0  0  0  0  0  0
   23.9593    9.0089    0.0000 H   0  0  0  0  0  0  0  0  0  0  0  0
   24.6738    7.1220    0.0000 H   0  0  0  0  0  0  0  0  0  0  0  0
   25.4143    7.1220    0.0000 H   0  0  0  0  0  0  0  0  0  0  0  0
   26.1288    9.0089    0.0000 H   0  0  0  0  0  0  0  0  0  0  0  0
   25.3882    9.0089    0.0000 H   0  0  0  0  0  0  0  0  0  0  0  0
   26.1027    7.1220    0.0000 H   0  0  0  0  0  0  0  0  0  0  0  0
   26.8432    7.1220    0.0000 H   0  0  0  0  0  0  0  0  0  0  0  0
   27.5577    9.0089    0.0000 H   0  0  0  0  0  0  0  0  0  0  0  0
   26.8172    9.0089    0.0000 H   0  0  0  0  0  0  0  0  0  0  0  0
   27.5317    7.1220    0.0000 H   0  0  0  0  0  0  0  0  0  0  0  0
   28.2722    7.1220    0.0000 H   0  0  0  0  0  0  0  0  0  0  0  0
   28.9867    9.0089    0.0000 H   0  0  0  0  0  0  0  0  0  0  0  0
   28.2461    9.0089    0.0000 H   0  0  0  0  0  0  0  0  0  0  0  0
   28.9606    7.1220    0.0000 H   0  0  0  0  0  0  0  0  0  0  0  0
   29.7011    7.1220    0.0000 H   0  0  0  0  0  0  0  0  0  0  0  0
   30.4578    7.5572    0.0000 H   0  0  0  0  0  0  0  0  0  0  0  0
   30.7598    8.6842    0.0000 H   0  0  0  0  0  0  0  0  0  0  0  0
   29.6328    8.9862    0.0000 H   0  0  0  0  0  0  0  0  0  0  0  0
  1  2  1  0  0  0  0
  2  3  1  0  0  0  0
  3  4  1  0  0  0  0
  4  5  1  0  0  0  0
  5  6  1  0  0  0  0
  6  7  1  0  0  0  0
  7  8  1  0  0  0  0
  8  9  1  0  0  0  0
  9 10  1  0  0  0  0
 10 11  1  0  0  0  0
 11 12  1  0  0  0  0
 12 13  2  0  0  0  0
 12 14  1  0  0  0  0
 14 15  1  0  0  0  0
 15 16  1  0  0  0  0
 16 17  2  0  0  0  0
 16 18  1  0  0  0  0
 18 19  1  0  0  0  0
 19 20  1  0  0  0  0
 20 21  1  0  0  0  0
 21 22  1  0  0  0  0
 22 23  1  0  0  0  0
 23 24  1  0  0  0  0
 24 25  1  0  0  0  0
 25 26  1  0  0  0  0
 26 27  1  0  0  0  0
 27 28  1  0  0  0  0
  1 29  1  0  0  0  0
  1 30  1  0  0  0  0
  1 31  1  0  0  0  0
  2 32  1  0  0  0  0
  2 33  1  0  0  0  0
  3 34  1  0  0  0  0
  3 35  1  0  0  0  0
  4 36  1  0  0  0  0
  4 37  1  0  0  0  0
  5 38  1  0  0  0  0
  5 39  1  0  0  0  0
  6 40  1  0  0  0  0
  6 41  1  0  0  0  0
  7 42  1  0  0  0  0
  7 43  1  0  0  0  0
  8 44  1  0  0  0  0
  8 45  1  0  0  0  0
  9 46  1  0  0  0  0
  9 47  1  0  0  0  0
 10 48  1  0  0  0  0
 10 49  1  0  0  0  0
 11 50  1  0  0  0  0
 11 51  1  0  0  0  0
 18 52  1  0  0  0  0
 18 53  1  0  0  0  0
 19 54  1  0  0  0  0
 19 55  1  0  0  0  0
 20 56  1  0  0  0  0
 20 57  1  0  0  0  0
 21 58  1  0  0  0  0
 21 59  1  0  0  0  0
 22 60  1  0  0  0  0
 22 61  1  0  0  0  0
 23 62  1  0  0  0  0
 23 63  1  0  0  0  0
 24 64  1  0  0  0  0
 24 65  1  0  0  0  0
 25 66  1  0  0  0  0
 25 67  1  0  0  0  0
 26 68  1  0  0  0  0
 26 69  1  0  0  0  0
 27 70  1  0  0  0  0
 27 71  1  0  0  0  0
 28 72  1  0  0  0  0
 28 73  1  0  0  0  0
 28 74  1  0  0  0  0
M  END
>  <InChIKey>
InChI=1S/C24H46O4/c1-3-5-7-9-11-13-15-17-19-21-23(25)27-28-24(26)22-20-18-16-14-12-10-8-6-4-2/h3-22H2,1-2H3

>  <CASRN>
105-74-8

> <Outcome>
1

>  <Index>
3378

>  <StandardizerResult>
Clear Stereo (ID: ClearStereo)
Wedge Clean (ID: WedgeClean)
Mesomerize (ID: Mesomerize)
Tautomerize (ID: Tautomerize)
Add Explicit Hydrogens (ID: AddExplicitH)
Neutralize (ID: Neutralize)
Clean 2D (ID: Clean2D)

> <knn Distance>


> <CpId>
3378

$$$$
3379
  Mrv1532301301811342D          

 27 26  0  0  0  0            999 V2000
    0.7862   -1.4235    0.0000 C   0  0  0  0  0  0  0  0  0  0  0  0
    1.1987   -2.1380    0.0000 C   0  0  0  0  0  0  0  0  0  0  0  0
    2.0237   -2.1380    0.0000 C   0  0  0  0  0  0  0  0  0  0  0  0
    2.4362   -2.8524    0.0000 C   0  0  0  0  0  0  0  0  0  0  0  0
    3.2612   -2.8524    0.0000 C   0  0  0  0  0  0  0  0  0  0  0  0
    3.6737   -3.5669    0.0000 C   0  0  0  0  0  0  0  0  0  0  0  0
    4.4987   -3.5669    0.0000 C   0  0  0  0  0  0  0  0  0  0  0  0
    3.6737   -2.1380    0.0000 C   0  0  0  0  0  0  0  0  0  0  0  0
    4.4987   -2.1380    0.0000 O   0  0  0  0  0  0  0  0  0  0  0  0
    1.5006   -1.0110    0.0000 H   0  0  0  0  0  0  0  0  0  0  0  0
    0.3737   -0.7090    0.0000 H   0  0  0  0  0  0  0  0  0  0  0  0
    0.0717   -1.8360    0.0000 H   0  0  0  0  0  0  0  0  0  0  0  0
    0.5094   -2.5913    0.0000 H   0  0  0  0  0  0  0  0  0  0  0  0
    1.1507   -2.9616    0.0000 H   0  0  0  0  0  0  0  0  0  0  0  0
    2.7130   -1.6846    0.0000 H   0  0  0  0  0  0  0  0  0  0  0  0
    2.0716   -1.3144    0.0000 H   0  0  0  0  0  0  0  0  0  0  0  0
    1.7469   -3.3058    0.0000 H   0  0  0  0  0  0  0  0  0  0  0  0
    2.3882   -3.6760    0.0000 H   0  0  0  0  0  0  0  0  0  0  0  0
    2.8487   -3.5669    0.0000 H   0  0  0  0  0  0  0  0  0  0  0  0
    3.3915   -4.3421    0.0000 H   0  0  0  0  0  0  0  0  0  0  0  0
    3.9558   -4.3421    0.0000 H   0  0  0  0  0  0  0  0  0  0  0  0
    5.0426   -4.1872    0.0000 H   0  0  0  0  0  0  0  0  0  0  0  0
    5.2305   -3.1860    0.0000 H   0  0  0  0  0  0  0  0  0  0  0  0
    4.3026   -2.7655    0.0000 H   0  0  0  0  0  0  0  0  0  0  0  0
    3.6257   -1.3144    0.0000 H   0  0  0  0  0  0  0  0  0  0  0  0
    2.9844   -1.6846    0.0000 H   0  0  0  0  0  0  0  0  0  0  0  0
    5.1634   -1.6493    0.0000 H   0  0  0  0  0  0  0  0  0  0  0  0
  1  2  1  0  0  0  0
  2  3  1  0  0  0  0
  3  4  1  0  0  0  0
  4  5  1  0  0  0  0
  5  6  1  0  0  0  0
  6  7  1  0  0  0  0
  5  8  1  0  0  0  0
  8  9  1  0  0  0  0
  1 10  1  0  0  0  0
  1 11  1  0  0  0  0
  1 12  1  0  0  0  0
  2 13  1  0  0  0  0
  2 14  1  0  0  0  0
  3 15  1  0  0  0  0
  3 16  1  0  0  0  0
  4 17  1  0  0  0  0
  4 18  1  0  0  0  0
  5 19  1  0  0  0  0
  6 20  1  0  0  0  0
  6 21  1  0  0  0  0
  7 22  1  0  0  0  0
  7 23  1  0  0  0  0
  7 24  1  0  0  0  0
  8 25  1  0  0  0  0
  8 26  1  0  0  0  0
  9 27  1  0  0  0  0
M  END
>  <InChIKey>
InChI=1S/C8H18O/c1-3-5-6-8(4-2)7-9/h8-9H,3-7H2,1-2H3

>  <UN GHS>
1

>  <CASRN>
12645-31-7

> <Outcome>
1

>  <Index>
3379

>  <StandardizerResult>
Clear Stereo (ID: ClearStereo)
Wedge Clean (ID: WedgeClean)
Mesomerize (ID: Mesomerize)
Tautomerize (ID: Tautomerize)
Add Explicit Hydrogens (ID: AddExplicitH)
Neutralize (ID: Neutralize)
Clean 2D (ID: Clean2D)

> <knn Distance>


> <CpId>
3379

$$$$
3383
  Mrv1532301301811342D          

 44 44  0  0  0  0            999 V2000
    0.6801   -0.4319    0.0000 C   0  0  0  0  0  0  0  0  0  0  0  0
    0.6801   -1.2569    0.0000 C   0  0  0  0  0  0  0  0  0  0  0  0
   -0.0343   -1.6694    0.0000 C   0  0  0  0  0  0  0  0  0  0  0  0
   -0.7488   -1.2569    0.0000 O   0  0  0  0  0  0  0  0  0  0  0  0
   -1.4633   -1.6694    0.0000 C   0  0  0  0  0  0  0  0  0  0  0  0
   -1.4633   -2.4944    0.0000 C   0  0  0  0  0  0  0  0  0  0  0  0
   -2.1778   -2.9069    0.0000 C   0  0  0  0  0  0  0  0  0  0  0  0
   -2.8922   -2.4944    0.0000 C   0  0  0  0  0  0  0  0  0  0  0  0
   -2.8922   -1.6694    0.0000 C   0  0  0  0  0  0  0  0  0  0  0  0
   -2.1778   -1.2569    0.0000 C   0  0  0  0  0  0  0  0  0  0  0  0
   -3.6067   -2.9069    0.0000 C   0  0  0  0  0  0  0  0  0  0  0  0
   -4.3212   -3.3194    0.0000 C   0  0  0  0  0  0  0  0  0  0  0  0
   -3.1942   -3.6214    0.0000 C   0  0  0  0  0  0  0  0  0  0  0  0
   -4.0192   -2.1925    0.0000 C   0  0  0  0  0  0  0  0  0  0  0  0
    1.3946   -1.6694    0.0000 O   0  0  0  0  0  0  0  0  0  0  0  0
    2.1091   -1.2569    0.0000 S   0  0  0  0  0  0  0  0  0  0  0  0
    2.1091   -0.4319    0.0000 O   0  0  0  0  0  0  0  0  0  0  0  0
    2.8235   -1.6694    0.0000 O   0  0  0  0  0  0  0  0  0  0  0  0
    3.5380   -1.2569    0.0000 C   0  0  0  0  0  0  0  0  0  0  0  0
    4.2525   -1.6694    0.0000 C   0  0  0  0  0  0  0  0  0  0  0  0
    4.9670   -1.2569    0.0000 Cl  0  0  0  0  0  0  0  0  0  0  0  0
    1.5051   -0.4319    0.0000 H   0  0  0  0  0  0  0  0  0  0  0  0
    0.6801    0.3931    0.0000 H   0  0  0  0  0  0  0  0  0  0  0  0
   -0.1449   -0.4319    0.0000 H   0  0  0  0  0  0  0  0  0  0  0  0
   -0.0343   -0.8444    0.0000 H   0  0  0  0  0  0  0  0  0  0  0  0
   -0.4046   -2.4067    0.0000 H   0  0  0  0  0  0  0  0  0  0  0  0
    0.3359   -2.4067    0.0000 H   0  0  0  0  0  0  0  0  0  0  0  0
   -0.7488   -2.9069    0.0000 H   0  0  0  0  0  0  0  0  0  0  0  0
   -2.1778   -3.7319    0.0000 H   0  0  0  0  0  0  0  0  0  0  0  0
   -3.6067   -1.2569    0.0000 H   0  0  0  0  0  0  0  0  0  0  0  0
   -2.1778   -0.4319    0.0000 H   0  0  0  0  0  0  0  0  0  0  0  0
   -4.7337   -2.6050    0.0000 H   0  0  0  0  0  0  0  0  0  0  0  0
   -5.0356   -3.7319    0.0000 H   0  0  0  0  0  0  0  0  0  0  0  0
   -3.9087   -4.0339    0.0000 H   0  0  0  0  0  0  0  0  0  0  0  0
   -3.0865   -4.4393    0.0000 H   0  0  0  0  0  0  0  0  0  0  0  0
   -2.3973   -3.8349    0.0000 H   0  0  0  0  0  0  0  0  0  0  0  0
   -2.6920   -2.9669    0.0000 H   0  0  0  0  0  0  0  0  0  0  0  0
   -3.2013   -2.0848    0.0000 H   0  0  0  0  0  0  0  0  0  0  0  0
   -3.8057   -1.3956    0.0000 H   0  0  0  0  0  0  0  0  0  0  0  0
   -4.6737   -1.6902    0.0000 H   0  0  0  0  0  0  0  0  0  0  0  0
    3.9083   -0.5197    0.0000 H   0  0  0  0  0  0  0  0  0  0  0  0
    3.1678   -0.5197    0.0000 H   0  0  0  0  0  0  0  0  0  0  0  0
    3.8822   -2.4067    0.0000 H   0  0  0  0  0  0  0  0  0  0  0  0
    4.6227   -2.4067    0.0000 H   0  0  0  0  0  0  0  0  0  0  0  0
  1  2  1  0  0  0  0
  2  3  1  0  0  0  0
  3  4  1  0  0  0  0
  4  5  1  0  0  0  0
  5  6  4  0  0  0  0
  6  7  4  0  0  0  0
  7  8  4  0  0  0  0
  8  9  4  0  0  0  0
  9 10  4  0  0  0  0
  5 10  4  0  0  0  0
  8 11  1  0  0  0  0
 11 12  1  0  0  0  0
 11 13  1  0  0  0  0
 11 14  1  0  0  0  0
  2 15  1  0  0  0  0
 15 16  1  0  0  0  0
 16 17  2  0  0  0  0
 16 18  1  0  0  0  0
 18 19  1  0  0  0  0
 19 20  1  0  0  0  0
 20 21  1  0  0  0  0
  1 22  1  0  0  0  0
  1 23  1  0  0  0  0
  1 24  1  0  0  0  0
  2 25  1  0  0  0  0
  3 26  1  0  0  0  0
  3 27  1  0  0  0  0
  6 28  1  0  0  0  0
  7 29  1  0  0  0  0
  9 30  1  0  0  0  0
 10 31  1  0  0  0  0
 12 32  1  0  0  0  0
 12 33  1  0  0  0  0
 12 34  1  0  0  0  0
 13 35  1  0  0  0  0
 13 36  1  0  0  0  0
 13 37  1  0  0  0  0
 14 38  1  0  0  0  0
 14 39  1  0  0  0  0
 14 40  1  0  0  0  0
 19 41  1  0  0  0  0
 19 42  1  0  0  0  0
 20 43  1  0  0  0  0
 20 44  1  0  0  0  0
M  END
>  <InChIKey>
InChI=1S/C15H23ClO4S/c1-12(20-21(17)19-10-9-16)11-18-14-7-5-13(6-8-14)15(2,3)4/h5-8,12H,9-11H2,1-4H3

>  <CASRN>
140-57-8

> <Outcome>
1

>  <Index>
3383

>  <StandardizerResult>
Dearomatize (ID: Dearomatize)
Clear Stereo (ID: ClearStereo)
Wedge Clean (ID: WedgeClean)
Mesomerize (ID: Mesomerize)
Tautomerize (ID: Tautomerize)
Aromatize (ID: Aromatize)
Add Explicit Hydrogens (ID: AddExplicitH)
Neutralize (ID: Neutralize)
Clean 2D (ID: Clean2D)

> <knn Distance>


> <CpId>
3383

$$$$
3385
  Mrv1532301301811342D          

 49 49  0  0  0  0            999 V2000
   -2.8672    4.1129    0.0000 C   0  0  0  0  0  0  0  0  0  0  0  0
   -2.1527    3.7004    0.0000 O   0  0  0  0  0  0  0  0  0  0  0  0
   -2.1527    2.8754    0.0000 C   0  0  0  0  0  0  0  0  0  0  0  0
   -1.4382    2.4629    0.0000 C   0  0  0  0  0  0  0  0  0  0  0  0
   -1.4382    1.6379    0.0000 C   0  0  0  0  0  0  0  0  0  0  0  0
   -0.7238    1.2254    0.0000 C   0  0  0  0  0  0  0  0  0  0  0  0
   -0.0093    1.6379    0.0000 N   0  0  0  0  0  0  0  0  0  0  0  0
    0.7052    1.2254    0.0000 C   0  0  0  0  0  0  0  0  0  0  0  0
    0.7052    0.4004    0.0000 O   0  0  0  0  0  0  0  0  0  0  0  0
    1.4196    1.6379    0.0000 C   0  0  0  0  0  0  0  0  0  0  0  0
    2.1341    1.2254    0.0000 C   0  0  0  0  0  0  0  0  0  0  0  0
    2.8486    1.6379    0.0000 C   0  0  0  0  0  0  0  0  0  0  0  0
    3.5631    1.2254    0.0000 C   0  0  0  0  0  0  0  0  0  0  0  0
    4.2775    1.6379    0.0000 C   0  0  0  0  0  0  0  0  0  0  0  0
    4.9920    1.2254    0.0000 C   0  0  0  0  0  0  0  0  0  0  0  0
    5.7065    1.6379    0.0000 C   0  0  0  0  0  0  0  0  0  0  0  0
    6.4209    1.2254    0.0000 C   0  0  0  0  0  0  0  0  0  0  0  0
    5.7065    2.4629    0.0000 C   0  0  0  0  0  0  0  0  0  0  0  0
   -2.1527    1.2254    0.0000 C   0  0  0  0  0  0  0  0  0  0  0  0
   -2.8672    1.6379    0.0000 C   0  0  0  0  0  0  0  0  0  0  0  0
   -2.8672    2.4629    0.0000 C   0  0  0  0  0  0  0  0  0  0  0  0
   -3.5816    2.8754    0.0000 O   0  0  0  0  0  0  0  0  0  0  0  0
   -2.4547    4.8274    0.0000 H   0  0  0  0  0  0  0  0  0  0  0  0
   -3.5816    4.5254    0.0000 H   0  0  0  0  0  0  0  0  0  0  0  0
   -3.2797    3.3984    0.0000 H   0  0  0  0  0  0  0  0  0  0  0  0
   -0.7238    2.8754    0.0000 H   0  0  0  0  0  0  0  0  0  0  0  0
   -1.0940    0.4881    0.0000 H   0  0  0  0  0  0  0  0  0  0  0  0
   -0.3535    0.4881    0.0000 H   0  0  0  0  0  0  0  0  0  0  0  0
   -0.0093    2.4629    0.0000 H   0  0  0  0  0  0  0  0  0  0  0  0
    1.7899    2.3751    0.0000 H   0  0  0  0  0  0  0  0  0  0  0  0
    1.0494    2.3751    0.0000 H   0  0  0  0  0  0  0  0  0  0  0  0
    1.7639    0.4881    0.0000 H   0  0  0  0  0  0  0  0  0  0  0  0
    2.5044    0.4881    0.0000 H   0  0  0  0  0  0  0  0  0  0  0  0
    3.2189    2.3751    0.0000 H   0  0  0  0  0  0  0  0  0  0  0  0
    2.4783    2.3751    0.0000 H   0  0  0  0  0  0  0  0  0  0  0  0
    3.1928    0.4881    0.0000 H   0  0  0  0  0  0  0  0  0  0  0  0
    3.9333    0.4881    0.0000 H   0  0  0  0  0  0  0  0  0  0  0  0
    4.2775    2.4629    0.0000 H   0  0  0  0  0  0  0  0  0  0  0  0
    4.9920    0.4004    0.0000 H   0  0  0  0  0  0  0  0  0  0  0  0
    5.7065    0.8129    0.0000 H   0  0  0  0  0  0  0  0  0  0  0  0
    6.6345    0.4285    0.0000 H   0  0  0  0  0  0  0  0  0  0  0  0
    7.2459    1.2254    0.0000 H   0  0  0  0  0  0  0  0  0  0  0  0
    6.6345    2.0223    0.0000 H   0  0  0  0  0  0  0  0  0  0  0  0
    6.5315    2.4629    0.0000 H   0  0  0  0  0  0  0  0  0  0  0  0
    5.7065    3.2879    0.0000 H   0  0  0  0  0  0  0  0  0  0  0  0
    4.8815    2.4629    0.0000 H   0  0  0  0  0  0  0  0  0  0  0  0
   -2.1527    0.4004    0.0000 H   0  0  0  0  0  0  0  0  0  0  0  0
   -3.5816    1.2254    0.0000 H   0  0  0  0  0  0  0  0  0  0  0  0
   -4.3785    2.6619    0.0000 H   0  0  0  0  0  0  0  0  0  0  0  0
  1  2  1  0  0  0  0
  2  3  1  0  0  0  0
  3  4  4  0  0  0  0
  4  5  4  0  0  0  0
  5  6  1  0  0  0  0
  6  7  1  0  0  0  0
  7  8  1  0  0  0  0
  8  9  2  0  0  0  0
  8 10  1  0  0  0  0
 10 11  1  0  0  0  0
 11 12  1  0  0  0  0
 12 13  1  0  0  0  0
 14 13  1  4  0  0  0
 14 15  2  0  0  0  0
 15 16  1  0  0  0  0
 16 17  1  0  0  0  0
 16 18  1  0  0  0  0
  5 19  4  0  0  0  0
 19 20  4  0  0  0  0
 20 21  4  0  0  0  0
  3 21  4  0  0  0  0
 21 22  1  0  0  0  0
  1 23  1  0  0  0  0
  1 24  1  0  0  0  0
  1 25  1  0  0  0  0
  4 26  1  0  0  0  0
  6 27  1  0  0  0  0
  6 28  1  0  0  0  0
  7 29  1  0  0  0  0
 10 30  1  0  0  0  0
 10 31  1  0  0  0  0
 11 32  1  0  0  0  0
 11 33  1  0  0  0  0
 12 34  1  0  0  0  0
 12 35  1  0  0  0  0
 13 36  1  0  0  0  0
 13 37  1  0  0  0  0
 14 38  1  0  0  0  0
 15 39  1  0  0  0  0
 16 40  1  0  0  0  0
 17 41  1  0  0  0  0
 17 42  1  0  0  0  0
 17 43  1  0  0  0  0
 18 44  1  0  0  0  0
 18 45  1  0  0  0  0
 18 46  1  0  0  0  0
 19 47  1  0  0  0  0
 20 48  1  0  0  0  0
 22 49  1  0  0  0  0
M  END
>  <InChIKey>
InChI=1S/C18H27NO3/c1-14(2)8-6-4-5-7-9-18(21)19-13-15-10-11-16(20)17(12-15)22-3/h6,8,10-12,14,20H,4-5,7,9,13H2,1-3H3,(H,19,21)

>  <CASRN>
404-86-4

> <Outcome>
1

>  <Index>
3385

>  <StandardizerResult>
Dearomatize (ID: Dearomatize)
Clear Stereo (ID: ClearStereo)
Wedge Clean (ID: WedgeClean)
Mesomerize (ID: Mesomerize)
Tautomerize (ID: Tautomerize)
Aromatize (ID: Aromatize)
Add Explicit Hydrogens (ID: AddExplicitH)
Neutralize (ID: Neutralize)
Clean 2D (ID: Clean2D)

> <knn Distance>


> <CpId>
3385

$$$$
3386
  Mrv1532301301811342D          

 17 16  0  0  0  0            999 V2000
   -0.1914    0.7145    0.0000 C   0  0  0  0  0  0  0  0  0  0  0  0
    0.5230    1.1270    0.0000 C   0  0  0  0  0  0  0  0  0  0  0  0
    1.2375    0.7145    0.0000 C   0  0  0  0  0  0  0  0  0  0  0  0
    1.9520    1.1270    0.0000 O   0  0  0  0  0  0  0  0  0  0  0  0
    2.6664    0.7145    0.0000 C   0  0  0  0  0  0  0  0  0  0  0  0
    3.3809    1.1270    0.0000 C   0  0  0  0  0  0  0  0  0  0  0  0
    2.6664   -0.1105    0.0000 O   0  0  0  0  0  0  0  0  0  0  0  0
   -0.6039    1.4290    0.0000 H   0  0  0  0  0  0  0  0  0  0  0  0
   -0.9059    0.3020    0.0000 H   0  0  0  0  0  0  0  0  0  0  0  0
    0.2211    0.0000    0.0000 H   0  0  0  0  0  0  0  0  0  0  0  0
    0.8933    1.8642    0.0000 H   0  0  0  0  0  0  0  0  0  0  0  0
    0.1528    1.8642    0.0000 H   0  0  0  0  0  0  0  0  0  0  0  0
    0.8672   -0.0227    0.0000 H   0  0  0  0  0  0  0  0  0  0  0  0
    1.6078   -0.0227    0.0000 H   0  0  0  0  0  0  0  0  0  0  0  0
    3.7934    0.4125    0.0000 H   0  0  0  0  0  0  0  0  0  0  0  0
    4.0954    1.5395    0.0000 H   0  0  0  0  0  0  0  0  0  0  0  0
    2.9684    1.8415    0.0000 H   0  0  0  0  0  0  0  0  0  0  0  0
  1  2  1  0  0  0  0
  2  3  1  0  0  0  0
  3  4  1  0  0  0  0
  4  5  1  0  0  0  0
  5  6  1  0  0  0  0
  5  7  2  0  0  0  0
  1  8  1  0  0  0  0
  1  9  1  0  0  0  0
  1 10  1  0  0  0  0
  2 11  1  0  0  0  0
  2 12  1  0  0  0  0
  3 13  1  0  0  0  0
  3 14  1  0  0  0  0
  6 15  1  0  0  0  0
  6 16  1  0  0  0  0
  6 17  1  0  0  0  0
M  END
>  <InChIKey>
InChI=1S/C5H10O2/c1-3-4-7-5(2)6/h3-4H2,1-2H3

>  <CASRN>
109-60-4

> <Outcome>
1

>  <Index>
3386

>  <StandardizerResult>
Clear Stereo (ID: ClearStereo)
Wedge Clean (ID: WedgeClean)
Mesomerize (ID: Mesomerize)
Tautomerize (ID: Tautomerize)
Add Explicit Hydrogens (ID: AddExplicitH)
Neutralize (ID: Neutralize)
Clean 2D (ID: Clean2D)

> <knn Distance>


> <CpId>
3386

$$$$
3393
  Mrv1532301301811342D          

 14 14  0  0  0  0            999 V2000
    0.0000    2.4750    0.0000 C   0  0  0  0  0  0  0  0  0  0  0  0
    0.7145    2.0625    0.0000 O   0  0  0  0  0  0  0  0  0  0  0  0
    0.7145    1.2375    0.0000 C   0  0  0  0  0  0  0  0  0  0  0  0
    1.4289    0.8250    0.0000 N   0  0  0  0  0  0  0  0  0  0  0  0
    1.4289   -0.0000    0.0000 C   0  0  0  0  0  0  0  0  0  0  0  0
    0.7145   -0.4125    0.0000 C   0  0  0  0  0  0  0  0  0  0  0  0
    0.0000   -0.0000    0.0000 C   0  0  0  0  0  0  0  0  0  0  0  0
    0.0000    0.8250    0.0000 N   0  0  0  0  0  0  0  0  0  0  0  0
    0.4125    3.1895    0.0000 H   0  0  0  0  0  0  0  0  0  0  0  0
   -0.7145    2.8875    0.0000 H   0  0  0  0  0  0  0  0  0  0  0  0
   -0.4125    1.7605    0.0000 H   0  0  0  0  0  0  0  0  0  0  0  0
    2.1434   -0.4125    0.0000 H   0  0  0  0  0  0  0  0  0  0  0  0
    0.7145   -1.2375    0.0000 H   0  0  0  0  0  0  0  0  0  0  0  0
   -0.7145   -0.4125    0.0000 H   0  0  0  0  0  0  0  0  0  0  0  0
  1  2  1  0  0  0  0
  2  3  1  0  0  0  0
  3  4  4  0  0  0  0
  4  5  4  0  0  0  0
  5  6  4  0  0  0  0
  6  7  4  0  0  0  0
  7  8  4  0  0  0  0
  3  8  4  0  0  0  0
  1  9  1  0  0  0  0
  1 10  1  0  0  0  0
  1 11  1  0  0  0  0
  5 12  1  0  0  0  0
  6 13  1  0  0  0  0
  7 14  1  0  0  0  0
M  END
>  <InChIKey>
InChI=1S/C5H6N2O/c1-8-5-6-3-2-4-7-5/h2-4H,1H3

>  <CASRN>
931-63-5

> <Outcome>
1

>  <Index>
3393

>  <StandardizerResult>
Dearomatize (ID: Dearomatize)
Clear Stereo (ID: ClearStereo)
Wedge Clean (ID: WedgeClean)
Mesomerize (ID: Mesomerize)
Tautomerize (ID: Tautomerize)
Aromatize (ID: Aromatize)
Add Explicit Hydrogens (ID: AddExplicitH)
Neutralize (ID: Neutralize)
Clean 2D (ID: Clean2D)

> <knn Distance>


> <CpId>
3393

$$$$
3398
  Mrv1532301301811342D          

  8  7  0  0  0  0            999 V2000
    0.1105   -1.2375    0.0000 O   0  0  0  0  0  0  0  0  0  0  0  0
    0.8250   -0.8250    0.0000 C   0  0  0  0  0  0  0  0  0  0  0  0
    1.5395   -1.2375    0.0000 O   0  0  0  0  0  0  0  0  0  0  0  0
    0.8250    0.0000    0.0000 C   0  0  0  0  0  0  0  0  0  0  0  0
    0.8250    0.8250    0.0000 Cl  0  0  0  0  0  0  0  0  0  0  0  0
    1.6500    0.0000    0.0000 Cl  0  0  0  0  0  0  0  0  0  0  0  0
   -0.0000    0.0000    0.0000 Cl  0  0  0  0  0  0  0  0  0  0  0  0
   -0.6039   -0.8250    0.0000 H   0  0  0  0  0  0  0  0  0  0  0  0
  1  2  1  0  0  0  0
  2  3  2  0  0  0  0
  2  4  1  0  0  0  0
  4  5  1  0  0  0  0
  4  6  1  0  0  0  0
  4  7  1  0  0  0  0
  1  8  1  0  0  0  0
M  END
>  <InChIKey>
InChI=1S/C2HCl3O2/c3-2(4,5)1(6)7/h(H,6,7)

> <Outcome>
1

>  <Index>
3398

>  <StandardizerResult>
Clear Stereo (ID: ClearStereo)
Wedge Clean (ID: WedgeClean)
Mesomerize (ID: Mesomerize)
Tautomerize (ID: Tautomerize)
Add Explicit Hydrogens (ID: AddExplicitH)
Neutralize (ID: Neutralize)
Clean 2D (ID: Clean2D)

> <knn Distance>


> <CpId>
3398

$$$$
3399
  Mrv1532301301811342D          

 18 18  0  0  0  0            999 V2000
   -0.0008    2.4745    0.0000 C   0  0  0  0  0  0  0  0  0  0  0  0
    0.7136    2.0620    0.0000 C   0  0  0  0  0  0  0  0  0  0  0  0
    0.7136    1.2370    0.0000 C   0  0  0  0  0  0  0  0  0  0  0  0
    1.4281    0.8245    0.0000 C   0  0  0  0  0  0  0  0  0  0  0  0
    1.4281   -0.0005    0.0000 C   0  0  0  0  0  0  0  0  0  0  0  0
    0.7136   -0.4130    0.0000 C   0  0  0  0  0  0  0  0  0  0  0  0
   -0.0008   -0.0005    0.0000 C   0  0  0  0  0  0  0  0  0  0  0  0
   -0.0008    0.8245    0.0000 C   0  0  0  0  0  0  0  0  0  0  0  0
    0.4117    3.1890    0.0000 H   0  0  0  0  0  0  0  0  0  0  0  0
   -0.7153    2.8870    0.0000 H   0  0  0  0  0  0  0  0  0  0  0  0
   -0.4133    1.7600    0.0000 H   0  0  0  0  0  0  0  0  0  0  0  0
    1.5372    2.1100    0.0000 H   0  0  0  0  0  0  0  0  0  0  0  0
    1.1670    2.7513    0.0000 H   0  0  0  0  0  0  0  0  0  0  0  0
    2.1426    1.2370    0.0000 H   0  0  0  0  0  0  0  0  0  0  0  0
    2.1426   -0.4130    0.0000 H   0  0  0  0  0  0  0  0  0  0  0  0
    0.7136   -1.2380    0.0000 H   0  0  0  0  0  0  0  0  0  0  0  0
   -0.7153   -0.4130    0.0000 H   0  0  0  0  0  0  0  0  0  0  0  0
   -0.7153    1.2370    0.0000 H   0  0  0  0  0  0  0  0  0  0  0  0
  1  2  1  0  0  0  0
  2  3  1  0  0  0  0
  3  4  4  0  0  0  0
  4  5  4  0  0  0  0
  5  6  4  0  0  0  0
  6  7  4  0  0  0  0
  7  8  4  0  0  0  0
  3  8  4  0  0  0  0
  1  9  1  0  0  0  0
  1 10  1  0  0  0  0
  1 11  1  0  0  0  0
  2 12  1  0  0  0  0
  2 13  1  0  0  0  0
  4 14  1  0  0  0  0
  5 15  1  0  0  0  0
  6 16  1  0  0  0  0
  7 17  1  0  0  0  0
  8 18  1  0  0  0  0
M  END
>  <InChIKey>
InChI=1S/C8H10/c1-2-8-6-4-3-5-7-8/h3-7H,2H2,1H3

>  <CASRN>
100-41-4

> <Outcome>
1

>  <Index>
3399

>  <StandardizerResult>
Dearomatize (ID: Dearomatize)
Clear Stereo (ID: ClearStereo)
Wedge Clean (ID: WedgeClean)
Mesomerize (ID: Mesomerize)
Tautomerize (ID: Tautomerize)
Aromatize (ID: Aromatize)
Add Explicit Hydrogens (ID: AddExplicitH)
Neutralize (ID: Neutralize)
Clean 2D (ID: Clean2D)

> <knn Distance>


> <CpId>
3399

$$$$
3401
  Mrv1532301301811342D          

 40 41  0  0  0  0            999 V2000
    3.5724   -5.3625    0.0000 O   0  0  0  0  0  0  0  0  0  0  0  0
    2.8579   -4.9500    0.0000 C   0  0  0  0  0  0  0  0  0  0  0  0
    2.1434   -5.3625    0.0000 O   0  0  0  0  0  0  0  0  0  0  0  0
    2.8579   -4.1250    0.0000 C   0  0  0  0  0  0  0  0  0  0  0  0
    2.1434   -3.7125    0.0000 O   0  0  0  0  0  0  0  0  0  0  0  0
    1.4289   -4.1250    0.0000 C   0  0  0  0  0  0  0  0  0  0  0  0
    1.4289   -4.9500    0.0000 O   0  0  0  0  0  0  0  0  0  0  0  0
    0.7145   -3.7125    0.0000 C   0  0  0  0  0  0  0  0  0  0  0  0
   -0.0000   -4.1250    0.0000 C   0  0  0  0  0  0  0  0  0  0  0  0
   -0.7145   -3.7125    0.0000 C   0  0  0  0  0  0  0  0  0  0  0  0
   -0.7145   -2.8875    0.0000 C   0  0  0  0  0  0  0  0  0  0  0  0
   -0.0000   -2.4750    0.0000 C   0  0  0  0  0  0  0  0  0  0  0  0
    0.7145   -2.8875    0.0000 C   0  0  0  0  0  0  0  0  0  0  0  0
    3.5724   -3.7125    0.0000 C   0  0  0  0  0  0  0  0  0  0  0  0
    4.2868   -4.1250    0.0000 O   0  0  0  0  0  0  0  0  0  0  0  0
    5.0013   -3.7125    0.0000 C   0  0  0  0  0  0  0  0  0  0  0  0
    5.0013   -2.8875    0.0000 O   0  0  0  0  0  0  0  0  0  0  0  0
    5.7158   -4.1250    0.0000 C   0  0  0  0  0  0  0  0  0  0  0  0
    6.4302   -3.7125    0.0000 C   0  0  0  0  0  0  0  0  0  0  0  0
    7.1447   -4.1250    0.0000 C   0  0  0  0  0  0  0  0  0  0  0  0
    7.1447   -4.9500    0.0000 C   0  0  0  0  0  0  0  0  0  0  0  0
    6.4302   -5.3625    0.0000 C   0  0  0  0  0  0  0  0  0  0  0  0
    5.7158   -4.9500    0.0000 C   0  0  0  0  0  0  0  0  0  0  0  0
    3.5724   -2.8875    0.0000 C   0  0  0  0  0  0  0  0  0  0  0  0
    4.2868   -2.4750    0.0000 O   0  0  0  0  0  0  0  0  0  0  0  0
    2.8579   -2.4750    0.0000 O   0  0  0  0  0  0  0  0  0  0  0  0
    3.5724   -6.1875    0.0000 H   0  0  0  0  0  0  0  0  0  0  0  0
    2.1434   -4.5375    0.0000 H   0  0  0  0  0  0  0  0  0  0  0  0
   -0.0000   -4.9500    0.0000 H   0  0  0  0  0  0  0  0  0  0  0  0
   -1.4289   -4.1250    0.0000 H   0  0  0  0  0  0  0  0  0  0  0  0
   -1.4289   -2.4750    0.0000 H   0  0  0  0  0  0  0  0  0  0  0  0
   -0.0000   -1.6500    0.0000 H   0  0  0  0  0  0  0  0  0  0  0  0
    1.4289   -2.4750    0.0000 H   0  0  0  0  0  0  0  0  0  0  0  0
    3.5724   -4.5375    0.0000 H   0  0  0  0  0  0  0  0  0  0  0  0
    6.4302   -2.8875    0.0000 H   0  0  0  0  0  0  0  0  0  0  0  0
    7.8592   -3.7125    0.0000 H   0  0  0  0  0  0  0  0  0  0  0  0
    7.8592   -5.3625    0.0000 H   0  0  0  0  0  0  0  0  0  0  0  0
    6.4302   -6.1875    0.0000 H   0  0  0  0  0  0  0  0  0  0  0  0
    5.0013   -5.3625    0.0000 H   0  0  0  0  0  0  0  0  0  0  0  0
    4.2868   -1.6500    0.0000 H   0  0  0  0  0  0  0  0  0  0  0  0
  1  2  1  0  0  0  0
  2  3  2  0  0  0  0
  2  4  1  0  0  0  0
  4  5  1  0  0  0  0
  5  6  1  0  0  0  0
  6  7  2  0  0  0  0
  6  8  1  0  0  0  0
  8  9  4  0  0  0  0
  9 10  4  0  0  0  0
 10 11  4  0  0  0  0
 11 12  4  0  0  0  0
 12 13  4  0  0  0  0
  8 13  4  0  0  0  0
  4 14  1  0  0  0  0
 14 15  1  0  0  0  0
 15 16  1  0  0  0  0
 16 17  2  0  0  0  0
 16 18  1  0  0  0  0
 18 19  4  0  0  0  0
 19 20  4  0  0  0  0
 20 21  4  0  0  0  0
 21 22  4  0  0  0  0
 22 23  4  0  0  0  0
 18 23  4  0  0  0  0
 14 24  1  0  0  0  0
 24 25  1  0  0  0  0
 24 26  2  0  0  0  0
  1 27  1  0  0  0  0
  4 28  1  0  0  0  0
  9 29  1  0  0  0  0
 10 30  1  0  0  0  0
 11 31  1  0  0  0  0
 12 32  1  0  0  0  0
 13 33  1  0  0  0  0
 14 34  1  0  0  0  0
 19 35  1  0  0  0  0
 20 36  1  0  0  0  0
 21 37  1  0  0  0  0
 22 38  1  0  0  0  0
 23 39  1  0  0  0  0
 25 40  1  0  0  0  0
M  END
>  <InChIKey>
InChI=1S/C18H14O8/c19-15(20)13(25-17(23)11-7-3-1-4-8-11)14(16(21)22)26-18(24)12-9-5-2-6-10-12/h1-10,13-14H,(H,19,20)(H,21,22)

>  <UN GHS>
1

>  <CASRN>
2743-38-6

> <Outcome>
1

>  <Index>
3401

>  <StandardizerResult>
Dearomatize (ID: Dearomatize)
Clear Stereo (ID: ClearStereo)
Wedge Clean (ID: WedgeClean)
Mesomerize (ID: Mesomerize)
Tautomerize (ID: Tautomerize)
Aromatize (ID: Aromatize)
Add Explicit Hydrogens (ID: AddExplicitH)
Neutralize (ID: Neutralize)
Clean 2D (ID: Clean2D)

> <knn Distance>


> <CpId>
3401

$$$$
3402
  Mrv1532301301811342D          

  7  6  0  0  0  0            999 V2000
    2.0612   -0.7167    0.0000 Br  0  0  0  0  0  0  0  0  0  0  0  0
    1.6487   -0.0022    0.0000 C   0  0  0  0  0  0  0  0  0  0  0  0
    0.8237   -0.0022    0.0000 C   0  0  0  0  0  0  0  0  0  0  0  0
   -0.0013   -0.0022    0.0000 C   0  0  0  0  0  0  0  0  0  0  0  0
    2.3380    0.4512    0.0000 H   0  0  0  0  0  0  0  0  0  0  0  0
    1.6967    0.8214    0.0000 H   0  0  0  0  0  0  0  0  0  0  0  0
   -0.8263   -0.0022    0.0000 H   0  0  0  0  0  0  0  0  0  0  0  0
  1  2  1  0  0  0  0
  2  3  1  0  0  0  0
  3  4  3  0  0  0  0
  2  5  1  0  0  0  0
  2  6  1  0  0  0  0
  4  7  1  0  0  0  0
M  END
>  <InChIKey>
InChI=1S/C3H3Br/c1-2-3-4/h1H,3H2

>  <CASRN>
106-96-7

> <Outcome>
1

>  <Index>
3402

>  <StandardizerResult>
Clear Stereo (ID: ClearStereo)
Wedge Clean (ID: WedgeClean)
Mesomerize (ID: Mesomerize)
Tautomerize (ID: Tautomerize)
Add Explicit Hydrogens (ID: AddExplicitH)
Neutralize (ID: Neutralize)
Clean 2D (ID: Clean2D)

> <knn Distance>


> <CpId>
3402

$$$$
3405
  Mrv1532301301811342D          

 43 44  0  0  0  0            999 V2000
    1.4748   -1.5797    0.0000 C   0  0  0  0  0  0  0  0  0  0  0  0
    1.4748   -2.4047    0.0000 C   0  0  0  0  0  0  0  0  0  0  0  0
    2.1893   -2.8172    0.0000 C   0  0  0  0  0  0  0  0  0  0  0  0
    2.1893   -3.6422    0.0000 C   0  0  0  0  0  0  0  0  0  0  0  0
    2.9038   -4.0547    0.0000 C   0  0  0  0  0  0  0  0  0  0  0  0
    1.4748   -4.0547    0.0000 C   0  0  0  0  0  0  0  0  0  0  0  0
    1.4748   -4.8797    0.0000 O   0  0  0  0  0  0  0  0  0  0  0  0
    0.7604   -3.6422    0.0000 C   0  0  0  0  0  0  0  0  0  0  0  0
    0.7604   -2.8172    0.0000 C   0  0  0  0  0  0  0  0  0  0  0  0
    0.0459   -4.0547    0.0000 C   0  0  0  0  0  0  0  0  0  0  0  0
   -0.6686   -3.6422    0.0000 O   0  0  0  0  0  0  0  0  0  0  0  0
    0.0459   -4.8797    0.0000 C   0  0  0  0  0  0  0  0  0  0  0  0
   -0.6686   -5.2922    0.0000 C   0  0  0  0  0  0  0  0  0  0  0  0
   -0.6686   -6.1172    0.0000 C   0  0  0  0  0  0  0  0  0  0  0  0
   -1.3830   -6.5297    0.0000 C   0  0  0  0  0  0  0  0  0  0  0  0
   -1.3830   -7.3547    0.0000 O   0  0  0  0  0  0  0  0  0  0  0  0
   -2.0975   -6.1172    0.0000 N   0  0  0  0  0  0  0  0  0  0  0  0
   -2.0975   -5.2922    0.0000 C   0  0  0  0  0  0  0  0  0  0  0  0
   -2.8120   -4.8797    0.0000 O   0  0  0  0  0  0  0  0  0  0  0  0
   -1.3830   -4.8797    0.0000 C   0  0  0  0  0  0  0  0  0  0  0  0
    2.2998   -1.5797    0.0000 H   0  0  0  0  0  0  0  0  0  0  0  0
    1.4748   -0.7547    0.0000 H   0  0  0  0  0  0  0  0  0  0  0  0
    0.6498   -1.5797    0.0000 H   0  0  0  0  0  0  0  0  0  0  0  0
    0.7604   -1.9922    0.0000 H   0  0  0  0  0  0  0  0  0  0  0  0
    3.0129   -2.7692    0.0000 H   0  0  0  0  0  0  0  0  0  0  0  0
    2.6427   -2.1279    0.0000 H   0  0  0  0  0  0  0  0  0  0  0  0
    2.1893   -4.4672    0.0000 H   0  0  0  0  0  0  0  0  0  0  0  0
    3.1173   -4.8516    0.0000 H   0  0  0  0  0  0  0  0  0  0  0  0
    3.7288   -4.0547    0.0000 H   0  0  0  0  0  0  0  0  0  0  0  0
    3.1173   -3.2578    0.0000 H   0  0  0  0  0  0  0  0  0  0  0  0
    0.0459   -3.2297    0.0000 H   0  0  0  0  0  0  0  0  0  0  0  0
    0.0459   -2.4047    0.0000 H   0  0  0  0  0  0  0  0  0  0  0  0
    1.4748   -3.2297    0.0000 H   0  0  0  0  0  0  0  0  0  0  0  0
   -0.6686   -4.4672    0.0000 H   0  0  0  0  0  0  0  0  0  0  0  0
   -1.3830   -3.2297    0.0000 H   0  0  0  0  0  0  0  0  0  0  0  0
    0.4992   -5.5689    0.0000 H   0  0  0  0  0  0  0  0  0  0  0  0
    0.8695   -4.9276    0.0000 H   0  0  0  0  0  0  0  0  0  0  0  0
    0.0459   -5.7047    0.0000 H   0  0  0  0  0  0  0  0  0  0  0  0
   -0.5253   -6.9296    0.0000 H   0  0  0  0  0  0  0  0  0  0  0  0
   -0.0366   -6.6475    0.0000 H   0  0  0  0  0  0  0  0  0  0  0  0
   -2.8120   -6.5297    0.0000 H   0  0  0  0  0  0  0  0  0  0  0  0
   -1.5263   -4.0672    0.0000 H   0  0  0  0  0  0  0  0  0  0  0  0
   -2.0150   -4.3494    0.0000 H   0  0  0  0  0  0  0  0  0  0  0  0
  1  2  1  0  0  0  0
  2  3  1  0  0  0  0
  3  4  1  0  0  0  0
  4  5  1  0  0  0  0
  4  6  1  0  0  0  0
  6  7  2  0  0  0  0
  6  8  1  0  0  0  0
  8  9  1  0  0  0  0
  2  9  1  0  0  0  0
  8 10  1  0  0  0  0
 10 11  1  0  0  0  0
 10 12  1  0  0  0  0
 12 13  1  0  0  0  0
 13 14  1  0  0  0  0
 14 15  1  0  0  0  0
 15 16  2  0  0  0  0
 15 17  1  0  0  0  0
 17 18  1  0  0  0  0
 18 19  2  0  0  0  0
 18 20  1  0  0  0  0
 13 20  1  0  0  0  0
  1 21  1  0  0  0  0
  1 22  1  0  0  0  0
  1 23  1  0  0  0  0
  2 24  1  0  0  0  0
  3 25  1  0  0  0  0
  3 26  1  0  0  0  0
  4 27  1  0  0  0  0
  5 28  1  0  0  0  0
  5 29  1  0  0  0  0
  5 30  1  0  0  0  0
  8 31  1  0  0  0  0
  9 32  1  0  0  0  0
  9 33  1  0  0  0  0
 10 34  1  0  0  0  0
 11 35  1  0  0  0  0
 12 36  1  0  0  0  0
 12 37  1  0  0  0  0
 13 38  1  0  0  0  0
 14 39  1  0  0  0  0
 14 40  1  0  0  0  0
 17 41  1  0  0  0  0
 20 42  1  0  0  0  0
 20 43  1  0  0  0  0
M  END
>  <InChIKey>
InChI=1S/C15H23NO4/c1-8-3-9(2)15(20)11(4-8)12(17)5-10-6-13(18)16-14(19)7-10/h8-12,17H,3-7H2,1-2H3,(H,16,18,19)

>  <CASRN>
66-81-9

> <Outcome>
1

>  <Index>
3405

>  <StandardizerResult>
Clear Stereo (ID: ClearStereo)
Wedge Clean (ID: WedgeClean)
Mesomerize (ID: Mesomerize)
Tautomerize (ID: Tautomerize)
Add Explicit Hydrogens (ID: AddExplicitH)
Neutralize (ID: Neutralize)
Clean 2D (ID: Clean2D)

> <knn Distance>


> <CpId>
3405

$$$$
3409
  Mrv1532301301811342D          

 17 17  0  0  0  0            999 V2000
   -0.0000    2.4750    0.0000 O   0  0  0  0  0  0  0  0  0  0  0  0
    0.7145    2.0625    0.0000 C   0  0  0  0  0  0  0  0  0  0  0  0
    1.4289    2.4750    0.0000 O   0  0  0  0  0  0  0  0  0  0  0  0
    0.7145    1.2375    0.0000 C   0  0  0  0  0  0  0  0  0  0  0  0
    1.4289    0.8250    0.0000 C   0  0  0  0  0  0  0  0  0  0  0  0
    1.4289    0.0000    0.0000 C   0  0  0  0  0  0  0  0  0  0  0  0
    0.7145   -0.4125    0.0000 C   0  0  0  0  0  0  0  0  0  0  0  0
    0.7145   -1.2375    0.0000 O   0  0  0  0  0  0  0  0  0  0  0  0
   -0.0000    0.0000    0.0000 C   0  0  0  0  0  0  0  0  0  0  0  0
   -0.7145   -0.4125    0.0000 O   0  0  0  0  0  0  0  0  0  0  0  0
   -0.0000    0.8250    0.0000 C   0  0  0  0  0  0  0  0  0  0  0  0
   -0.0000    3.3000    0.0000 H   0  0  0  0  0  0  0  0  0  0  0  0
    2.1434    1.2375    0.0000 H   0  0  0  0  0  0  0  0  0  0  0  0
    2.1434   -0.4125    0.0000 H   0  0  0  0  0  0  0  0  0  0  0  0
   -0.0000   -1.6500    0.0000 H   0  0  0  0  0  0  0  0  0  0  0  0
   -1.4289    0.0000    0.0000 H   0  0  0  0  0  0  0  0  0  0  0  0
   -0.7145    1.2375    0.0000 H   0  0  0  0  0  0  0  0  0  0  0  0
  1  2  1  0  0  0  0
  2  3  2  0  0  0  0
  2  4  1  0  0  0  0
  4  5  4  0  0  0  0
  5  6  4  0  0  0  0
  6  7  4  0  0  0  0
  7  8  1  0  0  0  0
  7  9  4  0  0  0  0
  9 10  1  0  0  0  0
  9 11  4  0  0  0  0
  4 11  4  0  0  0  0
  1 12  1  0  0  0  0
  5 13  1  0  0  0  0
  6 14  1  0  0  0  0
  8 15  1  0  0  0  0
 10 16  1  0  0  0  0
 11 17  1  0  0  0  0
M  END
>  <InChIKey>
InChI=1S/C7H6O4/c8-5-2-1-4(7(10)11)3-6(5)9/h1-3,8-9H,(H,10,11)

>  <CASRN>
99-50-3

> <Outcome>
1

>  <Index>
3409

>  <StandardizerResult>
Dearomatize (ID: Dearomatize)
Clear Stereo (ID: ClearStereo)
Wedge Clean (ID: WedgeClean)
Mesomerize (ID: Mesomerize)
Tautomerize (ID: Tautomerize)
Aromatize (ID: Aromatize)
Add Explicit Hydrogens (ID: AddExplicitH)
Neutralize (ID: Neutralize)
Clean 2D (ID: Clean2D)

> <knn Distance>


> <CpId>
3409

$$$$
3411
  Mrv1532301301811342D          

 35 34  0  0  0  0            999 V2000
    3.5211    2.8579    0.0000 C   0  0  0  0  0  0  0  0  0  0  0  0
    4.2355    3.2704    0.0000 C   0  0  0  0  0  0  0  0  0  0  0  0
    4.9500    2.8579    0.0000 C   0  0  0  0  0  0  0  0  0  0  0  0
    5.6645    3.2704    0.0000 C   0  0  0  0  0  0  0  0  0  0  0  0
    6.3789    2.8579    0.0000 C   0  0  0  0  0  0  0  0  0  0  0  0
    7.0934    3.2704    0.0000 C   0  0  0  0  0  0  0  0  0  0  0  0
    7.8079    2.8579    0.0000 C   0  0  0  0  0  0  0  0  0  0  0  0
    8.5224    3.2704    0.0000 C   0  0  0  0  0  0  0  0  0  0  0  0
    9.2368    2.8579    0.0000 C   0  0  0  0  0  0  0  0  0  0  0  0
    9.9513    3.2704    0.0000 C   0  0  0  0  0  0  0  0  0  0  0  0
    9.9513    4.0954    0.0000 O   0  0  0  0  0  0  0  0  0  0  0  0
   10.6658    2.8579    0.0000 O   0  0  0  0  0  0  0  0  0  0  0  0
   11.3802    3.2704    0.0000 C   0  0  0  0  0  0  0  0  0  0  0  0
    3.1086    3.5724    0.0000 H   0  0  0  0  0  0  0  0  0  0  0  0
    2.8066    2.4454    0.0000 H   0  0  0  0  0  0  0  0  0  0  0  0
    3.9336    2.1434    0.0000 H   0  0  0  0  0  0  0  0  0  0  0  0
    4.6058    4.0076    0.0000 H   0  0  0  0  0  0  0  0  0  0  0  0
    3.8653    4.0076    0.0000 H   0  0  0  0  0  0  0  0  0  0  0  0
    4.5797    2.1207    0.0000 H   0  0  0  0  0  0  0  0  0  0  0  0
    5.3203    2.1207    0.0000 H   0  0  0  0  0  0  0  0  0  0  0  0
    6.0347    4.0076    0.0000 H   0  0  0  0  0  0  0  0  0  0  0  0
    5.2942    4.0076    0.0000 H   0  0  0  0  0  0  0  0  0  0  0  0
    6.0087    2.1207    0.0000 H   0  0  0  0  0  0  0  0  0  0  0  0
    6.7492    2.1207    0.0000 H   0  0  0  0  0  0  0  0  0  0  0  0
    7.4637    4.0076    0.0000 H   0  0  0  0  0  0  0  0  0  0  0  0
    6.7232    4.0076    0.0000 H   0  0  0  0  0  0  0  0  0  0  0  0
    7.4376    2.1207    0.0000 H   0  0  0  0  0  0  0  0  0  0  0  0
    8.1781    2.1207    0.0000 H   0  0  0  0  0  0  0  0  0  0  0  0
    8.8926    4.0076    0.0000 H   0  0  0  0  0  0  0  0  0  0  0  0
    8.1521    4.0076    0.0000 H   0  0  0  0  0  0  0  0  0  0  0  0
    8.8666    2.1207    0.0000 H   0  0  0  0  0  0  0  0  0  0  0  0
    9.6071    2.1207    0.0000 H   0  0  0  0  0  0  0  0  0  0  0  0
   11.7927    2.5559    0.0000 H   0  0  0  0  0  0  0  0  0  0  0  0
   12.0947    3.6829    0.0000 H   0  0  0  0  0  0  0  0  0  0  0  0
   10.9677    3.9849    0.0000 H   0  0  0  0  0  0  0  0  0  0  0  0
  1  2  1  0  0  0  0
  2  3  1  0  0  0  0
  3  4  1  0  0  0  0
  4  5  1  0  0  0  0
  5  6  1  0  0  0  0
  6  7  1  0  0  0  0
  7  8  1  0  0  0  0
  8  9  1  0  0  0  0
  9 10  1  0  0  0  0
 10 11  2  0  0  0  0
 10 12  1  0  0  0  0
 12 13  1  0  0  0  0
  1 14  1  0  0  0  0
  1 15  1  0  0  0  0
  1 16  1  0  0  0  0
  2 17  1  0  0  0  0
  2 18  1  0  0  0  0
  3 19  1  0  0  0  0
  3 20  1  0  0  0  0
  4 21  1  0  0  0  0
  4 22  1  0  0  0  0
  5 23  1  0  0  0  0
  5 24  1  0  0  0  0
  6 25  1  0  0  0  0
  6 26  1  0  0  0  0
  7 27  1  0  0  0  0
  7 28  1  0  0  0  0
  8 29  1  0  0  0  0
  8 30  1  0  0  0  0
  9 31  1  0  0  0  0
  9 32  1  0  0  0  0
 13 33  1  0  0  0  0
 13 34  1  0  0  0  0
 13 35  1  0  0  0  0
M  END
>  <InChIKey>
InChI=1S/C11H22O2/c1-3-4-5-6-7-8-9-10-11(12)13-2/h3-10H2,1-2H3

>  <CASRN>
110-42-9

> <Outcome>
1

>  <Index>
3411

>  <StandardizerResult>
Clear Stereo (ID: ClearStereo)
Wedge Clean (ID: WedgeClean)
Mesomerize (ID: Mesomerize)
Tautomerize (ID: Tautomerize)
Add Explicit Hydrogens (ID: AddExplicitH)
Neutralize (ID: Neutralize)
Clean 2D (ID: Clean2D)

> <knn Distance>


> <CpId>
3411

$$$$
3417
  Mrv1532301301811342D          

  9  9  0  0  0  0            999 V2000
    0.5678    1.1143    0.0000 C   0  0  0  0  0  0  0  0  0  0  0  0
    1.2352    0.6294    0.0000 C   0  0  0  0  0  0  0  0  0  0  0  0
    0.9803   -0.1552    0.0000 C   0  0  0  0  0  0  0  0  0  0  0  0
    0.1553   -0.1552    0.0000 S   0  0  0  0  0  0  0  0  0  0  0  0
   -0.0997    0.6294    0.0000 C   0  0  0  0  0  0  0  0  0  0  0  0
    0.5678    1.9393    0.0000 H   0  0  0  0  0  0  0  0  0  0  0  0
    2.0198    0.8843    0.0000 H   0  0  0  0  0  0  0  0  0  0  0  0
    1.4652   -0.8227    0.0000 H   0  0  0  0  0  0  0  0  0  0  0  0
   -0.8843    0.8843    0.0000 H   0  0  0  0  0  0  0  0  0  0  0  0
  1  2  4  0  0  0  0
  2  3  4  0  0  0  0
  3  4  4  0  0  0  0
  4  5  4  0  0  0  0
  1  5  4  0  0  0  0
  1  6  1  0  0  0  0
  2  7  1  0  0  0  0
  3  8  1  0  0  0  0
  5  9  1  0  0  0  0
M  END
>  <InChIKey>
InChI=1S/C4H4S/c1-2-4-5-3-1/h1-4H

>  <CASRN>
110-02-1

> <Outcome>
1

>  <Index>
3417

>  <StandardizerResult>
Dearomatize (ID: Dearomatize)
Clear Stereo (ID: ClearStereo)
Wedge Clean (ID: WedgeClean)
Mesomerize (ID: Mesomerize)
Tautomerize (ID: Tautomerize)
Aromatize (ID: Aromatize)
Add Explicit Hydrogens (ID: AddExplicitH)
Neutralize (ID: Neutralize)
Clean 2D (ID: Clean2D)

> <knn Distance>


> <CpId>
3417

$$$$
3420
  Mrv1532301301811342D          

  9  8  0  0  0  0            999 V2000
    1.2375    0.7145    0.0000 C   0  0  0  0  0  0  0  0  0  0  0  0
    0.8250    0.0000    0.0000 C   0  0  0  0  0  0  0  0  0  0  0  0
    1.2375   -0.7145    0.0000 N   0  0  0  0  0  0  0  0  0  0  0  0
   -0.0000    0.0000    0.0000 S   0  0  0  0  0  0  0  0  0  0  0  0
    1.9520    0.3020    0.0000 H   0  0  0  0  0  0  0  0  0  0  0  0
    1.6500    1.4289    0.0000 H   0  0  0  0  0  0  0  0  0  0  0  0
    0.5230    1.1270    0.0000 H   0  0  0  0  0  0  0  0  0  0  0  0
    0.8250   -1.4289    0.0000 H   0  0  0  0  0  0  0  0  0  0  0  0
    2.0625   -0.7145    0.0000 H   0  0  0  0  0  0  0  0  0  0  0  0
  1  2  1  0  0  0  0
  2  3  1  0  0  0  0
  2  4  2  0  0  0  0
  1  5  1  0  0  0  0
  1  6  1  0  0  0  0
  1  7  1  0  0  0  0
  3  8  1  0  0  0  0
  3  9  1  0  0  0  0
M  END
>  <InChIKey>
InChI=1S/C2H5NS/c1-2(3)4/h1H3,(H2,3,4)

>  <CASRN>
62-55-5

> <Outcome>
1

>  <Index>
3420

>  <StandardizerResult>
Clear Stereo (ID: ClearStereo)
Wedge Clean (ID: WedgeClean)
Mesomerize (ID: Mesomerize)
Tautomerize (ID: Tautomerize)
Add Explicit Hydrogens (ID: AddExplicitH)
Neutralize (ID: Neutralize)
Clean 2D (ID: Clean2D)

> <knn Distance>


> <CpId>
3420

$$$$
3424
  Mrv1532301301811342D          

 28 29  0  0  0  0            999 V2000
    2.1516   -0.4034    0.0000 Cl  0  0  0  0  0  0  0  0  0  0  0  0
    2.1516   -1.2284    0.0000 C   0  0  0  0  0  0  0  0  0  0  0  0
    2.8661   -1.6409    0.0000 C   0  0  0  0  0  0  0  0  0  0  0  0
    2.8661   -2.4659    0.0000 C   0  0  0  0  0  0  0  0  0  0  0  0
    2.1516   -2.8784    0.0000 C   0  0  0  0  0  0  0  0  0  0  0  0
    1.4371   -2.4659    0.0000 C   0  0  0  0  0  0  0  0  0  0  0  0
    1.4371   -1.6409    0.0000 C   0  0  0  0  0  0  0  0  0  0  0  0
    2.1516   -3.7034    0.0000 C   0  0  0  0  0  0  0  0  0  0  0  0
    1.4371   -4.1159    0.0000 C   0  0  0  0  0  0  0  0  0  0  0  0
    1.4371   -4.9409    0.0000 C   0  0  0  0  0  0  0  0  0  0  0  0
    0.7227   -5.3534    0.0000 C   0  0  0  0  0  0  0  0  0  0  0  0
    0.0082   -4.9409    0.0000 C   0  0  0  0  0  0  0  0  0  0  0  0
   -0.7063   -5.3534    0.0000 Cl  0  0  0  0  0  0  0  0  0  0  0  0
    0.0082   -4.1159    0.0000 C   0  0  0  0  0  0  0  0  0  0  0  0
    0.7227   -3.7034    0.0000 C   0  0  0  0  0  0  0  0  0  0  0  0
    2.8661   -4.1159    0.0000 C   0  0  0  0  0  0  0  0  0  0  0  0
    3.5806   -4.5284    0.0000 Cl  0  0  0  0  0  0  0  0  0  0  0  0
    2.4536   -4.8304    0.0000 Cl  0  0  0  0  0  0  0  0  0  0  0  0
    3.2786   -3.4014    0.0000 Cl  0  0  0  0  0  0  0  0  0  0  0  0
    3.5806   -1.2284    0.0000 H   0  0  0  0  0  0  0  0  0  0  0  0
    3.5806   -2.8784    0.0000 H   0  0  0  0  0  0  0  0  0  0  0  0
    0.7227   -2.8784    0.0000 H   0  0  0  0  0  0  0  0  0  0  0  0
    0.7227   -1.2284    0.0000 H   0  0  0  0  0  0  0  0  0  0  0  0
    1.4371   -3.2909    0.0000 H   0  0  0  0  0  0  0  0  0  0  0  0
    2.1516   -5.3534    0.0000 H   0  0  0  0  0  0  0  0  0  0  0  0
    0.7227   -6.1784    0.0000 H   0  0  0  0  0  0  0  0  0  0  0  0
   -0.7063   -3.7034    0.0000 H   0  0  0  0  0  0  0  0  0  0  0  0
    0.0082   -3.2909    0.0000 H   0  0  0  0  0  0  0  0  0  0  0  0
  1  2  1  0  0  0  0
  2  3  4  0  0  0  0
  3  4  4  0  0  0  0
  4  5  4  0  0  0  0
  5  6  4  0  0  0  0
  6  7  4  0  0  0  0
  2  7  4  0  0  0  0
  5  8  1  0  0  0  0
  8  9  1  0  0  0  0
  9 10  4  0  0  0  0
 10 11  4  0  0  0  0
 11 12  4  0  0  0  0
 12 13  1  0  0  0  0
 12 14  4  0  0  0  0
 14 15  4  0  0  0  0
  9 15  4  0  0  0  0
  8 16  1  0  0  0  0
 16 17  1  0  0  0  0
 16 18  1  0  0  0  0
 16 19  1  0  0  0  0
  3 20  1  0  0  0  0
  4 21  1  0  0  0  0
  6 22  1  0  0  0  0
  7 23  1  0  0  0  0
  8 24  1  0  0  0  0
 10 25  1  0  0  0  0
 11 26  1  0  0  0  0
 14 27  1  0  0  0  0
 15 28  1  0  0  0  0
M  END
>  <InChIKey>
InChI=1S/C14H9Cl5/c15-11-5-1-9(2-6-11)13(14(17,18)19)10-3-7-12(16)8-4-10/h1-8,13H

>  <CASRN>
50-29-3

> <Outcome>
1

>  <Index>
3424

>  <StandardizerResult>
Dearomatize (ID: Dearomatize)
Clear Stereo (ID: ClearStereo)
Wedge Clean (ID: WedgeClean)
Mesomerize (ID: Mesomerize)
Tautomerize (ID: Tautomerize)
Aromatize (ID: Aromatize)
Add Explicit Hydrogens (ID: AddExplicitH)
Neutralize (ID: Neutralize)
Clean 2D (ID: Clean2D)

> <knn Distance>


> <CpId>
3424

$$$$
3434
  Mrv1532301301811342D          

 64 64  0  0  0  0            999 V2000
    5.6570   -9.0849    0.0000 C   0  0  0  0  0  0  0  0  0  0  0  0
    6.3715   -9.4974    0.0000 C   0  0  0  0  0  0  0  0  0  0  0  0
    7.0860   -9.0849    0.0000 C   0  0  0  0  0  0  0  0  0  0  0  0
    7.8005   -9.4974    0.0000 C   0  0  0  0  0  0  0  0  0  0  0  0
    8.5149   -9.0849    0.0000 C   0  0  0  0  0  0  0  0  0  0  0  0
    9.2294   -9.4974    0.0000 C   0  0  0  0  0  0  0  0  0  0  0  0
    9.9439   -9.0849    0.0000 C   0  0  0  0  0  0  0  0  0  0  0  0
   10.6583   -9.4974    0.0000 C   0  0  0  0  0  0  0  0  0  0  0  0
   11.3728   -9.0849    0.0000 C   0  0  0  0  0  0  0  0  0  0  0  0
   12.0873   -9.4974    0.0000 C   0  0  0  0  0  0  0  0  0  0  0  0
   12.8018   -9.0849    0.0000 C   0  0  0  0  0  0  0  0  0  0  0  0
   13.5162   -9.4974    0.0000 C   0  0  0  0  0  0  0  0  0  0  0  0
   14.2307   -9.0849    0.0000 N   0  3  0  0  0  0  0  0  0  0  0  0
   14.6432   -9.7993    0.0000 C   0  0  0  0  0  0  0  0  0  0  0  0
   13.8182   -8.3704    0.0000 C   0  0  0  0  0  0  0  0  0  0  0  0
   14.9452   -8.6724    0.0000 C   0  0  0  0  0  0  0  0  0  0  0  0
   15.6596   -9.0849    0.0000 C   0  0  0  0  0  0  0  0  0  0  0  0
   16.3741   -8.6724    0.0000 O   0  0  0  0  0  0  0  0  0  0  0  0
   17.0886   -9.0849    0.0000 C   0  0  0  0  0  0  0  0  0  0  0  0
   17.8031   -8.6724    0.0000 C   0  0  0  0  0  0  0  0  0  0  0  0
   18.5175   -9.0849    0.0000 C   0  0  0  0  0  0  0  0  0  0  0  0
   18.5175   -9.9099    0.0000 C   0  0  0  0  0  0  0  0  0  0  0  0
   17.8031  -10.3224    0.0000 C   0  0  0  0  0  0  0  0  0  0  0  0
   17.0886   -9.9099    0.0000 C   0  0  0  0  0  0  0  0  0  0  0  0
    6.0695   -8.3704    0.0000 H   0  0  0  0  0  0  0  0  0  0  0  0
    4.9426   -8.6724    0.0000 H   0  0  0  0  0  0  0  0  0  0  0  0
    5.2445   -9.7993    0.0000 H   0  0  0  0  0  0  0  0  0  0  0  0
    6.0013  -10.2346    0.0000 H   0  0  0  0  0  0  0  0  0  0  0  0
    6.7418  -10.2346    0.0000 H   0  0  0  0  0  0  0  0  0  0  0  0
    7.4563   -8.3476    0.0000 H   0  0  0  0  0  0  0  0  0  0  0  0
    6.7157   -8.3476    0.0000 H   0  0  0  0  0  0  0  0  0  0  0  0
    7.4302  -10.2346    0.0000 H   0  0  0  0  0  0  0  0  0  0  0  0
    8.1707  -10.2346    0.0000 H   0  0  0  0  0  0  0  0  0  0  0  0
    8.8852   -8.3476    0.0000 H   0  0  0  0  0  0  0  0  0  0  0  0
    8.1447   -8.3476    0.0000 H   0  0  0  0  0  0  0  0  0  0  0  0
    8.8591  -10.2346    0.0000 H   0  0  0  0  0  0  0  0  0  0  0  0
    9.5997  -10.2346    0.0000 H   0  0  0  0  0  0  0  0  0  0  0  0
   10.3141   -8.3476    0.0000 H   0  0  0  0  0  0  0  0  0  0  0  0
    9.5736   -8.3476    0.0000 H   0  0  0  0  0  0  0  0  0  0  0  0
   10.2881  -10.2346    0.0000 H   0  0  0  0  0  0  0  0  0  0  0  0
   11.0286  -10.2346    0.0000 H   0  0  0  0  0  0  0  0  0  0  0  0
   11.7431   -8.3476    0.0000 H   0  0  0  0  0  0  0  0  0  0  0  0
   11.0026   -8.3476    0.0000 H   0  0  0  0  0  0  0  0  0  0  0  0
   11.7170  -10.2346    0.0000 H   0  0  0  0  0  0  0  0  0  0  0  0
   12.4575  -10.2346    0.0000 H   0  0  0  0  0  0  0  0  0  0  0  0
   13.1720   -8.3476    0.0000 H   0  0  0  0  0  0  0  0  0  0  0  0
   12.4315   -8.3476    0.0000 H   0  0  0  0  0  0  0  0  0  0  0  0
   13.1460  -10.2346    0.0000 H   0  0  0  0  0  0  0  0  0  0  0  0
   13.8865  -10.2346    0.0000 H   0  0  0  0  0  0  0  0  0  0  0  0
   14.7499  -10.6174    0.0000 H   0  0  0  0  0  0  0  0  0  0  0  0
   15.4399  -10.0135    0.0000 H   0  0  0  0  0  0  0  0  0  0  0  0
   15.1457   -9.1450    0.0000 H   0  0  0  0  0  0  0  0  0  0  0  0
   14.6432   -8.3777    0.0000 H   0  0  0  0  0  0  0  0  0  0  0  0
   14.2432   -7.6633    0.0000 H   0  0  0  0  0  0  0  0  0  0  0  0
   13.4247   -7.6453    0.0000 H   0  0  0  0  0  0  0  0  0  0  0  0
   15.6914   -8.3207    0.0000 H   0  0  0  0  0  0  0  0  0  0  0  0
   15.0818   -7.8588    0.0000 H   0  0  0  0  0  0  0  0  0  0  0  0
   16.0861   -9.7911    0.0000 H   0  0  0  0  0  0  0  0  0  0  0  0
   16.4586   -9.2906    0.0000 H   0  0  0  0  0  0  0  0  0  0  0  0
   17.8031   -7.8474    0.0000 H   0  0  0  0  0  0  0  0  0  0  0  0
   19.2320   -8.6724    0.0000 H   0  0  0  0  0  0  0  0  0  0  0  0
   19.2320  -10.3224    0.0000 H   0  0  0  0  0  0  0  0  0  0  0  0
   17.8031  -11.1474    0.0000 H   0  0  0  0  0  0  0  0  0  0  0  0
   16.5892  -10.5665    0.0000 H   0  0  0  0  0  0  0  0  0  0  0  0
  1  2  1  0  0  0  0
  2  3  1  0  0  0  0
  3  4  1  0  0  0  0
  4  5  1  0  0  0  0
  5  6  1  0  0  0  0
  6  7  1  0  0  0  0
  7  8  1  0  0  0  0
  8  9  1  0  0  0  0
  9 10  1  0  0  0  0
 10 11  1  0  0  0  0
 11 12  1  0  0  0  0
 12 13  1  0  0  0  0
 13 14  1  0  0  0  0
 13 15  1  0  0  0  0
 13 16  1  0  0  0  0
 16 17  1  0  0  0  0
 17 18  1  0  0  0  0
 18 19  1  0  0  0  0
 19 20  4  0  0  0  0
 20 21  4  0  0  0  0
 21 22  4  0  0  0  0
 22 23  4  0  0  0  0
 23 24  4  0  0  0  0
 19 24  4  0  0  0  0
  1 25  1  0  0  0  0
  1 26  1  0  0  0  0
  1 27  1  0  0  0  0
  2 28  1  0  0  0  0
  2 29  1  0  0  0  0
  3 30  1  0  0  0  0
  3 31  1  0  0  0  0
  4 32  1  0  0  0  0
  4 33  1  0  0  0  0
  5 34  1  0  0  0  0
  5 35  1  0  0  0  0
  6 36  1  0  0  0  0
  6 37  1  0  0  0  0
  7 38  1  0  0  0  0
  7 39  1  0  0  0  0
  8 40  1  0  0  0  0
  8 41  1  0  0  0  0
  9 42  1  0  0  0  0
  9 43  1  0  0  0  0
 10 44  1  0  0  0  0
 10 45  1  0  0  0  0
 11 46  1  0  0  0  0
 11 47  1  0  0  0  0
 12 48  1  0  0  0  0
 12 49  1  0  0  0  0
 14 50  1  0  0  0  0
 14 51  1  0  0  0  0
 14 52  1  0  0  0  0
 15 53  1  0  0  0  0
 15 54  1  0  0  0  0
 15 55  1  0  0  0  0
 16 56  1  0  0  0  0
 16 57  1  0  0  0  0
 17 58  1  0  0  0  0
 17 59  1  0  0  0  0
 20 60  1  0  0  0  0
 21 61  1  0  0  0  0
 22 62  1  0  0  0  0
 23 63  1  0  0  0  0
 24 64  1  0  0  0  0
M  CHG  1  13   1
M  END
>  <InChIKey>
InChI=1S/C22H40NO/c1-4-5-6-7-8-9-10-11-12-16-19-23(2,3)20-21-24-22-17-14-13-15-18-22/h13-15,17-18H,4-12,16,19-21H2,1-3H3/q+1

>  <UN GHS>
1

>  <CASRN>
538-71-6

> <Outcome>
1

>  <Index>
3434

>  <StandardizerResult>
Dearomatize (ID: Dearomatize)
Clear Stereo (ID: ClearStereo)
Wedge Clean (ID: WedgeClean)
Mesomerize (ID: Mesomerize)
Tautomerize (ID: Tautomerize)
Aromatize (ID: Aromatize)
Add Explicit Hydrogens (ID: AddExplicitH)
Clean 2D (ID: Clean2D)

> <knn Distance>


> <CpId>
3434

$$$$
3435
  Mrv1532301301811342D          

 24 24  0  0  0  0            999 V2000
    0.0633    3.3406    0.0000 C   0  0  0  0  0  0  0  0  0  0  0  0
    0.0633    2.5156    0.0000 C   0  0  0  0  0  0  0  0  0  0  0  0
   -0.6512    2.1031    0.0000 O   0  0  0  0  0  0  0  0  0  0  0  0
    0.7777    2.1031    0.0000 O   0  0  0  0  0  0  0  0  0  0  0  0
    0.7777    1.2781    0.0000 C   0  0  0  0  0  0  0  0  0  0  0  0
    1.4922    0.8656    0.0000 C   0  0  0  0  0  0  0  0  0  0  0  0
    1.4922    0.0406    0.0000 C   0  0  0  0  0  0  0  0  0  0  0  0
    0.7777   -0.3719    0.0000 C   0  0  0  0  0  0  0  0  0  0  0  0
    0.0633    0.0406    0.0000 C   0  0  0  0  0  0  0  0  0  0  0  0
    0.0633    0.8656    0.0000 C   0  0  0  0  0  0  0  0  0  0  0  0
    0.8883    3.3406    0.0000 H   0  0  0  0  0  0  0  0  0  0  0  0
    0.0633    4.1656    0.0000 H   0  0  0  0  0  0  0  0  0  0  0  0
   -0.7617    3.3406    0.0000 H   0  0  0  0  0  0  0  0  0  0  0  0
    0.0633    1.6906    0.0000 H   0  0  0  0  0  0  0  0  0  0  0  0
    2.3158    0.9136    0.0000 H   0  0  0  0  0  0  0  0  0  0  0  0
    1.9456    1.5549    0.0000 H   0  0  0  0  0  0  0  0  0  0  0  0
    1.9456   -0.6487    0.0000 H   0  0  0  0  0  0  0  0  0  0  0  0
    2.3158   -0.0074    0.0000 H   0  0  0  0  0  0  0  0  0  0  0  0
    0.4075   -1.1091    0.0000 H   0  0  0  0  0  0  0  0  0  0  0  0
    1.1480   -1.1091    0.0000 H   0  0  0  0  0  0  0  0  0  0  0  0
   -0.7603   -0.0074    0.0000 H   0  0  0  0  0  0  0  0  0  0  0  0
   -0.3901   -0.6487    0.0000 H   0  0  0  0  0  0  0  0  0  0  0  0
   -0.7120    1.1478    0.0000 H   0  0  0  0  0  0  0  0  0  0  0  0
   -0.7120    0.5834    0.0000 H   0  0  0  0  0  0  0  0  0  0  0  0
  1  2  1  0  0  0  0
  2  3  2  0  0  0  0
  2  4  1  0  0  0  0
  4  5  1  0  0  0  0
  5  6  1  0  0  0  0
  6  7  1  0  0  0  0
  7  8  1  0  0  0  0
  8  9  1  0  0  0  0
  9 10  1  0  0  0  0
  5 10  1  0  0  0  0
  1 11  1  0  0  0  0
  1 12  1  0  0  0  0
  1 13  1  0  0  0  0
  5 14  1  0  0  0  0
  6 15  1  0  0  0  0
  6 16  1  0  0  0  0
  7 17  1  0  0  0  0
  7 18  1  0  0  0  0
  8 19  1  0  0  0  0
  8 20  1  0  0  0  0
  9 21  1  0  0  0  0
  9 22  1  0  0  0  0
 10 23  1  0  0  0  0
 10 24  1  0  0  0  0
M  END
>  <InChIKey>
InChI=1S/C8H14O2/c1-7(9)10-8-5-3-2-4-6-8/h8H,2-6H2,1H3

>  <CASRN>
622-45-7

> <Outcome>
1

>  <Index>
3435

>  <StandardizerResult>
Clear Stereo (ID: ClearStereo)
Wedge Clean (ID: WedgeClean)
Mesomerize (ID: Mesomerize)
Tautomerize (ID: Tautomerize)
Add Explicit Hydrogens (ID: AddExplicitH)
Neutralize (ID: Neutralize)
Clean 2D (ID: Clean2D)

> <knn Distance>


> <CpId>
3435

$$$$
3438
  Mrv1532301301811342D          

 12 11  0  0  0  0            999 V2000
    0.1118   -2.0632    0.0000 C   0  0  0  0  0  0  0  0  0  0  0  0
    0.1118   -1.2382    0.0000 C   0  0  0  0  0  0  0  0  0  0  0  0
    0.8263   -0.8257    0.0000 O   0  0  0  0  0  0  0  0  0  0  0  0
    0.8263   -0.0007    0.0000 P   0  0  0  0  0  0  0  0  0  0  0  0
    0.8263    0.8243    0.0000 Cl  0  0  0  0  0  0  0  0  0  0  0  0
    1.6513   -0.0007    0.0000 Cl  0  0  0  0  0  0  0  0  0  0  0  0
    0.0013   -0.0007    0.0000 O   0  0  0  0  0  0  0  0  0  0  0  0
   -0.7132   -2.0632    0.0000 H   0  0  0  0  0  0  0  0  0  0  0  0
    0.1118   -2.8882    0.0000 H   0  0  0  0  0  0  0  0  0  0  0  0
    0.9368   -2.0632    0.0000 H   0  0  0  0  0  0  0  0  0  0  0  0
   -0.3416   -0.5490    0.0000 H   0  0  0  0  0  0  0  0  0  0  0  0
   -0.7118   -1.1903    0.0000 H   0  0  0  0  0  0  0  0  0  0  0  0
  1  2  1  0  0  0  0
  2  3  1  0  0  0  0
  3  4  1  0  0  0  0
  4  5  1  0  0  0  0
  4  6  1  0  0  0  0
  4  7  2  0  0  0  0
  1  8  1  0  0  0  0
  1  9  1  0  0  0  0
  1 10  1  0  0  0  0
  2 11  1  0  0  0  0
  2 12  1  0  0  0  0
M  END
>  <InChIKey>
InChI=1S/C2H5Cl2O2P/c1-2-6-7(3,4)5/h2H2,1H3

>  <UN GHS>
1

>  <CASRN>
1498-51-7

> <Outcome>
1

>  <Index>
3438

>  <StandardizerResult>
Clear Stereo (ID: ClearStereo)
Wedge Clean (ID: WedgeClean)
Mesomerize (ID: Mesomerize)
Tautomerize (ID: Tautomerize)
Add Explicit Hydrogens (ID: AddExplicitH)
Neutralize (ID: Neutralize)
Clean 2D (ID: Clean2D)

> <knn Distance>


> <CpId>
3438

$$$$
3441
  Mrv1532301301811342D          

 21 20  0  0  0  0            999 V2000
    1.2499    2.2195    0.0000 C   0  0  0  0  0  0  0  0  0  0  0  0
    0.8374    1.5051    0.0000 C   0  0  0  0  0  0  0  0  0  0  0  0
    0.0124    1.5051    0.0000 C   0  0  0  0  0  0  0  0  0  0  0  0
    1.2499    0.7906    0.0000 O   0  0  0  0  0  0  0  0  0  0  0  0
    0.8374    0.0761    0.0000 C   0  0  0  0  0  0  0  0  0  0  0  0
    1.2499   -0.6383    0.0000 C   0  0  0  0  0  0  0  0  0  0  0  0
    0.0124    0.0761    0.0000 C   0  0  0  0  0  0  0  0  0  0  0  0
    1.9644    1.8070    0.0000 H   0  0  0  0  0  0  0  0  0  0  0  0
    1.6624    2.9340    0.0000 H   0  0  0  0  0  0  0  0  0  0  0  0
    0.5354    2.6320    0.0000 H   0  0  0  0  0  0  0  0  0  0  0  0
    0.4249    2.2195    0.0000 H   0  0  0  0  0  0  0  0  0  0  0  0
   -0.5710    2.0884    0.0000 H   0  0  0  0  0  0  0  0  0  0  0  0
   -0.7021    1.0926    0.0000 H   0  0  0  0  0  0  0  0  0  0  0  0
    0.2259    0.7082    0.0000 H   0  0  0  0  0  0  0  0  0  0  0  0
    1.6624    0.0761    0.0000 H   0  0  0  0  0  0  0  0  0  0  0  0
    0.4530   -0.8519    0.0000 H   0  0  0  0  0  0  0  0  0  0  0  0
    1.2499   -1.4633    0.0000 H   0  0  0  0  0  0  0  0  0  0  0  0
    2.0468   -0.8519    0.0000 H   0  0  0  0  0  0  0  0  0  0  0  0
   -0.6508    0.5669    0.0000 H   0  0  0  0  0  0  0  0  0  0  0  0
   -0.6579   -0.4049    0.0000 H   0  0  0  0  0  0  0  0  0  0  0  0
    0.2650   -0.7092    0.0000 H   0  0  0  0  0  0  0  0  0  0  0  0
  1  2  1  0  0  0  0
  2  3  1  0  0  0  0
  2  4  1  0  0  0  0
  4  5  1  0  0  0  0
  5  6  1  0  0  0  0
  5  7  1  0  0  0  0
  1  8  1  0  0  0  0
  1  9  1  0  0  0  0
  1 10  1  0  0  0  0
  2 11  1  0  0  0  0
  3 12  1  0  0  0  0
  3 13  1  0  0  0  0
  3 14  1  0  0  0  0
  5 15  1  0  0  0  0
  6 16  1  0  0  0  0
  6 17  1  0  0  0  0
  6 18  1  0  0  0  0
  7 19  1  0  0  0  0
  7 20  1  0  0  0  0
  7 21  1  0  0  0  0
M  END
>  <InChIKey>
InChI=1S/C6H14O/c1-5(2)7-6(3)4/h5-6H,1-4H3

>  <CASRN>
108-20-3

> <Outcome>
1

>  <Index>
3441

>  <StandardizerResult>
Clear Stereo (ID: ClearStereo)
Wedge Clean (ID: WedgeClean)
Mesomerize (ID: Mesomerize)
Tautomerize (ID: Tautomerize)
Add Explicit Hydrogens (ID: AddExplicitH)
Neutralize (ID: Neutralize)
Clean 2D (ID: Clean2D)

> <knn Distance>


> <CpId>
3441

$$$$
3451
  Mrv1532301301811342D          

 48 49  0  0  0  0            999 V2000
   -1.9331    0.6265    0.0000 C   0  0  0  0  0  0  0  0  0  0  0  0
   -1.9331   -0.1985    0.0000 C   0  0  0  0  0  0  0  0  0  0  0  0
   -2.6476   -0.6110    0.0000 C   0  0  0  0  0  0  0  0  0  0  0  0
   -1.2186   -0.6110    0.0000 C   0  0  0  0  0  0  0  0  0  0  0  0
   -1.2186   -1.4360    0.0000 C   0  0  0  0  0  0  0  0  0  0  0  0
   -0.8061   -2.1504    0.0000 C   0  0  0  0  0  0  0  0  0  0  0  0
   -0.0917   -2.5629    0.0000 C   0  0  0  0  0  0  0  0  0  0  0  0
    0.6228   -2.1504    0.0000 O   0  0  0  0  0  0  0  0  0  0  0  0
   -0.0917   -3.3879    0.0000 O   0  0  0  0  0  0  0  0  0  0  0  0
    0.6228   -3.8004    0.0000 C   0  0  0  0  0  0  0  0  0  0  0  0
    1.3765   -3.4649    0.0000 C   0  0  0  0  0  0  0  0  0  0  0  0
    1.9285   -4.0780    0.0000 C   0  0  0  0  0  0  0  0  0  0  0  0
    2.7490   -3.9917    0.0000 O   0  0  0  0  0  0  0  0  0  0  0  0
    1.5160   -4.7924    0.0000 C   0  0  0  0  0  0  0  0  0  0  0  0
    1.8516   -5.5461    0.0000 C   0  0  0  0  0  0  0  0  0  0  0  0
    1.3666   -6.2136    0.0000 C   0  0  0  0  0  0  0  0  0  0  0  0
    1.7022   -6.9672    0.0000 C   0  0  0  0  0  0  0  0  0  0  0  0
    0.7090   -4.6209    0.0000 C   0  0  0  0  0  0  0  0  0  0  0  0
    0.0959   -5.1729    0.0000 C   0  0  0  0  0  0  0  0  0  0  0  0
   -1.6311   -2.1504    0.0000 C   0  0  0  0  0  0  0  0  0  0  0  0
   -1.9798   -2.8981    0.0000 C   0  0  0  0  0  0  0  0  0  0  0  0
   -2.4530   -2.0785    0.0000 C   0  0  0  0  0  0  0  0  0  0  0  0
   -1.1081    0.6265    0.0000 H   0  0  0  0  0  0  0  0  0  0  0  0
   -1.9331    1.4515    0.0000 H   0  0  0  0  0  0  0  0  0  0  0  0
   -2.7581    0.6265    0.0000 H   0  0  0  0  0  0  0  0  0  0  0  0
   -3.0601    0.1035    0.0000 H   0  0  0  0  0  0  0  0  0  0  0  0
   -3.3620   -1.0235    0.0000 H   0  0  0  0  0  0  0  0  0  0  0  0
   -2.2351   -1.3254    0.0000 H   0  0  0  0  0  0  0  0  0  0  0  0
   -0.5042   -0.1985    0.0000 H   0  0  0  0  0  0  0  0  0  0  0  0
   -2.0155   -1.2224    0.0000 H   0  0  0  0  0  0  0  0  0  0  0  0
   -0.2228   -1.5671    0.0000 H   0  0  0  0  0  0  0  0  0  0  0  0
   -0.0691   -4.2498    0.0000 H   0  0  0  0  0  0  0  0  0  0  0  0
    1.9068   -2.8329    0.0000 H   0  0  0  0  0  0  0  0  0  0  0  0
    1.1491   -2.6718    0.0000 H   0  0  0  0  0  0  0  0  0  0  0  0
    2.5461   -5.9914    0.0000 H   0  0  0  0  0  0  0  0  0  0  0  0
    2.6235   -5.2550    0.0000 H   0  0  0  0  0  0  0  0  0  0  0  0
    0.5462   -6.1273    0.0000 H   0  0  0  0  0  0  0  0  0  0  0  0
    1.2173   -7.6347    0.0000 H   0  0  0  0  0  0  0  0  0  0  0  0
    2.5227   -7.0535    0.0000 H   0  0  0  0  0  0  0  0  0  0  0  0
   -0.7266   -5.1097    0.0000 H   0  0  0  0  0  0  0  0  0  0  0  0
   -0.1717   -5.9533    0.0000 H   0  0  0  0  0  0  0  0  0  0  0  0
    0.7842   -5.6279    0.0000 H   0  0  0  0  0  0  0  0  0  0  0  0
   -2.7718   -3.1290    0.0000 H   0  0  0  0  0  0  0  0  0  0  0  0
   -1.9438   -3.7224    0.0000 H   0  0  0  0  0  0  0  0  0  0  0  0
   -1.1706   -3.0591    0.0000 H   0  0  0  0  0  0  0  0  0  0  0  0
   -2.9877   -1.4502    0.0000 H   0  0  0  0  0  0  0  0  0  0  0  0
   -3.2720   -2.1781    0.0000 H   0  0  0  0  0  0  0  0  0  0  0  0
   -2.8216   -2.8166    0.0000 H   0  0  0  0  0  0  0  0  0  0  0  0
  1  2  1  0  0  0  0
  2  3  1  0  0  0  0
  2  4  2  0  0  0  0
  4  5  1  0  0  0  0
  5  6  1  0  0  0  0
  6  7  1  0  0  0  0
  7  8  2  0  0  0  0
  7  9  1  0  0  0  0
  9 10  1  0  0  0  0
 10 11  1  0  0  0  0
 11 12  1  0  0  0  0
 12 13  2  0  0  0  0
 12 14  1  0  0  0  0
 14 15  1  0  0  0  0
 15 16  1  0  0  0  0
 16 17  2  0  0  0  0
 14 18  2  0  0  0  0
 10 18  1  0  0  0  0
 18 19  1  0  0  0  0
  6 20  1  0  0  0  0
  5 20  1  0  0  0  0
 20 21  1  0  0  0  0
 20 22  1  0  0  0  0
  1 23  1  0  0  0  0
  1 24  1  0  0  0  0
  1 25  1  0  0  0  0
  3 26  1  0  0  0  0
  3 27  1  0  0  0  0
  3 28  1  0  0  0  0
  4 29  1  0  0  0  0
  5 30  1  0  0  0  0
  6 31  1  0  0  0  0
 10 32  1  0  0  0  0
 11 33  1  0  0  0  0
 11 34  1  0  0  0  0
 15 35  1  0  0  0  0
 15 36  1  0  0  0  0
 16 37  1  0  0  0  0
 17 38  1  0  0  0  0
 17 39  1  0  0  0  0
 19 40  1  0  0  0  0
 19 41  1  0  0  0  0
 19 42  1  0  0  0  0
 21 43  1  0  0  0  0
 21 44  1  0  0  0  0
 21 45  1  0  0  0  0
 22 46  1  0  0  0  0
 22 47  1  0  0  0  0
 22 48  1  0  0  0  0
M  END
>  <InChIKey>
InChI=1S/C19H26O3/c1-7-8-13-12(4)16(10-15(13)20)22-18(21)17-14(9-11(2)3)19(17,5)6/h7,9,14,16-17H,1,8,10H2,2-6H3

>  <UN GHS>
2B

>  <CASRN>
28434-00-6

> <Outcome>
1

>  <Index>
3451

>  <StandardizerResult>
Clear Stereo (ID: ClearStereo)
Wedge Clean (ID: WedgeClean)
Mesomerize (ID: Mesomerize)
Tautomerize (ID: Tautomerize)
Add Explicit Hydrogens (ID: AddExplicitH)
Neutralize (ID: Neutralize)
Clean 2D (ID: Clean2D)

> <knn Distance>


> <CpId>
3451

$$$$
3453
  Mrv1532301301811342D          

 37 41  0  0  0  0            999 V2000
    0.9860    3.5559    0.0000 O   0  0  0  0  0  0  0  0  0  0  0  0
    1.3218    2.8023    0.0000 C   0  0  0  0  0  0  0  0  0  0  0  0
    0.8370    2.1348    0.0000 C   0  0  0  0  0  0  0  0  0  0  0  0
    1.1728    1.3812    0.0000 C   0  0  0  0  0  0  0  0  0  0  0  0
    1.9933    1.2952    0.0000 C   0  0  0  0  0  0  0  0  0  0  0  0
    2.4780    1.9628    0.0000 C   0  0  0  0  0  0  0  0  0  0  0  0
    3.2985    1.8768    0.0000 O   0  0  0  0  0  0  0  0  0  0  0  0
    3.6343    1.1232    0.0000 C   0  0  0  0  0  0  0  0  0  0  0  0
    4.4548    1.0372    0.0000 C   0  0  0  0  0  0  0  0  0  0  0  0
    4.9395    1.7048    0.0000 Br  0  0  0  0  0  0  0  0  0  0  0  0
    4.7906    0.2836    0.0000 C   0  0  0  0  0  0  0  0  0  0  0  0
    5.6111    0.1976    0.0000 O   0  0  0  0  0  0  0  0  0  0  0  0
    4.3059   -0.3840    0.0000 C   0  0  0  0  0  0  0  0  0  0  0  0
    3.4854   -0.2980    0.0000 C   0  0  0  0  0  0  0  0  0  0  0  0
    3.1496    0.4556    0.0000 C   0  0  0  0  0  0  0  0  0  0  0  0
    2.3291    0.5416    0.0000 C   0  0  0  0  0  0  0  0  0  0  0  0
    2.5842   -0.2429    0.0000 O   0  0  0  0  0  0  0  0  0  0  0  0
    1.9169   -0.7281    0.0000 C   0  0  0  0  0  0  0  0  0  0  0  0
    1.9172   -1.5531    0.0000 O   0  0  0  0  0  0  0  0  0  0  0  0
    1.2494   -0.2433    0.0000 C   0  0  0  0  0  0  0  0  0  0  0  0
    0.4424   -0.4151    0.0000 C   0  0  0  0  0  0  0  0  0  0  0  0
   -0.1098    0.1978    0.0000 C   0  0  0  0  0  0  0  0  0  0  0  0
    0.1449    0.9825    0.0000 C   0  0  0  0  0  0  0  0  0  0  0  0
    0.9519    1.1543    0.0000 C   0  0  0  0  0  0  0  0  0  0  0  0
    1.5041    0.5414    0.0000 C   0  0  0  0  0  0  0  0  0  0  0  0
    2.1423    2.7163    0.0000 C   0  0  0  0  0  0  0  0  0  0  0  0
    2.6270    3.3839    0.0000 Br  0  0  0  0  0  0  0  0  0  0  0  0
    1.4707    4.2235    0.0000 H   0  0  0  0  0  0  0  0  0  0  0  0
    0.0165    2.2208    0.0000 H   0  0  0  0  0  0  0  0  0  0  0  0
    1.6575    2.0488    0.0000 H   0  0  0  0  0  0  0  0  0  0  0  0
    5.9469   -0.5560    0.0000 H   0  0  0  0  0  0  0  0  0  0  0  0
    4.6416   -1.1376    0.0000 H   0  0  0  0  0  0  0  0  0  0  0  0
    3.4172   -1.1202    0.0000 H   0  0  0  0  0  0  0  0  0  0  0  0
    0.1877   -1.1998    0.0000 H   0  0  0  0  0  0  0  0  0  0  0  0
   -0.9167    0.0261    0.0000 H   0  0  0  0  0  0  0  0  0  0  0  0
   -0.4073    1.5955    0.0000 H   0  0  0  0  0  0  0  0  0  0  0  0
    0.5533    1.8766    0.0000 H   0  0  0  0  0  0  0  0  0  0  0  0
  1  2  1  0  0  0  0
  2  3  4  0  0  0  0
  3  4  4  0  0  0  0
  4  5  4  0  0  0  0
  5  6  4  0  0  0  0
  6  7  1  0  0  0  0
  7  8  1  0  0  0  0
  8  9  4  0  0  0  0
  9 10  1  0  0  0  0
  9 11  4  0  0  0  0
 11 12  1  0  0  0  0
 11 13  4  0  0  0  0
 13 14  4  0  0  0  0
 14 15  4  0  0  0  0
  8 15  4  0  0  0  0
 15 16  1  0  0  0  0
  5 16  1  0  0  0  0
 16 17  1  0  0  0  0
 17 18  1  0  0  0  0
 18 19  2  0  0  0  0
 18 20  1  0  0  0  0
 20 21  4  0  0  0  0
 21 22  4  0  0  0  0
 22 23  4  0  0  0  0
 23 24  4  0  0  0  0
 24 25  4  0  0  0  0
 16 25  1  0  0  0  0
 20 25  4  0  0  0  0
  6 26  4  0  0  0  0
  2 26  4  0  0  0  0
 26 27  1  0  0  0  0
  1 28  1  0  0  0  0
  3 29  1  0  0  0  0
  4 30  1  0  0  0  0
 12 31  1  0  0  0  0
 13 32  1  0  0  0  0
 14 33  1  0  0  0  0
 21 34  1  0  0  0  0
 22 35  1  0  0  0  0
 23 36  1  0  0  0  0
 24 37  1  0  0  0  0
M  END
>  <InChIKey>
InChI=1S/C20H10Br2O5/c21-15-13(23)7-5-11-17(15)26-18-12(6-8-14(24)16(18)22)20(11)10-4-2-1-3-9(10)19(25)27-20/h1-8,23-24H

>  <CASRN>
596-03-2

> <Outcome>
1

>  <Index>
3453

>  <StandardizerResult>
Dearomatize (ID: Dearomatize)
Clear Stereo (ID: ClearStereo)
Wedge Clean (ID: WedgeClean)
Mesomerize (ID: Mesomerize)
Tautomerize (ID: Tautomerize)
Aromatize (ID: Aromatize)
Add Explicit Hydrogens (ID: AddExplicitH)
Neutralize (ID: Neutralize)
Clean 2D (ID: Clean2D)

> <knn Distance>


> <CpId>
3453

$$$$
3454
  Mrv1532301301811342D          

 25 26  0  0  0  0            999 V2000
    1.4813    0.0063    0.0000 Cl  0  0  0  0  0  0  0  0  0  0  0  0
    2.1958   -0.4062    0.0000 C   0  0  0  0  0  0  0  0  0  0  0  0
    2.1958   -1.2312    0.0000 C   0  0  0  0  0  0  0  0  0  0  0  0
    2.9103   -1.6437    0.0000 C   0  0  0  0  0  0  0  0  0  0  0  0
    2.9103   -2.4687    0.0000 C   0  0  0  0  0  0  0  0  0  0  0  0
    2.1958   -2.8812    0.0000 C   0  0  0  0  0  0  0  0  0  0  0  0
    1.4813   -2.4687    0.0000 C   0  0  0  0  0  0  0  0  0  0  0  0
    1.4813   -1.6437    0.0000 C   0  0  0  0  0  0  0  0  0  0  0  0
    2.9103    0.0063    0.0000 C   0  0  0  0  0  0  0  0  0  0  0  0
    2.9103    0.8313    0.0000 C   0  0  0  0  0  0  0  0  0  0  0  0
    3.6248    1.2438    0.0000 C   0  0  0  0  0  0  0  0  0  0  0  0
    4.3392    0.8313    0.0000 C   0  0  0  0  0  0  0  0  0  0  0  0
    4.3392    0.0063    0.0000 C   0  0  0  0  0  0  0  0  0  0  0  0
    3.6248   -0.4062    0.0000 C   0  0  0  0  0  0  0  0  0  0  0  0
    1.4813   -0.8187    0.0000 H   0  0  0  0  0  0  0  0  0  0  0  0
    3.6248   -1.2312    0.0000 H   0  0  0  0  0  0  0  0  0  0  0  0
    3.6248   -2.8812    0.0000 H   0  0  0  0  0  0  0  0  0  0  0  0
    2.1958   -3.7062    0.0000 H   0  0  0  0  0  0  0  0  0  0  0  0
    0.7669   -2.8812    0.0000 H   0  0  0  0  0  0  0  0  0  0  0  0
    0.6563   -1.6437    0.0000 H   0  0  0  0  0  0  0  0  0  0  0  0
    2.1958    1.2438    0.0000 H   0  0  0  0  0  0  0  0  0  0  0  0
    3.6248    2.0688    0.0000 H   0  0  0  0  0  0  0  0  0  0  0  0
    5.0537    1.2438    0.0000 H   0  0  0  0  0  0  0  0  0  0  0  0
    5.0537   -0.4062    0.0000 H   0  0  0  0  0  0  0  0  0  0  0  0
    2.9103   -0.8187    0.0000 H   0  0  0  0  0  0  0  0  0  0  0  0
  1  2  1  0  0  0  0
  2  3  1  0  0  0  0
  3  4  4  0  0  0  0
  4  5  4  0  0  0  0
  5  6  4  0  0  0  0
  6  7  4  0  0  0  0
  7  8  4  0  0  0  0
  3  8  4  0  0  0  0
  2  9  1  0  0  0  0
  9 10  4  0  0  0  0
 10 11  4  0  0  0  0
 11 12  4  0  0  0  0
 12 13  4  0  0  0  0
 13 14  4  0  0  0  0
  9 14  4  0  0  0  0
  2 15  1  0  0  0  0
  4 16  1  0  0  0  0
  5 17  1  0  0  0  0
  6 18  1  0  0  0  0
  7 19  1  0  0  0  0
  8 20  1  0  0  0  0
 10 21  1  0  0  0  0
 11 22  1  0  0  0  0
 12 23  1  0  0  0  0
 13 24  1  0  0  0  0
 14 25  1  0  0  0  0
M  END
>  <InChIKey>
InChI=1S/C13H11Cl/c14-13(11-7-3-1-4-8-11)12-9-5-2-6-10-12/h1-10,13H

>  <CASRN>
90-99-3

> <Outcome>
1

>  <Index>
3454

>  <StandardizerResult>
Dearomatize (ID: Dearomatize)
Clear Stereo (ID: ClearStereo)
Wedge Clean (ID: WedgeClean)
Mesomerize (ID: Mesomerize)
Tautomerize (ID: Tautomerize)
Aromatize (ID: Aromatize)
Add Explicit Hydrogens (ID: AddExplicitH)
Neutralize (ID: Neutralize)
Clean 2D (ID: Clean2D)

> <knn Distance>


> <CpId>
3454

$$$$
3462
  Mrv1532301301811342D          

 19 19  0  0  0  0            999 V2000
   -0.0000    2.4750    0.0000 C   0  0  0  0  0  0  0  0  0  0  0  0
    0.7145    2.0625    0.0000 O   0  0  0  0  0  0  0  0  0  0  0  0
    0.7145    1.2375    0.0000 C   0  0  0  0  0  0  0  0  0  0  0  0
    1.4289    0.8250    0.0000 C   0  0  0  0  0  0  0  0  0  0  0  0
    1.4289   -0.0000    0.0000 C   0  0  0  0  0  0  0  0  0  0  0  0
    0.7145   -0.4125    0.0000 C   0  0  0  0  0  0  0  0  0  0  0  0
   -0.0000   -0.0000    0.0000 C   0  0  0  0  0  0  0  0  0  0  0  0
   -0.0000    0.8250    0.0000 C   0  0  0  0  0  0  0  0  0  0  0  0
    0.7145   -1.2375    0.0000 C   0  0  0  0  0  0  0  0  0  0  0  0
    1.4289   -1.6500    0.0000 O   0  0  0  0  0  0  0  0  0  0  0  0
   -0.0000   -1.6500    0.0000 O   0  0  0  0  0  0  0  0  0  0  0  0
    0.4125    3.1895    0.0000 H   0  0  0  0  0  0  0  0  0  0  0  0
   -0.7145    2.8875    0.0000 H   0  0  0  0  0  0  0  0  0  0  0  0
   -0.4125    1.7605    0.0000 H   0  0  0  0  0  0  0  0  0  0  0  0
    2.1434    1.2375    0.0000 H   0  0  0  0  0  0  0  0  0  0  0  0
    2.1434   -0.4125    0.0000 H   0  0  0  0  0  0  0  0  0  0  0  0
   -0.7145   -0.4125    0.0000 H   0  0  0  0  0  0  0  0  0  0  0  0
   -0.7145    1.2375    0.0000 H   0  0  0  0  0  0  0  0  0  0  0  0
    1.4289   -2.4750    0.0000 H   0  0  0  0  0  0  0  0  0  0  0  0
  1  2  1  0  0  0  0
  2  3  1  0  0  0  0
  3  4  4  0  0  0  0
  4  5  4  0  0  0  0
  5  6  4  0  0  0  0
  6  7  4  0  0  0  0
  7  8  4  0  0  0  0
  3  8  4  0  0  0  0
  6  9  1  0  0  0  0
  9 10  1  0  0  0  0
  9 11  2  0  0  0  0
  1 12  1  0  0  0  0
  1 13  1  0  0  0  0
  1 14  1  0  0  0  0
  4 15  1  0  0  0  0
  5 16  1  0  0  0  0
  7 17  1  0  0  0  0
  8 18  1  0  0  0  0
 10 19  1  0  0  0  0
M  END
>  <InChIKey>
InChI=1S/C8H8O3/c1-11-7-4-2-6(3-5-7)8(9)10/h2-5H,1H3,(H,9,10)

>  <CASRN>
100-09-4

> <Outcome>
1

>  <Index>
3462

>  <StandardizerResult>
Dearomatize (ID: Dearomatize)
Clear Stereo (ID: ClearStereo)
Wedge Clean (ID: WedgeClean)
Mesomerize (ID: Mesomerize)
Tautomerize (ID: Tautomerize)
Aromatize (ID: Aromatize)
Add Explicit Hydrogens (ID: AddExplicitH)
Neutralize (ID: Neutralize)
Clean 2D (ID: Clean2D)

> <knn Distance>


> <CpId>
3462

$$$$
3463
  Mrv1532301301811342D          

 57 56  0  0  0  0            999 V2000
   -5.8970   -0.9334    0.0000 C   0  0  0  0  0  0  0  0  0  0  0  0
   -5.1826   -0.5209    0.0000 C   0  0  0  0  0  0  0  0  0  0  0  0
   -4.4681   -0.9334    0.0000 C   0  0  0  0  0  0  0  0  0  0  0  0
   -3.7536   -0.5209    0.0000 C   0  0  0  0  0  0  0  0  0  0  0  0
   -3.0391   -0.9334    0.0000 O   0  0  0  0  0  0  0  0  0  0  0  0
   -2.3247   -0.5209    0.0000 C   0  0  0  0  0  0  0  0  0  0  0  0
   -1.6102   -0.9334    0.0000 O   0  0  0  0  0  0  0  0  0  0  0  0
   -2.3247    0.3041    0.0000 C   0  0  0  0  0  0  0  0  0  0  0  0
   -1.6102    0.7166    0.0000 C   0  0  0  0  0  0  0  0  0  0  0  0
   -1.1977    0.0021    0.0000 O   0  0  0  0  0  0  0  0  0  0  0  0
   -0.8957    1.1291    0.0000 C   0  0  0  0  0  0  0  0  0  0  0  0
   -0.1813    0.7166    0.0000 C   0  0  0  0  0  0  0  0  0  0  0  0
   -0.1813   -0.1084    0.0000 O   0  0  0  0  0  0  0  0  0  0  0  0
    0.5332    1.1291    0.0000 O   0  0  0  0  0  0  0  0  0  0  0  0
    1.2477    0.7166    0.0000 C   0  0  0  0  0  0  0  0  0  0  0  0
    1.9622    1.1291    0.0000 C   0  0  0  0  0  0  0  0  0  0  0  0
    2.6766    0.7166    0.0000 C   0  0  0  0  0  0  0  0  0  0  0  0
    3.3911    1.1291    0.0000 C   0  0  0  0  0  0  0  0  0  0  0  0
   -2.0227    1.4311    0.0000 C   0  0  0  0  0  0  0  0  0  0  0  0
   -1.6102    2.1456    0.0000 O   0  0  0  0  0  0  0  0  0  0  0  0
   -2.8477    1.4311    0.0000 O   0  0  0  0  0  0  0  0  0  0  0  0
   -3.2602    2.1456    0.0000 C   0  0  0  0  0  0  0  0  0  0  0  0
   -2.8477    2.8600    0.0000 C   0  0  0  0  0  0  0  0  0  0  0  0
   -3.2602    3.5745    0.0000 C   0  0  0  0  0  0  0  0  0  0  0  0
   -2.8477    4.2890    0.0000 C   0  0  0  0  0  0  0  0  0  0  0  0
   -6.3095   -0.2189    0.0000 H   0  0  0  0  0  0  0  0  0  0  0  0
   -6.6115   -1.3459    0.0000 H   0  0  0  0  0  0  0  0  0  0  0  0
   -5.4845   -1.6479    0.0000 H   0  0  0  0  0  0  0  0  0  0  0  0
   -4.8123    0.2164    0.0000 H   0  0  0  0  0  0  0  0  0  0  0  0
   -5.5528    0.2164    0.0000 H   0  0  0  0  0  0  0  0  0  0  0  0
   -4.8383   -1.6706    0.0000 H   0  0  0  0  0  0  0  0  0  0  0  0
   -4.0978   -1.6706    0.0000 H   0  0  0  0  0  0  0  0  0  0  0  0
   -3.3834    0.2164    0.0000 H   0  0  0  0  0  0  0  0  0  0  0  0
   -4.1239    0.2164    0.0000 H   0  0  0  0  0  0  0  0  0  0  0  0
   -2.7780    0.9934    0.0000 H   0  0  0  0  0  0  0  0  0  0  0  0
   -3.1483    0.3521    0.0000 H   0  0  0  0  0  0  0  0  0  0  0  0
   -1.6102   -0.7123    0.0000 H   0  0  0  0  0  0  0  0  0  0  0  0
   -0.5255    1.8664    0.0000 H   0  0  0  0  0  0  0  0  0  0  0  0
   -1.2660    1.8664    0.0000 H   0  0  0  0  0  0  0  0  0  0  0  0
    0.8774   -0.0206    0.0000 H   0  0  0  0  0  0  0  0  0  0  0  0
    1.6179   -0.0206    0.0000 H   0  0  0  0  0  0  0  0  0  0  0  0
    2.3324    1.8664    0.0000 H   0  0  0  0  0  0  0  0  0  0  0  0
    1.5919    1.8664    0.0000 H   0  0  0  0  0  0  0  0  0  0  0  0
    2.3064   -0.0206    0.0000 H   0  0  0  0  0  0  0  0  0  0  0  0
    3.0469   -0.0206    0.0000 H   0  0  0  0  0  0  0  0  0  0  0  0
    3.8036    0.4146    0.0000 H   0  0  0  0  0  0  0  0  0  0  0  0
    4.1056    1.5416    0.0000 H   0  0  0  0  0  0  0  0  0  0  0  0
    2.9786    1.8436    0.0000 H   0  0  0  0  0  0  0  0  0  0  0  0
   -3.9974    2.5158    0.0000 H   0  0  0  0  0  0  0  0  0  0  0  0
   -3.9974    1.7753    0.0000 H   0  0  0  0  0  0  0  0  0  0  0  0
   -2.1105    2.4898    0.0000 H   0  0  0  0  0  0  0  0  0  0  0  0
   -2.1105    3.2303    0.0000 H   0  0  0  0  0  0  0  0  0  0  0  0
   -3.9974    3.9448    0.0000 H   0  0  0  0  0  0  0  0  0  0  0  0
   -3.9974    3.2042    0.0000 H   0  0  0  0  0  0  0  0  0  0  0  0
   -2.1332    3.8765    0.0000 H   0  0  0  0  0  0  0  0  0  0  0  0
   -2.4352    5.0034    0.0000 H   0  0  0  0  0  0  0  0  0  0  0  0
   -3.5622    4.7015    0.0000 H   0  0  0  0  0  0  0  0  0  0  0  0
  1  2  1  0  0  0  0
  2  3  1  0  0  0  0
  3  4  1  0  0  0  0
  4  5  1  0  0  0  0
  5  6  1  0  0  0  0
  6  7  2  0  0  0  0
  6  8  1  0  0  0  0
  8  9  1  0  0  0  0
  9 10  1  0  0  0  0
  9 11  1  0  0  0  0
 11 12  1  0  0  0  0
 12 13  2  0  0  0  0
 12 14  1  0  0  0  0
 14 15  1  0  0  0  0
 15 16  1  0  0  0  0
 16 17  1  0  0  0  0
 17 18  1  0  0  0  0
  9 19  1  0  0  0  0
 19 20  2  0  0  0  0
 19 21  1  0  0  0  0
 21 22  1  0  0  0  0
 22 23  1  0  0  0  0
 23 24  1  0  0  0  0
 24 25  1  0  0  0  0
  1 26  1  0  0  0  0
  1 27  1  0  0  0  0
  1 28  1  0  0  0  0
  2 29  1  0  0  0  0
  2 30  1  0  0  0  0
  3 31  1  0  0  0  0
  3 32  1  0  0  0  0
  4 33  1  0  0  0  0
  4 34  1  0  0  0  0
  8 35  1  0  0  0  0
  8 36  1  0  0  0  0
 10 37  1  0  0  0  0
 11 38  1  0  0  0  0
 11 39  1  0  0  0  0
 15 40  1  0  0  0  0
 15 41  1  0  0  0  0
 16 42  1  0  0  0  0
 16 43  1  0  0  0  0
 17 44  1  0  0  0  0
 17 45  1  0  0  0  0
 18 46  1  0  0  0  0
 18 47  1  0  0  0  0
 18 48  1  0  0  0  0
 22 49  1  0  0  0  0
 22 50  1  0  0  0  0
 23 51  1  0  0  0  0
 23 52  1  0  0  0  0
 24 53  1  0  0  0  0
 24 54  1  0  0  0  0
 25 55  1  0  0  0  0
 25 56  1  0  0  0  0
 25 57  1  0  0  0  0
M  END
>  <InChIKey>
InChI=1S/C18H32O7/c1-4-7-10-23-15(19)13-18(22,17(21)25-12-9-6-3)14-16(20)24-11-8-5-2/h22H,4-14H2,1-3H3

>  <CASRN>
77-94-1

> <Outcome>
1

>  <Index>
3463

>  <StandardizerResult>
Clear Stereo (ID: ClearStereo)
Wedge Clean (ID: WedgeClean)
Mesomerize (ID: Mesomerize)
Tautomerize (ID: Tautomerize)
Add Explicit Hydrogens (ID: AddExplicitH)
Neutralize (ID: Neutralize)
Clean 2D (ID: Clean2D)

> <knn Distance>


> <CpId>
3463

$$$$
3466
  Mrv1532301301811342D          

 14 13  0  0  0  0            999 V2000
    0.8250    1.4289    0.0000 C   0  0  0  0  0  0  0  0  0  0  0  0
    1.2375    0.7145    0.0000 C   0  0  0  0  0  0  0  0  0  0  0  0
    2.0625    0.7145    0.0000 C   0  0  0  0  0  0  0  0  0  0  0  0
    0.8250   -0.0000    0.0000 C   0  0  0  0  0  0  0  0  0  0  0  0
    1.2375   -0.7145    0.0000 C   0  0  0  0  0  0  0  0  0  0  0  0
   -0.0000   -0.0000    0.0000 O   0  0  0  0  0  0  0  0  0  0  0  0
    1.5395    1.8414    0.0000 H   0  0  0  0  0  0  0  0  0  0  0  0
    0.4125    2.1434    0.0000 H   0  0  0  0  0  0  0  0  0  0  0  0
    0.1105    1.0164    0.0000 H   0  0  0  0  0  0  0  0  0  0  0  0
    2.4750   -0.0000    0.0000 H   0  0  0  0  0  0  0  0  0  0  0  0
    2.4750    1.4289    0.0000 H   0  0  0  0  0  0  0  0  0  0  0  0
    0.5230   -1.1270    0.0000 H   0  0  0  0  0  0  0  0  0  0  0  0
    1.6500   -1.4290    0.0000 H   0  0  0  0  0  0  0  0  0  0  0  0
    1.9520   -0.3020    0.0000 H   0  0  0  0  0  0  0  0  0  0  0  0
  1  2  1  0  0  0  0
  2  3  2  0  0  0  0
  2  4  1  0  0  0  0
  4  5  1  0  0  0  0
  4  6  2  0  0  0  0
  1  7  1  0  0  0  0
  1  8  1  0  0  0  0
  1  9  1  0  0  0  0
  3 10  1  0  0  0  0
  3 11  1  0  0  0  0
  5 12  1  0  0  0  0
  5 13  1  0  0  0  0
  5 14  1  0  0  0  0
M  END
>  <InChIKey>
InChI=1S/C5H8O/c1-4(2)5(3)6/h1H2,2-3H3

>  <CASRN>
814-78-8

> <Outcome>
1

>  <Index>
3466

>  <StandardizerResult>
Clear Stereo (ID: ClearStereo)
Wedge Clean (ID: WedgeClean)
Mesomerize (ID: Mesomerize)
Tautomerize (ID: Tautomerize)
Add Explicit Hydrogens (ID: AddExplicitH)
Neutralize (ID: Neutralize)
Clean 2D (ID: Clean2D)

> <knn Distance>


> <CpId>
3466

$$$$
3467
  Mrv1532301301811342D          

 60 61  0  0  0  0            999 V2000
   -1.4637    0.8839    0.0000 C   0  0  0  0  0  0  0  0  0  0  0  0
   -1.4637    0.0589    0.0000 C   0  0  0  0  0  0  0  0  0  0  0  0
   -0.7492   -0.3536    0.0000 C   0  0  0  0  0  0  0  0  0  0  0  0
   -0.7492   -1.1786    0.0000 C   0  0  0  0  0  0  0  0  0  0  0  0
   -1.4637   -1.5911    0.0000 C   0  0  0  0  0  0  0  0  0  0  0  0
   -2.1782   -1.1786    0.0000 C   0  0  0  0  0  0  0  0  0  0  0  0
   -2.1782   -0.3536    0.0000 C   0  0  0  0  0  0  0  0  0  0  0  0
   -2.8926    0.0589    0.0000 N   0  0  0  0  0  0  0  0  0  0  0  0
   -3.6071   -0.3536    0.0000 C   0  0  0  0  0  0  0  0  0  0  0  0
   -4.3216    0.0589    0.0000 O   0  0  0  0  0  0  0  0  0  0  0  0
   -3.6071   -1.1786    0.0000 C   0  0  0  0  0  0  0  0  0  0  0  0
   -2.8926   -1.5911    0.0000 C   0  0  0  0  0  0  0  0  0  0  0  0
   -2.8926   -2.4161    0.0000 C   0  0  0  0  0  0  0  0  0  0  0  0
   -3.6071   -2.8286    0.0000 C   0  0  0  0  0  0  0  0  0  0  0  0
   -4.3216   -2.4161    0.0000 C   0  0  0  0  0  0  0  0  0  0  0  0
   -5.0360   -2.8286    0.0000 I   0  0  0  0  0  0  0  0  0  0  0  0
   -4.3216   -1.5911    0.0000 C   0  0  0  0  0  0  0  0  0  0  0  0
   -5.0360   -1.1786    0.0000 C   0  0  0  0  0  0  0  0  0  0  0  0
   -5.0360   -0.3536    0.0000 O   0  0  0  0  0  0  0  0  0  0  0  0
   -5.7505   -1.5911    0.0000 N   0  0  0  0  0  0  0  0  0  0  0  0
   -6.4650   -1.1786    0.0000 C   0  0  0  0  0  0  0  0  0  0  0  0
   -6.8775   -1.8931    0.0000 C   0  0  0  0  0  0  0  0  0  0  0  0
   -6.0525   -0.4641    0.0000 C   0  0  0  0  0  0  0  0  0  0  0  0
   -7.1794   -0.7661    0.0000 C   0  0  0  0  0  0  0  0  0  0  0  0
   -7.8939   -1.1786    0.0000 S   0  0  0  0  0  0  0  0  0  0  0  0
   -8.6084   -1.5911    0.0000 C   0  0  0  0  0  0  0  0  0  0  0  0
   -7.4814   -1.8931    0.0000 O   0  0  0  0  0  0  0  0  0  0  0  0
   -8.3064   -0.4641    0.0000 O   0  0  0  0  0  0  0  0  0  0  0  0
   -0.0347   -1.5911    0.0000 C   0  0  0  0  0  0  0  0  0  0  0  0
    0.6797   -2.0036    0.0000 F   0  0  0  0  0  0  0  0  0  0  0  0
    0.3778   -0.8766    0.0000 C   0  0  0  0  0  0  0  0  0  0  0  0
    0.7903   -0.1622    0.0000 F   0  0  0  0  0  0  0  0  0  0  0  0
    1.0922   -1.2891    0.0000 F   0  0  0  0  0  0  0  0  0  0  0  0
   -0.3367   -0.4641    0.0000 F   0  0  0  0  0  0  0  0  0  0  0  0
   -0.4472   -2.3056    0.0000 C   0  0  0  0  0  0  0  0  0  0  0  0
   -0.8597   -3.0200    0.0000 F   0  0  0  0  0  0  0  0  0  0  0  0
   -1.1617   -1.8931    0.0000 F   0  0  0  0  0  0  0  0  0  0  0  0
    0.2672   -2.7181    0.0000 F   0  0  0  0  0  0  0  0  0  0  0  0
   -0.6387    0.8839    0.0000 H   0  0  0  0  0  0  0  0  0  0  0  0
   -1.4637    1.7089    0.0000 H   0  0  0  0  0  0  0  0  0  0  0  0
   -2.2887    0.8839    0.0000 H   0  0  0  0  0  0  0  0  0  0  0  0
   -0.4335    0.4086    0.0000 H   0  0  0  0  0  0  0  0  0  0  0  0
   -1.9659   -2.2456    0.0000 H   0  0  0  0  0  0  0  0  0  0  0  0
   -2.8926   -0.7661    0.0000 H   0  0  0  0  0  0  0  0  0  0  0  0
   -2.8926    0.8839    0.0000 H   0  0  0  0  0  0  0  0  0  0  0  0
   -2.1782   -2.0036    0.0000 H   0  0  0  0  0  0  0  0  0  0  0  0
   -2.6076   -3.1903    0.0000 H   0  0  0  0  0  0  0  0  0  0  0  0
   -3.6071   -3.6536    0.0000 H   0  0  0  0  0  0  0  0  0  0  0  0
   -5.7505   -2.4161    0.0000 H   0  0  0  0  0  0  0  0  0  0  0  0
   -7.2900   -2.6075    0.0000 H   0  0  0  0  0  0  0  0  0  0  0  0
   -6.4650   -2.6075    0.0000 H   0  0  0  0  0  0  0  0  0  0  0  0
   -6.0525   -1.8931    0.0000 H   0  0  0  0  0  0  0  0  0  0  0  0
   -5.3380   -0.8766    0.0000 H   0  0  0  0  0  0  0  0  0  0  0  0
   -5.6400    0.2503    0.0000 H   0  0  0  0  0  0  0  0  0  0  0  0
   -6.7669   -0.0516    0.0000 H   0  0  0  0  0  0  0  0  0  0  0  0
   -7.7628   -0.1827    0.0000 H   0  0  0  0  0  0  0  0  0  0  0  0
   -7.1794   -1.5911    0.0000 H   0  0  0  0  0  0  0  0  0  0  0  0
   -9.0209   -0.8766    0.0000 H   0  0  0  0  0  0  0  0  0  0  0  0
   -9.3229   -2.0036    0.0000 H   0  0  0  0  0  0  0  0  0  0  0  0
   -8.1959   -2.3056    0.0000 H   0  0  0  0  0  0  0  0  0  0  0  0
  1  2  1  0  0  0  0
  2  3  4  0  0  0  0
  3  4  4  0  0  0  0
  4  5  4  0  0  0  0
  5  6  4  0  0  0  0
  6  7  4  0  0  0  0
  2  7  4  0  0  0  0
  7  8  1  0  0  0  0
  8  9  1  0  0  0  0
  9 10  2  0  0  0  0
  9 11  1  0  0  0  0
 11 12  4  0  0  0  0
 12 13  4  0  0  0  0
 13 14  4  0  0  0  0
 14 15  4  0  0  0  0
 15 16  1  0  0  0  0
 15 17  4  0  0  0  0
 11 17  4  0  0  0  0
 17 18  1  0  0  0  0
 18 19  2  0  0  0  0
 18 20  1  0  0  0  0
 20 21  1  0  0  0  0
 21 22  1  0  0  0  0
 21 23  1  0  0  0  0
 21 24  1  0  0  0  0
 24 25  1  0  0  0  0
 25 26  1  0  0  0  0
 25 27  2  0  0  0  0
 25 28  2  0  0  0  0
  4 29  1  0  0  0  0
 29 30  1  0  0  0  0
 29 31  1  0  0  0  0
 31 32  1  0  0  0  0
 31 33  1  0  0  0  0
 31 34  1  0  0  0  0
 29 35  1  0  0  0  0
 35 36  1  0  0  0  0
 35 37  1  0  0  0  0
 35 38  1  0  0  0  0
  1 39  1  0  0  0  0
  1 40  1  0  0  0  0
  1 41  1  0  0  0  0
  3 42  1  0  0  0  0
  5 43  1  0  0  0  0
  6 44  1  0  0  0  0
  8 45  1  0  0  0  0
 12 46  1  0  0  0  0
 13 47  1  0  0  0  0
 14 48  1  0  0  0  0
 20 49  1  0  0  0  0
 22 50  1  0  0  0  0
 22 51  1  0  0  0  0
 22 52  1  0  0  0  0
 23 53  1  0  0  0  0
 23 54  1  0  0  0  0
 23 55  1  0  0  0  0
 24 56  1  0  0  0  0
 24 57  1  0  0  0  0
 26 58  1  0  0  0  0
 26 59  1  0  0  0  0
 26 60  1  0  0  0  0
M  END
>  <InChIKey>
InChI=1S/C23H22F7IN2O4S/c1-12-10-13(21(24,22(25,26)27)23(28,29)30)8-9-16(12)32-18(34)14-6-5-7-15(31)17(14)19(35)33-20(2,3)11-38(4,36)37/h5-10H,11H2,1-4H3,(H,32,34)(H,33,35)

>  <CASRN>
272451-65-7

> <Outcome>
1

>  <Index>
3467

>  <StandardizerResult>
Dearomatize (ID: Dearomatize)
Clear Stereo (ID: ClearStereo)
Wedge Clean (ID: WedgeClean)
Mesomerize (ID: Mesomerize)
Tautomerize (ID: Tautomerize)
Aromatize (ID: Aromatize)
Add Explicit Hydrogens (ID: AddExplicitH)
Neutralize (ID: Neutralize)
Clean 2D (ID: Clean2D)

> <knn Distance>


> <CpId>
3467

$$$$
3478
  Mrv1532301301811342D          

 26 26  0  0  0  0            999 V2000
   -0.6893    3.7435    0.0000 C   0  0  0  0  0  0  0  0  0  0  0  0
   -0.6893    2.9185    0.0000 N   0  0  0  0  0  0  0  0  0  0  0  0
    0.0251    2.5060    0.0000 P   0  0  0  0  0  0  0  0  0  0  0  0
   -0.3874    1.7916    0.0000 O   0  0  0  0  0  0  0  0  0  0  0  0
    0.4376    3.2205    0.0000 N   0  0  0  0  0  0  0  0  0  0  0  0
    1.2626    3.2205    0.0000 C   0  0  0  0  0  0  0  0  0  0  0  0
    0.7396    2.0935    0.0000 O   0  0  0  0  0  0  0  0  0  0  0  0
    0.7396    1.2685    0.0000 C   0  0  0  0  0  0  0  0  0  0  0  0
    1.4541    0.8560    0.0000 C   0  0  0  0  0  0  0  0  0  0  0  0
    1.4541    0.0310    0.0000 C   0  0  0  0  0  0  0  0  0  0  0  0
    0.7396   -0.3815    0.0000 C   0  0  0  0  0  0  0  0  0  0  0  0
    0.0251    0.0310    0.0000 C   0  0  0  0  0  0  0  0  0  0  0  0
    0.0251    0.8560    0.0000 C   0  0  0  0  0  0  0  0  0  0  0  0
    0.1357    3.7435    0.0000 H   0  0  0  0  0  0  0  0  0  0  0  0
   -0.6893    4.5685    0.0000 H   0  0  0  0  0  0  0  0  0  0  0  0
   -1.5143    3.7435    0.0000 H   0  0  0  0  0  0  0  0  0  0  0  0
   -1.4038    2.5060    0.0000 H   0  0  0  0  0  0  0  0  0  0  0  0
   -0.3874    3.2205    0.0000 H   0  0  0  0  0  0  0  0  0  0  0  0
    1.2626    2.3955    0.0000 H   0  0  0  0  0  0  0  0  0  0  0  0
    2.0876    3.2205    0.0000 H   0  0  0  0  0  0  0  0  0  0  0  0
    1.2626    4.0455    0.0000 H   0  0  0  0  0  0  0  0  0  0  0  0
    2.1685    1.2685    0.0000 H   0  0  0  0  0  0  0  0  0  0  0  0
    2.1685   -0.3815    0.0000 H   0  0  0  0  0  0  0  0  0  0  0  0
    0.7396   -1.2065    0.0000 H   0  0  0  0  0  0  0  0  0  0  0  0
   -0.6893   -0.3815    0.0000 H   0  0  0  0  0  0  0  0  0  0  0  0
   -0.6893    1.2685    0.0000 H   0  0  0  0  0  0  0  0  0  0  0  0
  1  2  1  0  0  0  0
  2  3  1  0  0  0  0
  3  4  2  0  0  0  0
  3  5  1  0  0  0  0
  5  6  1  0  0  0  0
  3  7  1  0  0  0  0
  7  8  1  0  0  0  0
  8  9  4  0  0  0  0
  9 10  4  0  0  0  0
 10 11  4  0  0  0  0
 11 12  4  0  0  0  0
 12 13  4  0  0  0  0
  8 13  4  0  0  0  0
  1 14  1  0  0  0  0
  1 15  1  0  0  0  0
  1 16  1  0  0  0  0
  2 17  1  0  0  0  0
  5 18  1  0  0  0  0
  6 19  1  0  0  0  0
  6 20  1  0  0  0  0
  6 21  1  0  0  0  0
  9 22  1  0  0  0  0
 10 23  1  0  0  0  0
 11 24  1  0  0  0  0
 12 25  1  0  0  0  0
 13 26  1  0  0  0  0
M  END
>  <InChIKey>
InChI=1S/C8H13N2O2P/c1-9-13(11,10-2)12-8-6-4-3-5-7-8/h3-7H,1-2H3,(H2,9,10,11)

>  <CASRN>
1754-58-1

> <Outcome>
1

>  <Index>
3478

>  <StandardizerResult>
Dearomatize (ID: Dearomatize)
Clear Stereo (ID: ClearStereo)
Wedge Clean (ID: WedgeClean)
Mesomerize (ID: Mesomerize)
Tautomerize (ID: Tautomerize)
Aromatize (ID: Aromatize)
Add Explicit Hydrogens (ID: AddExplicitH)
Neutralize (ID: Neutralize)
Clean 2D (ID: Clean2D)

> <knn Distance>


> <CpId>
3478

$$$$
3484
  Mrv1532301301811342D          

 22 22  0  0  0  0            999 V2000
   -0.6633    2.0113    0.0000 C   0  0  0  0  0  0  0  0  0  0  0  0
    0.0512    2.4238    0.0000 C   0  0  0  0  0  0  0  0  0  0  0  0
    0.7657    2.0113    0.0000 O   0  0  0  0  0  0  0  0  0  0  0  0
    0.7657    1.1863    0.0000 C   0  0  0  0  0  0  0  0  0  0  0  0
    1.4802    0.7738    0.0000 C   0  0  0  0  0  0  0  0  0  0  0  0
    1.4802   -0.0512    0.0000 C   0  0  0  0  0  0  0  0  0  0  0  0
    2.1946   -0.4637    0.0000 Cl  0  0  0  0  0  0  0  0  0  0  0  0
    0.7657   -0.4637    0.0000 C   0  0  0  0  0  0  0  0  0  0  0  0
    0.7657   -1.2887    0.0000 Cl  0  0  0  0  0  0  0  0  0  0  0  0
    0.0512   -0.0512    0.0000 C   0  0  0  0  0  0  0  0  0  0  0  0
    0.0512    0.7738    0.0000 C   0  0  0  0  0  0  0  0  0  0  0  0
   -0.6633    1.1863    0.0000 Cl  0  0  0  0  0  0  0  0  0  0  0  0
    0.0512    3.2488    0.0000 C   0  0  0  0  0  0  0  0  0  0  0  0
   -0.6633    3.6613    0.0000 O   0  0  0  0  0  0  0  0  0  0  0  0
    0.7657    3.6613    0.0000 O   0  0  0  0  0  0  0  0  0  0  0  0
   -0.6633    2.8363    0.0000 H   0  0  0  0  0  0  0  0  0  0  0  0
   -1.3777    2.4238    0.0000 H   0  0  0  0  0  0  0  0  0  0  0  0
   -1.3777    1.5988    0.0000 H   0  0  0  0  0  0  0  0  0  0  0  0
    0.0512    1.5988    0.0000 H   0  0  0  0  0  0  0  0  0  0  0  0
    2.1946    1.1863    0.0000 H   0  0  0  0  0  0  0  0  0  0  0  0
   -0.6633   -0.4637    0.0000 H   0  0  0  0  0  0  0  0  0  0  0  0
   -1.0758    4.3757    0.0000 H   0  0  0  0  0  0  0  0  0  0  0  0
  1  2  1  0  0  0  0
  2  3  1  0  0  0  0
  3  4  1  0  0  0  0
  4  5  4  0  0  0  0
  5  6  4  0  0  0  0
  6  7  1  0  0  0  0
  6  8  4  0  0  0  0
  8  9  1  0  0  0  0
  8 10  4  0  0  0  0
 10 11  4  0  0  0  0
  4 11  4  0  0  0  0
 11 12  1  0  0  0  0
  2 13  1  0  0  0  0
 13 14  1  0  0  0  0
 13 15  2  0  0  0  0
  1 16  1  0  0  0  0
  1 17  1  0  0  0  0
  1 18  1  0  0  0  0
  2 19  1  0  0  0  0
  5 20  1  0  0  0  0
 10 21  1  0  0  0  0
 14 22  1  0  0  0  0
M  END
>  <InChIKey>
InChI=1S/C9H7Cl3O3/c1-4(9(13)14)15-8-3-6(11)5(10)2-7(8)12/h2-4H,1H3,(H,13,14)

>  <CASRN>
93-72-1

> <Outcome>
1

>  <Index>
3484

>  <StandardizerResult>
Dearomatize (ID: Dearomatize)
Clear Stereo (ID: ClearStereo)
Wedge Clean (ID: WedgeClean)
Mesomerize (ID: Mesomerize)
Tautomerize (ID: Tautomerize)
Aromatize (ID: Aromatize)
Add Explicit Hydrogens (ID: AddExplicitH)
Neutralize (ID: Neutralize)
Clean 2D (ID: Clean2D)

> <knn Distance>


> <CpId>
3484

$$$$
3485
  Mrv1532301301811342D          

 15 15  0  0  0  0            999 V2000
    0.7145    2.0625    0.0000 Cl  0  0  0  0  0  0  0  0  0  0  0  0
    0.7145    1.2375    0.0000 C   0  0  0  0  0  0  0  0  0  0  0  0
    1.4289    0.8250    0.0000 C   0  0  0  0  0  0  0  0  0  0  0  0
    1.4289   -0.0000    0.0000 C   0  0  0  0  0  0  0  0  0  0  0  0
    0.7145   -0.4125    0.0000 C   0  0  0  0  0  0  0  0  0  0  0  0
    0.0000    0.0000    0.0000 C   0  0  0  0  0  0  0  0  0  0  0  0
    0.0000    0.8250    0.0000 C   0  0  0  0  0  0  0  0  0  0  0  0
    0.7145   -1.2375    0.0000 S   0  0  0  0  0  0  0  0  0  0  0  0
    0.7145   -2.0625    0.0000 Cl  0  0  0  0  0  0  0  0  0  0  0  0
   -0.1105   -1.2375    0.0000 O   0  0  0  0  0  0  0  0  0  0  0  0
    1.5395   -1.2375    0.0000 O   0  0  0  0  0  0  0  0  0  0  0  0
    2.1434    1.2375    0.0000 H   0  0  0  0  0  0  0  0  0  0  0  0
    2.1434   -0.4125    0.0000 H   0  0  0  0  0  0  0  0  0  0  0  0
   -0.7145   -0.4125    0.0000 H   0  0  0  0  0  0  0  0  0  0  0  0
   -0.7145    1.2375    0.0000 H   0  0  0  0  0  0  0  0  0  0  0  0
  1  2  1  0  0  0  0
  2  3  4  0  0  0  0
  3  4  4  0  0  0  0
  4  5  4  0  0  0  0
  5  6  4  0  0  0  0
  6  7  4  0  0  0  0
  2  7  4  0  0  0  0
  5  8  1  0  0  0  0
  8  9  1  0  0  0  0
  8 10  2  0  0  0  0
  8 11  2  0  0  0  0
  3 12  1  0  0  0  0
  4 13  1  0  0  0  0
  6 14  1  0  0  0  0
  7 15  1  0  0  0  0
M  END
>  <InChIKey>
InChI=1S/C6H4Cl2O2S/c7-5-1-3-6(4-2-5)11(8,9)10/h1-4H

>  <CASRN>
98-60-2

> <Outcome>
1

>  <Index>
3485

>  <StandardizerResult>
Dearomatize (ID: Dearomatize)
Clear Stereo (ID: ClearStereo)
Wedge Clean (ID: WedgeClean)
Mesomerize (ID: Mesomerize)
Tautomerize (ID: Tautomerize)
Aromatize (ID: Aromatize)
Add Explicit Hydrogens (ID: AddExplicitH)
Neutralize (ID: Neutralize)
Clean 2D (ID: Clean2D)

> <knn Distance>


> <CpId>
3485

$$$$
3486
  Mrv1532301301811342D          

 22 21  0  0  0  0            999 V2000
    3.2270    2.7047    0.0000 C   0  0  0  0  0  0  0  0  0  0  0  0
    3.2270    1.8797    0.0000 C   0  0  0  0  0  0  0  0  0  0  0  0
    2.5125    1.4672    0.0000 C   0  0  0  0  0  0  0  0  0  0  0  0
    1.7980    1.8797    0.0000 O   0  0  0  0  0  0  0  0  0  0  0  0
    3.9415    1.4672    0.0000 O   0  0  0  0  0  0  0  0  0  0  0  0
    4.6559    1.8797    0.0000 C   0  0  0  0  0  0  0  0  0  0  0  0
    4.6559    2.7047    0.0000 O   0  0  0  0  0  0  0  0  0  0  0  0
    5.3704    1.4672    0.0000 C   0  0  0  0  0  0  0  0  0  0  0  0
    6.0849    1.8797    0.0000 C   0  0  0  0  0  0  0  0  0  0  0  0
    5.3704    0.6422    0.0000 C   0  0  0  0  0  0  0  0  0  0  0  0
    4.0520    2.7047    0.0000 H   0  0  0  0  0  0  0  0  0  0  0  0
    3.2270    3.5297    0.0000 H   0  0  0  0  0  0  0  0  0  0  0  0
    2.4020    2.7047    0.0000 H   0  0  0  0  0  0  0  0  0  0  0  0
    2.5125    2.2922    0.0000 H   0  0  0  0  0  0  0  0  0  0  0  0
    2.1423    0.7300    0.0000 H   0  0  0  0  0  0  0  0  0  0  0  0
    2.8828    0.7300    0.0000 H   0  0  0  0  0  0  0  0  0  0  0  0
    0.9730    1.8797    0.0000 H   0  0  0  0  0  0  0  0  0  0  0  0
    6.4974    1.1652    0.0000 H   0  0  0  0  0  0  0  0  0  0  0  0
    6.7993    2.2922    0.0000 H   0  0  0  0  0  0  0  0  0  0  0  0
    5.6724    2.5942    0.0000 H   0  0  0  0  0  0  0  0  0  0  0  0
    4.6559    0.2297    0.0000 H   0  0  0  0  0  0  0  0  0  0  0  0
    6.0849    0.2297    0.0000 H   0  0  0  0  0  0  0  0  0  0  0  0
  1  2  1  0  0  0  0
  2  3  1  0  0  0  0
  3  4  1  0  0  0  0
  2  5  1  0  0  0  0
  5  6  1  0  0  0  0
  6  7  2  0  0  0  0
  6  8  1  0  0  0  0
  8  9  1  0  0  0  0
  8 10  2  0  0  0  0
  1 11  1  0  0  0  0
  1 12  1  0  0  0  0
  1 13  1  0  0  0  0
  2 14  1  0  0  0  0
  3 15  1  0  0  0  0
  3 16  1  0  0  0  0
  4 17  1  0  0  0  0
  9 18  1  0  0  0  0
  9 19  1  0  0  0  0
  9 20  1  0  0  0  0
 10 21  1  0  0  0  0
 10 22  1  0  0  0  0
M  END
>  <InChIKey>
InChI=1S/C7H12O3/c1-5(2)7(9)10-6(3)4-8/h6,8H,1,4H2,2-3H3

>  <CASRN>
27813-02-1

> <Outcome>
1

>  <Index>
3486

>  <StandardizerResult>
Clear Stereo (ID: ClearStereo)
Wedge Clean (ID: WedgeClean)
Mesomerize (ID: Mesomerize)
Tautomerize (ID: Tautomerize)
Add Explicit Hydrogens (ID: AddExplicitH)
Neutralize (ID: Neutralize)
Clean 2D (ID: Clean2D)

> <knn Distance>


> <CpId>
3486

$$$$
3487
  Mrv1532301301811342D          

 38 38  0  0  0  0            999 V2000
    2.1434   -6.1866    0.0000 C   0  0  0  0  0  0  0  0  0  0  0  0
    2.8579   -6.5991    0.0000 C   0  0  0  0  0  0  0  0  0  0  0  0
    3.5724   -6.1866    0.0000 C   0  0  0  0  0  0  0  0  0  0  0  0
    4.2868   -6.5991    0.0000 C   0  0  0  0  0  0  0  0  0  0  0  0
    5.0013   -6.1866    0.0000 O   0  0  0  0  0  0  0  0  0  0  0  0
    5.7158   -6.5991    0.0000 C   0  0  0  0  0  0  0  0  0  0  0  0
    6.4302   -6.1866    0.0000 C   0  0  0  0  0  0  0  0  0  0  0  0
    7.1447   -6.5991    0.0000 O   0  0  0  0  0  0  0  0  0  0  0  0
    7.8592   -6.1866    0.0000 C   0  0  0  0  0  0  0  0  0  0  0  0
    7.8592   -5.3616    0.0000 O   0  0  0  0  0  0  0  0  0  0  0  0
    8.5737   -6.5991    0.0000 C   0  0  0  0  0  0  0  0  0  0  0  0
    9.2881   -6.1866    0.0000 O   0  0  0  0  0  0  0  0  0  0  0  0
   10.0026   -6.5991    0.0000 C   0  0  0  0  0  0  0  0  0  0  0  0
   10.7171   -6.1866    0.0000 C   0  0  0  0  0  0  0  0  0  0  0  0
   11.4315   -6.5991    0.0000 C   0  0  0  0  0  0  0  0  0  0  0  0
   11.4315   -7.4241    0.0000 C   0  0  0  0  0  0  0  0  0  0  0  0
   12.1460   -7.8366    0.0000 Cl  0  0  0  0  0  0  0  0  0  0  0  0
   10.7171   -7.8366    0.0000 C   0  0  0  0  0  0  0  0  0  0  0  0
   10.0026   -7.4241    0.0000 C   0  0  0  0  0  0  0  0  0  0  0  0
    9.2881   -7.8366    0.0000 Cl  0  0  0  0  0  0  0  0  0  0  0  0
    2.5559   -5.4721    0.0000 H   0  0  0  0  0  0  0  0  0  0  0  0
    1.4290   -5.7741    0.0000 H   0  0  0  0  0  0  0  0  0  0  0  0
    1.7309   -6.9010    0.0000 H   0  0  0  0  0  0  0  0  0  0  0  0
    2.4876   -7.3363    0.0000 H   0  0  0  0  0  0  0  0  0  0  0  0
    3.2282   -7.3363    0.0000 H   0  0  0  0  0  0  0  0  0  0  0  0
    3.9426   -5.4493    0.0000 H   0  0  0  0  0  0  0  0  0  0  0  0
    3.2021   -5.4493    0.0000 H   0  0  0  0  0  0  0  0  0  0  0  0
    3.9166   -7.3363    0.0000 H   0  0  0  0  0  0  0  0  0  0  0  0
    4.6571   -7.3363    0.0000 H   0  0  0  0  0  0  0  0  0  0  0  0
    5.3455   -7.3363    0.0000 H   0  0  0  0  0  0  0  0  0  0  0  0
    6.0860   -7.3363    0.0000 H   0  0  0  0  0  0  0  0  0  0  0  0
    6.8005   -5.4493    0.0000 H   0  0  0  0  0  0  0  0  0  0  0  0
    6.0600   -5.4493    0.0000 H   0  0  0  0  0  0  0  0  0  0  0  0
    8.2034   -7.3363    0.0000 H   0  0  0  0  0  0  0  0  0  0  0  0
    8.9439   -7.3363    0.0000 H   0  0  0  0  0  0  0  0  0  0  0  0
   10.7171   -5.3616    0.0000 H   0  0  0  0  0  0  0  0  0  0  0  0
   12.1460   -6.1866    0.0000 H   0  0  0  0  0  0  0  0  0  0  0  0
   10.7171   -8.6616    0.0000 H   0  0  0  0  0  0  0  0  0  0  0  0
  1  2  1  0  0  0  0
  2  3  1  0  0  0  0
  3  4  1  0  0  0  0
  4  5  1  0  0  0  0
  5  6  1  0  0  0  0
  6  7  1  0  0  0  0
  7  8  1  0  0  0  0
  8  9  1  0  0  0  0
  9 10  2  0  0  0  0
  9 11  1  0  0  0  0
 11 12  1  0  0  0  0
 12 13  1  0  0  0  0
 13 14  4  0  0  0  0
 14 15  4  0  0  0  0
 15 16  4  0  0  0  0
 16 17  1  0  0  0  0
 16 18  4  0  0  0  0
 18 19  4  0  0  0  0
 13 19  4  0  0  0  0
 19 20  1  0  0  0  0
  1 21  1  0  0  0  0
  1 22  1  0  0  0  0
  1 23  1  0  0  0  0
  2 24  1  0  0  0  0
  2 25  1  0  0  0  0
  3 26  1  0  0  0  0
  3 27  1  0  0  0  0
  4 28  1  0  0  0  0
  4 29  1  0  0  0  0
  6 30  1  0  0  0  0
  6 31  1  0  0  0  0
  7 32  1  0  0  0  0
  7 33  1  0  0  0  0
 11 34  1  0  0  0  0
 11 35  1  0  0  0  0
 14 36  1  0  0  0  0
 15 37  1  0  0  0  0
 18 38  1  0  0  0  0
M  END
>  <InChIKey>
InChI=1S/C14H18Cl2O4/c1-2-3-6-18-7-8-19-14(17)10-20-13-5-4-11(15)9-12(13)16/h4-5,9H,2-3,6-8,10H2,1H3

>  <CASRN>
1929-73-3

> <Outcome>
1

>  <Index>
3487

>  <StandardizerResult>
Dearomatize (ID: Dearomatize)
Clear Stereo (ID: ClearStereo)
Wedge Clean (ID: WedgeClean)
Mesomerize (ID: Mesomerize)
Tautomerize (ID: Tautomerize)
Aromatize (ID: Aromatize)
Add Explicit Hydrogens (ID: AddExplicitH)
Neutralize (ID: Neutralize)
Clean 2D (ID: Clean2D)

> <knn Distance>


> <CpId>
3487

$$$$
3491
  Mrv1532301301811342D          

 29 29  0  0  0  0            999 V2000
   -0.7145    3.7125    0.0000 C   0  0  0  0  0  0  0  0  0  0  0  0
   -0.7145    2.8875    0.0000 O   0  0  0  0  0  0  0  0  0  0  0  0
   -0.0000    2.4750    0.0000 P   0  0  0  0  0  0  0  0  0  0  0  0
   -0.4125    1.7605    0.0000 S   0  0  0  0  0  0  0  0  0  0  0  0
    0.4125    3.1895    0.0000 O   0  0  0  0  0  0  0  0  0  0  0  0
    1.2375    3.1895    0.0000 C   0  0  0  0  0  0  0  0  0  0  0  0
    0.7145    2.0625    0.0000 O   0  0  0  0  0  0  0  0  0  0  0  0
    0.7145    1.2375    0.0000 C   0  0  0  0  0  0  0  0  0  0  0  0
    1.4289    0.8250    0.0000 C   0  0  0  0  0  0  0  0  0  0  0  0
    1.4289    0.0000    0.0000 C   0  0  0  0  0  0  0  0  0  0  0  0
    0.7145   -0.4125    0.0000 C   0  0  0  0  0  0  0  0  0  0  0  0
   -0.0000    0.0000    0.0000 C   0  0  0  0  0  0  0  0  0  0  0  0
   -0.7145   -0.4125    0.0000 C   0  0  0  0  0  0  0  0  0  0  0  0
   -0.0000    0.8250    0.0000 C   0  0  0  0  0  0  0  0  0  0  0  0
    0.7145   -1.2375    0.0000 N   0  0  0  0  0  0  0  0  0  0  0  0
    1.4289   -1.6500    0.0000 O   0  0  0  0  0  0  0  0  0  0  0  0
   -0.0000   -1.6500    0.0000 O   0  0  0  0  0  0  0  0  0  0  0  0
    0.1105    3.7125    0.0000 H   0  0  0  0  0  0  0  0  0  0  0  0
   -0.7145    4.5375    0.0000 H   0  0  0  0  0  0  0  0  0  0  0  0
   -1.5395    3.7125    0.0000 H   0  0  0  0  0  0  0  0  0  0  0  0
    1.2375    2.3645    0.0000 H   0  0  0  0  0  0  0  0  0  0  0  0
    2.0625    3.1895    0.0000 H   0  0  0  0  0  0  0  0  0  0  0  0
    1.2375    4.0145    0.0000 H   0  0  0  0  0  0  0  0  0  0  0  0
    2.1434    1.2375    0.0000 H   0  0  0  0  0  0  0  0  0  0  0  0
    2.1434   -0.4125    0.0000 H   0  0  0  0  0  0  0  0  0  0  0  0
   -1.1270    0.3020    0.0000 H   0  0  0  0  0  0  0  0  0  0  0  0
   -1.4290   -0.8250    0.0000 H   0  0  0  0  0  0  0  0  0  0  0  0
   -0.3020   -1.1270    0.0000 H   0  0  0  0  0  0  0  0  0  0  0  0
   -0.7145    1.2375    0.0000 H   0  0  0  0  0  0  0  0  0  0  0  0
  1  2  1  0  0  0  0
  2  3  1  0  0  0  0
  3  4  2  0  0  0  0
  3  5  1  0  0  0  0
  5  6  1  0  0  0  0
  3  7  1  0  0  0  0
  7  8  1  0  0  0  0
  8  9  4  0  0  0  0
  9 10  4  0  0  0  0
 10 11  4  0  0  0  0
 11 12  4  0  0  0  0
 12 13  1  0  0  0  0
 12 14  4  0  0  0  0
  8 14  4  0  0  0  0
 11 15  1  0  0  0  0
 15 16  2  0  0  0  0
 15 17  2  0  0  0  0
  1 18  1  0  0  0  0
  1 19  1  0  0  0  0
  1 20  1  0  0  0  0
  6 21  1  0  0  0  0
  6 22  1  0  0  0  0
  6 23  1  0  0  0  0
  9 24  1  0  0  0  0
 10 25  1  0  0  0  0
 13 26  1  0  0  0  0
 13 27  1  0  0  0  0
 13 28  1  0  0  0  0
 14 29  1  0  0  0  0
M  END
>  <InChIKey>
InChI=1S/C9H12NO5PS/c1-7-6-8(4-5-9(7)10(11)12)15-16(17,13-2)14-3/h4-6H,1-3H3

>  <CASRN>
122-14-5

> <Outcome>
1

>  <Index>
3491

>  <StandardizerResult>
Dearomatize (ID: Dearomatize)
Clear Stereo (ID: ClearStereo)
Wedge Clean (ID: WedgeClean)
Mesomerize (ID: Mesomerize)
Tautomerize (ID: Tautomerize)
Aromatize (ID: Aromatize)
Add Explicit Hydrogens (ID: AddExplicitH)
Neutralize (ID: Neutralize)
Clean 2D (ID: Clean2D)

> <knn Distance>


> <CpId>
3491

$$$$
3493
  Mrv1532301301811342D          

 15 14  0  0  0  0            999 V2000
    1.7605    1.8414    0.0000 Cl  0  0  0  0  0  0  0  0  0  0  0  0
    2.4750    1.4289    0.0000 C   0  0  0  0  0  0  0  0  0  0  0  0
    3.1895    1.8414    0.0000 C   0  0  0  0  0  0  0  0  0  0  0  0
    3.9039    1.4289    0.0000 O   0  0  0  0  0  0  0  0  0  0  0  0
    4.6184    1.8414    0.0000 C   0  0  0  0  0  0  0  0  0  0  0  0
    5.3329    1.4289    0.0000 C   0  0  0  0  0  0  0  0  0  0  0  0
    6.0474    1.8414    0.0000 Cl  0  0  0  0  0  0  0  0  0  0  0  0
    2.1047    0.6917    0.0000 H   0  0  0  0  0  0  0  0  0  0  0  0
    2.8453    0.6917    0.0000 H   0  0  0  0  0  0  0  0  0  0  0  0
    3.5597    2.5786    0.0000 H   0  0  0  0  0  0  0  0  0  0  0  0
    2.8192    2.5786    0.0000 H   0  0  0  0  0  0  0  0  0  0  0  0
    4.9887    2.5786    0.0000 H   0  0  0  0  0  0  0  0  0  0  0  0
    4.2482    2.5786    0.0000 H   0  0  0  0  0  0  0  0  0  0  0  0
    4.9626    0.6917    0.0000 H   0  0  0  0  0  0  0  0  0  0  0  0
    5.7032    0.6917    0.0000 H   0  0  0  0  0  0  0  0  0  0  0  0
  1  2  1  0  0  0  0
  2  3  1  0  0  0  0
  3  4  1  0  0  0  0
  4  5  1  0  0  0  0
  5  6  1  0  0  0  0
  6  7  1  0  0  0  0
  2  8  1  0  0  0  0
  2  9  1  0  0  0  0
  3 10  1  0  0  0  0
  3 11  1  0  0  0  0
  5 12  1  0  0  0  0
  5 13  1  0  0  0  0
  6 14  1  0  0  0  0
  6 15  1  0  0  0  0
M  END
>  <InChIKey>
InChI=1S/C4H8Cl2O/c5-1-3-7-4-2-6/h1-4H2

>  <CASRN>
111-44-4

> <Outcome>
1

>  <Index>
3493

>  <StandardizerResult>
Clear Stereo (ID: ClearStereo)
Wedge Clean (ID: WedgeClean)
Mesomerize (ID: Mesomerize)
Tautomerize (ID: Tautomerize)
Add Explicit Hydrogens (ID: AddExplicitH)
Neutralize (ID: Neutralize)
Clean 2D (ID: Clean2D)

> <knn Distance>


> <CpId>
3493

$$$$
3494
  Mrv1532301301811342D          

 11 10  0  0  0  0            999 V2000
    2.4758   -1.4276    0.0000 C   0  0  0  0  0  0  0  0  0  0  0  0
    2.0633   -0.7131    0.0000 C   0  0  0  0  0  0  0  0  0  0  0  0
    1.2383   -0.7131    0.0000 C   0  0  0  0  0  0  0  0  0  0  0  0
    0.8258    0.0014    0.0000 N   0  0  0  0  0  0  0  0  0  0  0  0
    0.0008    0.0014    0.0000 C   0  0  0  0  0  0  0  0  0  0  0  0
   -0.8242    0.0014    0.0000 S   0  0  0  0  0  0  0  0  0  0  0  0
    2.0633   -2.1420    0.0000 H   0  0  0  0  0  0  0  0  0  0  0  0
    3.3008   -1.4276    0.0000 H   0  0  0  0  0  0  0  0  0  0  0  0
    2.4758    0.0014    0.0000 H   0  0  0  0  0  0  0  0  0  0  0  0
    0.5490   -1.1664    0.0000 H   0  0  0  0  0  0  0  0  0  0  0  0
    1.1903   -1.5367    0.0000 H   0  0  0  0  0  0  0  0  0  0  0  0
  1  2  2  0  0  0  0
  2  3  1  0  0  0  0
  3  4  1  0  0  0  0
  4  5  2  0  0  0  0
  5  6  2  0  0  0  0
  1  7  1  0  0  0  0
  1  8  1  0  0  0  0
  2  9  1  0  0  0  0
  3 10  1  0  0  0  0
  3 11  1  0  0  0  0
M  END
>  <InChIKey>
InChI=1S/C4H5NS/c1-2-3-5-4-6/h2H,1,3H2

>  <CASRN>
57-06-7

> <Outcome>
1

>  <Index>
3494

>  <StandardizerResult>
Clear Stereo (ID: ClearStereo)
Wedge Clean (ID: WedgeClean)
Mesomerize (ID: Mesomerize)
Tautomerize (ID: Tautomerize)
Add Explicit Hydrogens (ID: AddExplicitH)
Neutralize (ID: Neutralize)
Clean 2D (ID: Clean2D)

> <knn Distance>


> <CpId>
3494

$$$$
3495
  Mrv1532301301811342D          

 30 30  0  0  0  0            999 V2000
    1.4908    0.8660    0.0000 C   0  0  0  0  0  0  0  0  0  0  0  0
    2.2052    1.2785    0.0000 C   0  0  0  0  0  0  0  0  0  0  0  0
    2.9197    0.8660    0.0000 C   0  0  0  0  0  0  0  0  0  0  0  0
    2.9197    0.0410    0.0000 C   0  0  0  0  0  0  0  0  0  0  0  0
    2.2052   -0.3715    0.0000 C   0  0  0  0  0  0  0  0  0  0  0  0
    2.2052   -1.1965    0.0000 C   0  0  0  0  0  0  0  0  0  0  0  0
    1.4908   -1.6090    0.0000 C   0  0  0  0  0  0  0  0  0  0  0  0
    0.7763   -1.1965    0.0000 C   0  0  0  0  0  0  0  0  0  0  0  0
    0.7763   -0.3715    0.0000 C   0  0  0  0  0  0  0  0  0  0  0  0
    0.0618    0.0410    0.0000 C   0  0  0  0  0  0  0  0  0  0  0  0
    0.0618    0.8660    0.0000 C   0  0  0  0  0  0  0  0  0  0  0  0
    0.7763    1.2785    0.0000 C   0  0  0  0  0  0  0  0  0  0  0  0
    1.1205    0.1288    0.0000 H   0  0  0  0  0  0  0  0  0  0  0  0
    1.8610    0.1288    0.0000 H   0  0  0  0  0  0  0  0  0  0  0  0
    2.5755    2.0158    0.0000 H   0  0  0  0  0  0  0  0  0  0  0  0
    1.8350    2.0158    0.0000 H   0  0  0  0  0  0  0  0  0  0  0  0
    3.6342    1.2785    0.0000 H   0  0  0  0  0  0  0  0  0  0  0  0
    3.6342   -0.3715    0.0000 H   0  0  0  0  0  0  0  0  0  0  0  0
    1.4174   -0.6163    0.0000 H   0  0  0  0  0  0  0  0  0  0  0  0
    2.9197   -0.7840    0.0000 H   0  0  0  0  0  0  0  0  0  0  0  0
    2.3485   -2.0089    0.0000 H   0  0  0  0  0  0  0  0  0  0  0  0
    2.8372   -1.7268    0.0000 H   0  0  0  0  0  0  0  0  0  0  0  0
    1.1098   -2.3407    0.0000 H   0  0  0  0  0  0  0  0  0  0  0  0
    0.0618   -1.6090    0.0000 H   0  0  0  0  0  0  0  0  0  0  0  0
    0.0618   -0.7840    0.0000 H   0  0  0  0  0  0  0  0  0  0  0  0
    0.5944    0.4333    0.0000 H   0  0  0  0  0  0  0  0  0  0  0  0
   -0.7134    0.3232    0.0000 H   0  0  0  0  0  0  0  0  0  0  0  0
   -0.7134   -0.2411    0.0000 H   0  0  0  0  0  0  0  0  0  0  0  0
   -0.3815    1.5618    0.0000 H   0  0  0  0  0  0  0  0  0  0  0  0
    0.7763    2.1035    0.0000 H   0  0  0  0  0  0  0  0  0  0  0  0
  1  2  1  0  0  0  0
  3  2  1  4  0  0  0
  3  4  2  0  0  0  0
  4  5  1  0  0  0  0
  5  6  1  0  0  0  0
  7  6  1  4  0  0  0
  7  8  2  0  0  0  0
  8  9  1  0  0  0  0
  9 10  1  0  0  0  0
 11 10  1  4  0  0  0
 11 12  2  0  0  0  0
  1 12  1  0  0  0  0
  1 13  1  0  0  0  0
  1 14  1  0  0  0  0
  2 15  1  0  0  0  0
  2 16  1  0  0  0  0
  3 17  1  0  0  0  0
  4 18  1  0  0  0  0
  5 19  1  0  0  0  0
  5 20  1  0  0  0  0
  6 21  1  0  0  0  0
  6 22  1  0  0  0  0
  7 23  1  0  0  0  0
  8 24  1  0  0  0  0
  9 25  1  0  0  0  0
  9 26  1  0  0  0  0
 10 27  1  0  0  0  0
 10 28  1  0  0  0  0
 11 29  1  0  0  0  0
 12 30  1  0  0  0  0
M  END
>  <InChIKey>
InChI=1S/C12H18/c1-2-4-6-8-10-12-11-9-7-5-3-1/h1-2,7-10H,3-6,11-12H2

>  <CASRN>
4904-61-4

> <Outcome>
1

>  <Index>
3495

>  <StandardizerResult>
Clear Stereo (ID: ClearStereo)
Wedge Clean (ID: WedgeClean)
Mesomerize (ID: Mesomerize)
Tautomerize (ID: Tautomerize)
Add Explicit Hydrogens (ID: AddExplicitH)
Neutralize (ID: Neutralize)
Clean 2D (ID: Clean2D)

> <knn Distance>


> <CpId>
3495

$$$$
3502
  Mrv1532301301811342D          

 12 12  0  0  0  0            999 V2000
    0.7145    2.0625    0.0000 Cl  0  0  0  0  0  0  0  0  0  0  0  0
    0.7145    1.2375    0.0000 C   0  0  0  0  0  0  0  0  0  0  0  0
    1.4289    0.8250    0.0000 C   0  0  0  0  0  0  0  0  0  0  0  0
    1.4289    0.0000    0.0000 C   0  0  0  0  0  0  0  0  0  0  0  0
    0.7145   -0.4125    0.0000 C   0  0  0  0  0  0  0  0  0  0  0  0
   -0.0000    0.0000    0.0000 C   0  0  0  0  0  0  0  0  0  0  0  0
   -0.7145   -0.4125    0.0000 Cl  0  0  0  0  0  0  0  0  0  0  0  0
   -0.0000    0.8250    0.0000 C   0  0  0  0  0  0  0  0  0  0  0  0
    2.1434    1.2375    0.0000 H   0  0  0  0  0  0  0  0  0  0  0  0
    2.1434   -0.4125    0.0000 H   0  0  0  0  0  0  0  0  0  0  0  0
    0.7145   -1.2375    0.0000 H   0  0  0  0  0  0  0  0  0  0  0  0
   -0.7145    1.2375    0.0000 H   0  0  0  0  0  0  0  0  0  0  0  0
  1  2  1  0  0  0  0
  2  3  4  0  0  0  0
  3  4  4  0  0  0  0
  4  5  4  0  0  0  0
  5  6  4  0  0  0  0
  6  7  1  0  0  0  0
  6  8  4  0  0  0  0
  2  8  4  0  0  0  0
  3  9  1  0  0  0  0
  4 10  1  0  0  0  0
  5 11  1  0  0  0  0
  8 12  1  0  0  0  0
M  END
>  <InChIKey>
InChI=1S/C6H4Cl2/c7-5-2-1-3-6(8)4-5/h1-4H

>  <CASRN>
541-73-1

> <Outcome>
1

>  <Index>
3502

>  <StandardizerResult>
Dearomatize (ID: Dearomatize)
Clear Stereo (ID: ClearStereo)
Wedge Clean (ID: WedgeClean)
Mesomerize (ID: Mesomerize)
Tautomerize (ID: Tautomerize)
Aromatize (ID: Aromatize)
Add Explicit Hydrogens (ID: AddExplicitH)
Neutralize (ID: Neutralize)
Clean 2D (ID: Clean2D)

> <knn Distance>


> <CpId>
3502

$$$$
3503
  Mrv1532301301811342D          

 17 17  0  0  0  0            999 V2000
    0.7145    2.0625    0.0000 C   0  0  0  0  0  0  0  0  0  0  0  0
    0.7145    1.2375    0.0000 C   0  0  0  0  0  0  0  0  0  0  0  0
    1.4289    0.8250    0.0000 C   0  0  0  0  0  0  0  0  0  0  0  0
    1.4289   -0.0000    0.0000 C   0  0  0  0  0  0  0  0  0  0  0  0
    0.7145   -0.4125    0.0000 C   0  0  0  0  0  0  0  0  0  0  0  0
    0.0000    0.0000    0.0000 C   0  0  0  0  0  0  0  0  0  0  0  0
    0.0000    0.8250    0.0000 C   0  0  0  0  0  0  0  0  0  0  0  0
    0.7145   -1.2375    0.0000 N   0  0  0  0  0  0  0  0  0  0  0  0
    1.4289   -1.6500    0.0000 O   0  0  0  0  0  0  0  0  0  0  0  0
    0.0000   -1.6500    0.0000 O   0  0  0  0  0  0  0  0  0  0  0  0
    1.5395    2.0625    0.0000 H   0  0  0  0  0  0  0  0  0  0  0  0
    0.7145    2.8875    0.0000 H   0  0  0  0  0  0  0  0  0  0  0  0
   -0.1105    2.0625    0.0000 H   0  0  0  0  0  0  0  0  0  0  0  0
    2.1434    1.2375    0.0000 H   0  0  0  0  0  0  0  0  0  0  0  0
    2.1434   -0.4125    0.0000 H   0  0  0  0  0  0  0  0  0  0  0  0
   -0.7145   -0.4125    0.0000 H   0  0  0  0  0  0  0  0  0  0  0  0
   -0.7145    1.2375    0.0000 H   0  0  0  0  0  0  0  0  0  0  0  0
  1  2  1  0  0  0  0
  2  3  4  0  0  0  0
  3  4  4  0  0  0  0
  4  5  4  0  0  0  0
  5  6  4  0  0  0  0
  6  7  4  0  0  0  0
  2  7  4  0  0  0  0
  5  8  1  0  0  0  0
  8  9  2  0  0  0  0
  8 10  2  0  0  0  0
  1 11  1  0  0  0  0
  1 12  1  0  0  0  0
  1 13  1  0  0  0  0
  3 14  1  0  0  0  0
  4 15  1  0  0  0  0
  6 16  1  0  0  0  0
  7 17  1  0  0  0  0
M  END
>  <InChIKey>
InChI=1S/C7H7NO2/c1-6-2-4-7(5-3-6)8(9)10/h2-5H,1H3

>  <CASRN>
99-99-0

> <Outcome>
1

>  <Index>
3503

>  <StandardizerResult>
Dearomatize (ID: Dearomatize)
Clear Stereo (ID: ClearStereo)
Wedge Clean (ID: WedgeClean)
Mesomerize (ID: Mesomerize)
Tautomerize (ID: Tautomerize)
Aromatize (ID: Aromatize)
Add Explicit Hydrogens (ID: AddExplicitH)
Neutralize (ID: Neutralize)
Clean 2D (ID: Clean2D)

> <knn Distance>


> <CpId>
3503

$$$$
3507
  Mrv1532301301811342D          

 14 13  0  0  0  0            999 V2000
   -0.1914    0.7145    0.0000 C   0  0  0  0  0  0  0  0  0  0  0  0
    0.5230    1.1270    0.0000 C   0  0  0  0  0  0  0  0  0  0  0  0
    0.5230    1.9520    0.0000 O   0  0  0  0  0  0  0  0  0  0  0  0
    1.2375    0.7145    0.0000 O   0  0  0  0  0  0  0  0  0  0  0  0
    1.9520    1.1270    0.0000 O   0  0  0  0  0  0  0  0  0  0  0  0
    2.6664    0.7145    0.0000 C   0  0  0  0  0  0  0  0  0  0  0  0
    3.3809    1.1270    0.0000 C   0  0  0  0  0  0  0  0  0  0  0  0
    2.6664   -0.1105    0.0000 O   0  0  0  0  0  0  0  0  0  0  0  0
   -0.6039    1.4290    0.0000 H   0  0  0  0  0  0  0  0  0  0  0  0
   -0.9059    0.3020    0.0000 H   0  0  0  0  0  0  0  0  0  0  0  0
    0.2211    0.0000    0.0000 H   0  0  0  0  0  0  0  0  0  0  0  0
    3.7934    0.4125    0.0000 H   0  0  0  0  0  0  0  0  0  0  0  0
    4.0954    1.5395    0.0000 H   0  0  0  0  0  0  0  0  0  0  0  0
    2.9684    1.8415    0.0000 H   0  0  0  0  0  0  0  0  0  0  0  0
  1  2  1  0  0  0  0
  2  3  2  0  0  0  0
  2  4  1  0  0  0  0
  4  5  1  0  0  0  0
  5  6  1  0  0  0  0
  6  7  1  0  0  0  0
  6  8  2  0  0  0  0
  1  9  1  0  0  0  0
  1 10  1  0  0  0  0
  1 11  1  0  0  0  0
  7 12  1  0  0  0  0
  7 13  1  0  0  0  0
  7 14  1  0  0  0  0
M  END
>  <InChIKey>
InChI=1S/C4H6O4/c1-3(5)7-8-4(2)6/h1-2H3

>  <CASRN>
110-22-5

> <Outcome>
1

>  <Index>
3507

>  <StandardizerResult>
Clear Stereo (ID: ClearStereo)
Wedge Clean (ID: WedgeClean)
Mesomerize (ID: Mesomerize)
Tautomerize (ID: Tautomerize)
Add Explicit Hydrogens (ID: AddExplicitH)
Neutralize (ID: Neutralize)
Clean 2D (ID: Clean2D)

> <knn Distance>


> <CpId>
3507

$$$$
3509
  Mrv1532301301811342D          

 23 24  0  0  0  0            999 V2000
    0.0248   -2.3875    0.0000 C   0  0  0  0  0  0  0  0  0  0  0  0
    0.7392   -1.9750    0.0000 C   0  0  0  0  0  0  0  0  0  0  0  0
    0.7392   -1.1500    0.0000 C   0  0  0  0  0  0  0  0  0  0  0  0
   -0.0454   -1.4050    0.0000 C   0  0  0  0  0  0  0  0  0  0  0  0
   -0.5303   -0.7375    0.0000 O   0  0  0  0  0  0  0  0  0  0  0  0
   -0.0454   -0.0701    0.0000 C   0  0  0  0  0  0  0  0  0  0  0  0
    0.7392   -0.3250    0.0000 N   0  0  0  0  0  0  0  0  0  0  0  0
    1.5239   -0.0701    0.0000 C   0  0  0  0  0  0  0  0  0  0  0  0
    2.0088   -0.7375    0.0000 O   0  0  0  0  0  0  0  0  0  0  0  0
    1.5239   -1.4050    0.0000 C   0  0  0  0  0  0  0  0  0  0  0  0
   -0.3877   -1.6731    0.0000 H   0  0  0  0  0  0  0  0  0  0  0  0
   -0.6897   -2.8000    0.0000 H   0  0  0  0  0  0  0  0  0  0  0  0
    0.4373   -3.1020    0.0000 H   0  0  0  0  0  0  0  0  0  0  0  0
    0.9155   -2.7810    0.0000 H   0  0  0  0  0  0  0  0  0  0  0  0
    1.4038   -2.4638    0.0000 H   0  0  0  0  0  0  0  0  0  0  0  0
   -0.0305   -2.2299    0.0000 H   0  0  0  0  0  0  0  0  0  0  0  0
    0.2096   -0.6204    0.0000 H   0  0  0  0  0  0  0  0  0  0  0  0
    0.0979    0.7424    0.0000 H   0  0  0  0  0  0  0  0  0  0  0  0
   -0.6388    0.5030    0.0000 H   0  0  0  0  0  0  0  0  0  0  0  0
    2.1173    0.5030    0.0000 H   0  0  0  0  0  0  0  0  0  0  0  0
    1.3806    0.7424    0.0000 H   0  0  0  0  0  0  0  0  0  0  0  0
    1.8462   -2.1644    0.0000 H   0  0  0  0  0  0  0  0  0  0  0  0
    2.2833   -1.7273    0.0000 H   0  0  0  0  0  0  0  0  0  0  0  0
  1  2  1  0  0  0  0
  2  3  1  0  0  0  0
  3  4  1  0  0  0  0
  4  5  1  0  0  0  0
  5  6  1  0  0  0  0
  6  7  1  0  0  0  0
  3  7  1  0  0  0  0
  7  8  1  0  0  0  0
  8  9  1  0  0  0  0
  9 10  1  0  0  0  0
  3 10  1  0  0  0  0
  1 11  1  0  0  0  0
  1 12  1  0  0  0  0
  1 13  1  0  0  0  0
  2 14  1  0  0  0  0
  2 15  1  0  0  0  0
  4 16  1  0  0  0  0
  4 17  1  0  0  0  0
  6 18  1  0  0  0  0
  6 19  1  0  0  0  0
  8 20  1  0  0  0  0
  8 21  1  0  0  0  0
 10 22  1  0  0  0  0
 10 23  1  0  0  0  0
M  END
>  <InChIKey>
InChI=1S/C7H13NO2/c1-2-7-3-9-5-8(7)6-10-4-7/h2-6H2,1H3

>  <CASRN>
7747-35-5

> <Outcome>
1

>  <Index>
3509

>  <StandardizerResult>
Clear Stereo (ID: ClearStereo)
Wedge Clean (ID: WedgeClean)
Mesomerize (ID: Mesomerize)
Tautomerize (ID: Tautomerize)
Add Explicit Hydrogens (ID: AddExplicitH)
Neutralize (ID: Neutralize)
Clean 2D (ID: Clean2D)

> <knn Distance>


> <CpId>
3509

$$$$
3512
  Mrv1532301301811342D          

 18 17  0  0  0  0            999 V2000
   -0.1914    0.7145    0.0000 C   0  0  0  0  0  0  0  0  0  0  0  0
    0.5230    1.1270    0.0000 C   0  0  0  0  0  0  0  0  0  0  0  0
    1.2375    0.7145    0.0000 C   0  0  0  0  0  0  0  0  0  0  0  0
    1.9520    1.1270    0.0000 C   0  0  0  0  0  0  0  0  0  0  0  0
    2.6664    0.7145    0.0000 C   0  0  0  0  0  0  0  0  0  0  0  0
    3.3809    1.1270    0.0000 S   0  0  0  0  0  0  0  0  0  0  0  0
   -0.6039    1.4290    0.0000 H   0  0  0  0  0  0  0  0  0  0  0  0
   -0.9059    0.3020    0.0000 H   0  0  0  0  0  0  0  0  0  0  0  0
    0.2211    0.0000    0.0000 H   0  0  0  0  0  0  0  0  0  0  0  0
    0.8933    1.8642    0.0000 H   0  0  0  0  0  0  0  0  0  0  0  0
    0.1528    1.8642    0.0000 H   0  0  0  0  0  0  0  0  0  0  0  0
    0.8672   -0.0227    0.0000 H   0  0  0  0  0  0  0  0  0  0  0  0
    1.6078   -0.0227    0.0000 H   0  0  0  0  0  0  0  0  0  0  0  0
    2.3222    1.8642    0.0000 H   0  0  0  0  0  0  0  0  0  0  0  0
    1.5817    1.8642    0.0000 H   0  0  0  0  0  0  0  0  0  0  0  0
    2.2962   -0.0227    0.0000 H   0  0  0  0  0  0  0  0  0  0  0  0
    3.0367   -0.0227    0.0000 H   0  0  0  0  0  0  0  0  0  0  0  0
    4.0954    0.7145    0.0000 H   0  0  0  0  0  0  0  0  0  0  0  0
  1  2  1  0  0  0  0
  2  3  1  0  0  0  0
  3  4  1  0  0  0  0
  4  5  1  0  0  0  0
  5  6  1  0  0  0  0
  1  7  1  0  0  0  0
  1  8  1  0  0  0  0
  1  9  1  0  0  0  0
  2 10  1  0  0  0  0
  2 11  1  0  0  0  0
  3 12  1  0  0  0  0
  3 13  1  0  0  0  0
  4 14  1  0  0  0  0
  4 15  1  0  0  0  0
  5 16  1  0  0  0  0
  5 17  1  0  0  0  0
  6 18  1  0  0  0  0
M  END
>  <InChIKey>
InChI=1S/C5H12S/c1-2-3-4-5-6/h6H,2-5H2,1H3

>  <CASRN>
110-66-7

> <Outcome>
1

>  <Index>
3512

>  <StandardizerResult>
Clear Stereo (ID: ClearStereo)
Wedge Clean (ID: WedgeClean)
Mesomerize (ID: Mesomerize)
Tautomerize (ID: Tautomerize)
Add Explicit Hydrogens (ID: AddExplicitH)
Neutralize (ID: Neutralize)
Clean 2D (ID: Clean2D)

> <knn Distance>


> <CpId>
3512

$$$$
3513
  Mrv1532301301811342D          

 38 38  0  0  0  0            999 V2000
   -3.5728   -1.2368    0.0000 C   0  0  0  0  0  0  0  0  0  0  0  0
   -2.8583   -0.8243    0.0000 C   0  0  0  0  0  0  0  0  0  0  0  0
   -2.8583    0.0007    0.0000 C   0  0  0  0  0  0  0  0  0  0  0  0
   -2.1438    0.4132    0.0000 C   0  0  0  0  0  0  0  0  0  0  0  0
   -2.1438    1.2382    0.0000 O   0  0  0  0  0  0  0  0  0  0  0  0
   -1.4293    1.6507    0.0000 C   0  0  0  0  0  0  0  0  0  0  0  0
   -1.4293    2.4757    0.0000 C   0  0  0  0  0  0  0  0  0  0  0  0
   -0.7149    2.8882    0.0000 C   0  0  0  0  0  0  0  0  0  0  0  0
   -0.0004    2.4757    0.0000 C   0  0  0  0  0  0  0  0  0  0  0  0
    0.7141    2.8882    0.0000 O   0  0  0  0  0  0  0  0  0  0  0  0
    1.4285    2.4757    0.0000 C   0  0  0  0  0  0  0  0  0  0  0  0
    2.1430    2.8882    0.0000 C   0  0  0  0  0  0  0  0  0  0  0  0
    2.8575    2.4757    0.0000 C   0  0  0  0  0  0  0  0  0  0  0  0
    3.5719    2.8882    0.0000 C   0  0  0  0  0  0  0  0  0  0  0  0
   -0.0004    1.6507    0.0000 C   0  0  0  0  0  0  0  0  0  0  0  0
   -0.7149    1.2382    0.0000 C   0  0  0  0  0  0  0  0  0  0  0  0
   -3.9853   -0.5223    0.0000 H   0  0  0  0  0  0  0  0  0  0  0  0
   -4.2872   -1.6493    0.0000 H   0  0  0  0  0  0  0  0  0  0  0  0
   -3.1603   -1.9513    0.0000 H   0  0  0  0  0  0  0  0  0  0  0  0
   -2.4049   -1.5136    0.0000 H   0  0  0  0  0  0  0  0  0  0  0  0
   -2.0347   -0.8723    0.0000 H   0  0  0  0  0  0  0  0  0  0  0  0
   -3.3116    0.6900    0.0000 H   0  0  0  0  0  0  0  0  0  0  0  0
   -3.6819    0.0487    0.0000 H   0  0  0  0  0  0  0  0  0  0  0  0
   -1.6905   -0.2761    0.0000 H   0  0  0  0  0  0  0  0  0  0  0  0
   -1.3202    0.3652    0.0000 H   0  0  0  0  0  0  0  0  0  0  0  0
   -2.1438    2.8882    0.0000 H   0  0  0  0  0  0  0  0  0  0  0  0
   -0.7149    3.7132    0.0000 H   0  0  0  0  0  0  0  0  0  0  0  0
    1.0583    1.7384    0.0000 H   0  0  0  0  0  0  0  0  0  0  0  0
    1.7988    1.7384    0.0000 H   0  0  0  0  0  0  0  0  0  0  0  0
    2.5133    3.6254    0.0000 H   0  0  0  0  0  0  0  0  0  0  0  0
    1.7727    3.6254    0.0000 H   0  0  0  0  0  0  0  0  0  0  0  0
    2.4872    1.7384    0.0000 H   0  0  0  0  0  0  0  0  0  0  0  0
    3.2277    1.7384    0.0000 H   0  0  0  0  0  0  0  0  0  0  0  0
    3.9844    2.1737    0.0000 H   0  0  0  0  0  0  0  0  0  0  0  0
    4.2864    3.3007    0.0000 H   0  0  0  0  0  0  0  0  0  0  0  0
    3.1594    3.6027    0.0000 H   0  0  0  0  0  0  0  0  0  0  0  0
    0.7141    1.2382    0.0000 H   0  0  0  0  0  0  0  0  0  0  0  0
   -0.7149    0.4132    0.0000 H   0  0  0  0  0  0  0  0  0  0  0  0
  1  2  1  0  0  0  0
  2  3  1  0  0  0  0
  3  4  1  0  0  0  0
  4  5  1  0  0  0  0
  5  6  1  0  0  0  0
  6  7  4  0  0  0  0
  7  8  4  0  0  0  0
  8  9  4  0  0  0  0
  9 10  1  0  0  0  0
 10 11  1  0  0  0  0
 11 12  1  0  0  0  0
 12 13  1  0  0  0  0
 13 14  1  0  0  0  0
  9 15  4  0  0  0  0
 15 16  4  0  0  0  0
  6 16  4  0  0  0  0
  1 17  1  0  0  0  0
  1 18  1  0  0  0  0
  1 19  1  0  0  0  0
  2 20  1  0  0  0  0
  2 21  1  0  0  0  0
  3 22  1  0  0  0  0
  3 23  1  0  0  0  0
  4 24  1  0  0  0  0
  4 25  1  0  0  0  0
  7 26  1  0  0  0  0
  8 27  1  0  0  0  0
 11 28  1  0  0  0  0
 11 29  1  0  0  0  0
 12 30  1  0  0  0  0
 12 31  1  0  0  0  0
 13 32  1  0  0  0  0
 13 33  1  0  0  0  0
 14 34  1  0  0  0  0
 14 35  1  0  0  0  0
 14 36  1  0  0  0  0
 15 37  1  0  0  0  0
 16 38  1  0  0  0  0
M  END
>  <InChIKey>
InChI=1S/C14H22O2/c1-3-5-11-15-13-7-9-14(10-8-13)16-12-6-4-2/h7-10H,3-6,11-12H2,1-2H3

>  <UN GHS>
2B

>  <CASRN>
104-36-9

> <Outcome>
1

>  <Index>
3513

>  <StandardizerResult>
Dearomatize (ID: Dearomatize)
Clear Stereo (ID: ClearStereo)
Wedge Clean (ID: WedgeClean)
Mesomerize (ID: Mesomerize)
Tautomerize (ID: Tautomerize)
Aromatize (ID: Aromatize)
Add Explicit Hydrogens (ID: AddExplicitH)
Neutralize (ID: Neutralize)
Clean 2D (ID: Clean2D)

> <knn Distance>


> <CpId>
3513

$$$$
3517
  Mrv1532301301811342D          

 39 39  0  0  0  0            999 V2000
    0.6530   -2.1322    0.0000 C   0  0  0  0  0  0  0  0  0  0  0  0
    1.3675   -2.5447    0.0000 C   0  0  0  0  0  0  0  0  0  0  0  0
    1.3675   -3.3697    0.0000 C   0  0  0  0  0  0  0  0  0  0  0  0
    2.0820   -3.7822    0.0000 N   0  0  0  0  0  0  0  0  0  0  0  0
    2.7964   -3.3697    0.0000 C   0  0  0  0  0  0  0  0  0  0  0  0
    2.7964   -2.5447    0.0000 C   0  0  0  0  0  0  0  0  0  0  0  0
    3.5109   -2.1322    0.0000 C   0  0  0  0  0  0  0  0  0  0  0  0
    2.0820   -4.6072    0.0000 C   0  0  0  0  0  0  0  0  0  0  0  0
    2.7964   -5.0197    0.0000 C   0  0  0  0  0  0  0  0  0  0  0  0
    2.7964   -5.8447    0.0000 C   0  0  0  0  0  0  0  0  0  0  0  0
    2.0820   -6.2572    0.0000 C   0  0  0  0  0  0  0  0  0  0  0  0
    1.3675   -5.8447    0.0000 C   0  0  0  0  0  0  0  0  0  0  0  0
    1.3675   -5.0197    0.0000 C   0  0  0  0  0  0  0  0  0  0  0  0
    0.6530   -4.6072    0.0000 N   0  0  0  0  0  0  0  0  0  0  0  0
    0.6530   -3.7822    0.0000 O   0  0  0  0  0  0  0  0  0  0  0  0
   -0.0614   -5.0197    0.0000 O   0  0  0  0  0  0  0  0  0  0  0  0
    2.0820   -7.0822    0.0000 C   0  0  0  0  0  0  0  0  0  0  0  0
    2.0820   -7.9072    0.0000 F   0  0  0  0  0  0  0  0  0  0  0  0
    1.2570   -7.0822    0.0000 F   0  0  0  0  0  0  0  0  0  0  0  0
    2.9070   -7.0822    0.0000 F   0  0  0  0  0  0  0  0  0  0  0  0
    3.5109   -4.6072    0.0000 N   0  0  0  0  0  0  0  0  0  0  0  0
    4.2254   -5.0197    0.0000 O   0  0  0  0  0  0  0  0  0  0  0  0
    3.5109   -3.7822    0.0000 O   0  0  0  0  0  0  0  0  0  0  0  0
    1.0655   -1.4178    0.0000 H   0  0  0  0  0  0  0  0  0  0  0  0
   -0.0614   -1.7197    0.0000 H   0  0  0  0  0  0  0  0  0  0  0  0
    0.2405   -2.8467    0.0000 H   0  0  0  0  0  0  0  0  0  0  0  0
    2.1911   -2.4968    0.0000 H   0  0  0  0  0  0  0  0  0  0  0  0
    1.8208   -1.8555    0.0000 H   0  0  0  0  0  0  0  0  0  0  0  0
    0.6530   -2.9572    0.0000 H   0  0  0  0  0  0  0  0  0  0  0  0
    2.0820   -2.9572    0.0000 H   0  0  0  0  0  0  0  0  0  0  0  0
    2.7964   -4.1947    0.0000 H   0  0  0  0  0  0  0  0  0  0  0  0
    3.5109   -2.9572    0.0000 H   0  0  0  0  0  0  0  0  0  0  0  0
    2.9611   -1.7363    0.0000 H   0  0  0  0  0  0  0  0  0  0  0  0
    2.3002   -1.8857    0.0000 H   0  0  0  0  0  0  0  0  0  0  0  0
    4.2148   -2.5625    0.0000 H   0  0  0  0  0  0  0  0  0  0  0  0
    4.2452   -1.7561    0.0000 H   0  0  0  0  0  0  0  0  0  0  0  0
    3.5730   -1.3096    0.0000 H   0  0  0  0  0  0  0  0  0  0  0  0
    3.5109   -6.2572    0.0000 H   0  0  0  0  0  0  0  0  0  0  0  0
    0.6530   -6.2572    0.0000 H   0  0  0  0  0  0  0  0  0  0  0  0
  1  2  1  0  0  0  0
  2  3  1  0  0  0  0
  3  4  1  0  0  0  0
  4  5  1  0  0  0  0
  5  6  1  0  0  0  0
  6  7  1  0  0  0  0
  4  8  1  0  0  0  0
  8  9  4  0  0  0  0
  9 10  4  0  0  0  0
 10 11  4  0  0  0  0
 11 12  4  0  0  0  0
 12 13  4  0  0  0  0
  8 13  4  0  0  0  0
 13 14  1  0  0  0  0
 14 15  2  0  0  0  0
 14 16  2  0  0  0  0
 11 17  1  0  0  0  0
 17 18  1  0  0  0  0
 17 19  1  0  0  0  0
 17 20  1  0  0  0  0
  9 21  1  0  0  0  0
 21 22  2  0  0  0  0
 21 23  2  0  0  0  0
  1 24  1  0  0  0  0
  1 25  1  0  0  0  0
  1 26  1  0  0  0  0
  2 27  1  0  0  0  0
  2 28  1  0  0  0  0
  3 29  1  0  0  0  0
  3 30  1  0  0  0  0
  5 31  1  0  0  0  0
  5 32  1  0  0  0  0
  6 33  1  0  0  0  0
  6 34  1  0  0  0  0
  7 35  1  0  0  0  0
  7 36  1  0  0  0  0
  7 37  1  0  0  0  0
 10 38  1  0  0  0  0
 12 39  1  0  0  0  0
M  END
>  <InChIKey>
InChI=1S/C13H16F3N3O4/c1-3-5-17(6-4-2)12-10(18(20)21)7-9(13(14,15)16)8-11(12)19(22)23/h7-8H,3-6H2,1-2H3

>  <CASRN>
1582-09-8

> <Outcome>
1

>  <Index>
3517

>  <StandardizerResult>
Dearomatize (ID: Dearomatize)
Clear Stereo (ID: ClearStereo)
Wedge Clean (ID: WedgeClean)
Mesomerize (ID: Mesomerize)
Tautomerize (ID: Tautomerize)
Aromatize (ID: Aromatize)
Add Explicit Hydrogens (ID: AddExplicitH)
Neutralize (ID: Neutralize)
Clean 2D (ID: Clean2D)

> <knn Distance>


> <CpId>
3517

$$$$
3522
  Mrv1532301301811342D          

 11 11  0  0  0  0            999 V2000
    0.5678    1.1125    0.0000 C   0  0  0  0  0  0  0  0  0  0  0  0
    1.2352    0.6276    0.0000 C   0  0  0  0  0  0  0  0  0  0  0  0
    0.9803   -0.1570    0.0000 C   0  0  0  0  0  0  0  0  0  0  0  0
    0.1553   -0.1570    0.0000 C   0  0  0  0  0  0  0  0  0  0  0  0
   -0.0996    0.6276    0.0000 C   0  0  0  0  0  0  0  0  0  0  0  0
    0.9551    1.8410    0.0000 H   0  0  0  0  0  0  0  0  0  0  0  0
    0.1805    1.8410    0.0000 H   0  0  0  0  0  0  0  0  0  0  0  0
    2.0199    0.8825    0.0000 H   0  0  0  0  0  0  0  0  0  0  0  0
    1.4652   -0.8245    0.0000 H   0  0  0  0  0  0  0  0  0  0  0  0
   -0.3296   -0.8245    0.0000 H   0  0  0  0  0  0  0  0  0  0  0  0
   -0.8843    0.8825    0.0000 H   0  0  0  0  0  0  0  0  0  0  0  0
  1  2  1  0  0  0  0
  2  3  2  0  0  0  0
  3  4  1  0  0  0  0
  4  5  2  0  0  0  0
  1  5  1  0  0  0  0
  1  6  1  0  0  0  0
  1  7  1  0  0  0  0
  2  8  1  0  0  0  0
  3  9  1  0  0  0  0
  4 10  1  0  0  0  0
  5 11  1  0  0  0  0
M  END
>  <InChIKey>
InChI=1S/C5H6/c1-2-4-5-3-1/h1-4H,5H2

>  <CASRN>
542-92-7

> <Outcome>
1

>  <Index>
3522

>  <StandardizerResult>
Clear Stereo (ID: ClearStereo)
Wedge Clean (ID: WedgeClean)
Mesomerize (ID: Mesomerize)
Tautomerize (ID: Tautomerize)
Add Explicit Hydrogens (ID: AddExplicitH)
Neutralize (ID: Neutralize)
Clean 2D (ID: Clean2D)

> <knn Distance>


> <CpId>
3522

$$$$
3523
  Mrv1532301301811342D          

 13 12  0  0  0  0            999 V2000
    2.4750   -1.4289    0.0000 C   0  0  0  0  0  0  0  0  0  0  0  0
    2.0625   -0.7145    0.0000 C   0  0  0  0  0  0  0  0  0  0  0  0
    1.2375   -0.7145    0.0000 C   0  0  0  0  0  0  0  0  0  0  0  0
    0.8250    0.0000    0.0000 C   0  0  0  0  0  0  0  0  0  0  0  0
    0.0000    0.0000    0.0000 O   0  0  0  0  0  0  0  0  0  0  0  0
    1.7605   -1.8414    0.0000 H   0  0  0  0  0  0  0  0  0  0  0  0
    2.8875   -2.1434    0.0000 H   0  0  0  0  0  0  0  0  0  0  0  0
    3.1895   -1.0164    0.0000 H   0  0  0  0  0  0  0  0  0  0  0  0
    2.7518   -0.2611    0.0000 H   0  0  0  0  0  0  0  0  0  0  0  0
    2.1105    0.1091    0.0000 H   0  0  0  0  0  0  0  0  0  0  0  0
    0.5482   -1.1678    0.0000 H   0  0  0  0  0  0  0  0  0  0  0  0
    1.1895   -1.5381    0.0000 H   0  0  0  0  0  0  0  0  0  0  0  0
    1.2375    0.7145    0.0000 H   0  0  0  0  0  0  0  0  0  0  0  0
  1  2  1  0  0  0  0
  2  3  1  0  0  0  0
  3  4  1  0  0  0  0
  4  5  2  0  0  0  0
  1  6  1  0  0  0  0
  1  7  1  0  0  0  0
  1  8  1  0  0  0  0
  2  9  1  0  0  0  0
  2 10  1  0  0  0  0
  3 11  1  0  0  0  0
  3 12  1  0  0  0  0
  4 13  1  0  0  0  0
M  END
>  <InChIKey>
InChI=1S/C4H8O/c1-2-3-4-5/h4H,2-3H2,1H3

>  <UN GHS>
2B

>  <CASRN>
123-72-8

> <Outcome>
1

>  <Index>
3523

>  <StandardizerResult>
Clear Stereo (ID: ClearStereo)
Wedge Clean (ID: WedgeClean)
Mesomerize (ID: Mesomerize)
Tautomerize (ID: Tautomerize)
Add Explicit Hydrogens (ID: AddExplicitH)
Neutralize (ID: Neutralize)
Clean 2D (ID: Clean2D)

> <knn Distance>


> <CpId>
3523

$$$$
3526
  Mrv1532301301811342D          

 22 23  0  0  0  0            999 V2000
    0.7145    1.2375    0.0000 C   0  0  0  0  0  0  0  0  0  0  0  0
    1.4289    0.8250    0.0000 C   0  0  0  0  0  0  0  0  0  0  0  0
    1.4289   -0.0000    0.0000 C   0  0  0  0  0  0  0  0  0  0  0  0
    0.7145   -0.4125    0.0000 C   0  0  0  0  0  0  0  0  0  0  0  0
   -0.0000    0.0000    0.0000 C   0  0  0  0  0  0  0  0  0  0  0  0
   -0.0000    0.8250    0.0000 C   0  0  0  0  0  0  0  0  0  0  0  0
    0.7145   -1.2375    0.0000 C   0  0  0  0  0  0  0  0  0  0  0  0
    1.4289   -1.6500    0.0000 C   0  0  0  0  0  0  0  0  0  0  0  0
    1.4289   -2.4750    0.0000 C   0  0  0  0  0  0  0  0  0  0  0  0
    0.7145   -2.8875    0.0000 C   0  0  0  0  0  0  0  0  0  0  0  0
   -0.0000   -2.4750    0.0000 C   0  0  0  0  0  0  0  0  0  0  0  0
   -0.0000   -1.6500    0.0000 C   0  0  0  0  0  0  0  0  0  0  0  0
    0.7145    2.0625    0.0000 H   0  0  0  0  0  0  0  0  0  0  0  0
    2.1434    1.2375    0.0000 H   0  0  0  0  0  0  0  0  0  0  0  0
    2.1434   -0.4125    0.0000 H   0  0  0  0  0  0  0  0  0  0  0  0
   -0.7145   -0.4125    0.0000 H   0  0  0  0  0  0  0  0  0  0  0  0
   -0.7145    1.2375    0.0000 H   0  0  0  0  0  0  0  0  0  0  0  0
    2.1434   -1.2375    0.0000 H   0  0  0  0  0  0  0  0  0  0  0  0
    2.1434   -2.8875    0.0000 H   0  0  0  0  0  0  0  0  0  0  0  0
    0.7145   -3.7125    0.0000 H   0  0  0  0  0  0  0  0  0  0  0  0
   -0.7145   -2.8875    0.0000 H   0  0  0  0  0  0  0  0  0  0  0  0
   -0.7145   -1.2375    0.0000 H   0  0  0  0  0  0  0  0  0  0  0  0
  1  2  4  0  0  0  0
  2  3  4  0  0  0  0
  3  4  4  0  0  0  0
  4  5  4  0  0  0  0
  5  6  4  0  0  0  0
  1  6  4  0  0  0  0
  4  7  1  0  0  0  0
  7  8  4  0  0  0  0
  8  9  4  0  0  0  0
  9 10  4  0  0  0  0
 10 11  4  0  0  0  0
 11 12  4  0  0  0  0
  7 12  4  0  0  0  0
  1 13  1  0  0  0  0
  2 14  1  0  0  0  0
  3 15  1  0  0  0  0
  5 16  1  0  0  0  0
  6 17  1  0  0  0  0
  8 18  1  0  0  0  0
  9 19  1  0  0  0  0
 10 20  1  0  0  0  0
 11 21  1  0  0  0  0
 12 22  1  0  0  0  0
M  END
>  <InChIKey>
InChI=1S/C12H10/c1-3-7-11(8-4-1)12-9-5-2-6-10-12/h1-10H

>  <CASRN>
92-52-4

> <Outcome>
1

>  <Index>
3526

>  <StandardizerResult>
Dearomatize (ID: Dearomatize)
Clear Stereo (ID: ClearStereo)
Wedge Clean (ID: WedgeClean)
Mesomerize (ID: Mesomerize)
Tautomerize (ID: Tautomerize)
Aromatize (ID: Aromatize)
Add Explicit Hydrogens (ID: AddExplicitH)
Neutralize (ID: Neutralize)
Clean 2D (ID: Clean2D)

> <knn Distance>


> <CpId>
3526

$$$$
3528
  Mrv1532301301811342D          

 13 12  0  0  0  0            999 V2000
    0.8236    1.4289    0.0000 C   0  0  0  0  0  0  0  0  0  0  0  0
    1.2361    0.7145    0.0000 C   0  0  0  0  0  0  0  0  0  0  0  0
    0.8236   -0.0000    0.0000 C   0  0  0  0  0  0  0  0  0  0  0  0
    1.2361   -0.7145    0.0000 C   0  0  0  0  0  0  0  0  0  0  0  0
   -0.0014   -0.0000    0.0000 O   0  0  0  0  0  0  0  0  0  0  0  0
    1.5381    1.8414    0.0000 H   0  0  0  0  0  0  0  0  0  0  0  0
    0.4111    2.1434    0.0000 H   0  0  0  0  0  0  0  0  0  0  0  0
    0.1092    1.0164    0.0000 H   0  0  0  0  0  0  0  0  0  0  0  0
    1.9734    0.3442    0.0000 H   0  0  0  0  0  0  0  0  0  0  0  0
    1.9734    1.0847    0.0000 H   0  0  0  0  0  0  0  0  0  0  0  0
    0.5217   -1.1270    0.0000 H   0  0  0  0  0  0  0  0  0  0  0  0
    1.6486   -1.4290    0.0000 H   0  0  0  0  0  0  0  0  0  0  0  0
    1.9506   -0.3020    0.0000 H   0  0  0  0  0  0  0  0  0  0  0  0
  1  2  1  0  0  0  0
  2  3  1  0  0  0  0
  3  4  1  0  0  0  0
  3  5  2  0  0  0  0
  1  6  1  0  0  0  0
  1  7  1  0  0  0  0
  1  8  1  0  0  0  0
  2  9  1  0  0  0  0
  2 10  1  0  0  0  0
  4 11  1  0  0  0  0
  4 12  1  0  0  0  0
  4 13  1  0  0  0  0
M  END
>  <InChIKey>
InChI=1S/C4H8O/c1-3-4(2)5/h3H2,1-2H3

>  <UN GHS>
2A

>  <CASRN>
78-93-3  78-93-3

> <Outcome>
1

>  <Index>
3528

>  <StandardizerResult>
Clear Stereo (ID: ClearStereo)
Wedge Clean (ID: WedgeClean)
Mesomerize (ID: Mesomerize)
Tautomerize (ID: Tautomerize)
Add Explicit Hydrogens (ID: AddExplicitH)
Neutralize (ID: Neutralize)
Clean 2D (ID: Clean2D)

> <knn Distance>


> <CpId>
3528

$$$$
3529
  Mrv1532301301811342D          

 74 78  0  0  0  0            999 V2000
    2.1432  -13.6126    0.0000 C   0  0  0  0  0  0  0  0  0  0  0  0
    2.1432  -12.7876    0.0000 C   0  0  0  0  0  0  0  0  0  0  0  0
    1.4287  -12.3751    0.0000 O   0  0  0  0  0  0  0  0  0  0  0  0
    1.4287  -11.5501    0.0000 C   0  0  0  0  0  0  0  0  0  0  0  0
    0.7143  -11.1376    0.0000 C   0  0  0  0  0  0  0  0  0  0  0  0
    0.7143  -10.3126    0.0000 C   0  0  0  0  0  0  0  0  0  0  0  0
    1.4287   -9.9001    0.0000 C   0  0  0  0  0  0  0  0  0  0  0  0
    2.1432  -10.3126    0.0000 C   0  0  0  0  0  0  0  0  0  0  0  0
    2.1432  -11.1376    0.0000 C   0  0  0  0  0  0  0  0  0  0  0  0
    1.4287   -9.0751    0.0000 N   0  0  0  0  0  0  0  0  0  0  0  0
    0.7143   -8.6626    0.0000 N   0  0  0  0  0  0  0  0  0  0  0  0
    0.7143   -7.8376    0.0000 C   0  0  0  0  0  0  0  0  0  0  0  0
   -0.0002   -7.4251    0.0000 C   0  0  0  0  0  0  0  0  0  0  0  0
   -0.0002   -6.6001    0.0000 C   0  0  0  0  0  0  0  0  0  0  0  0
    0.7143   -6.1876    0.0000 C   0  0  0  0  0  0  0  0  0  0  0  0
    1.4287   -6.6001    0.0000 C   0  0  0  0  0  0  0  0  0  0  0  0
    1.4287   -7.4251    0.0000 C   0  0  0  0  0  0  0  0  0  0  0  0
    2.1432   -7.8376    0.0000 C   0  0  0  0  0  0  0  0  0  0  0  0
    0.7143   -5.3626    0.0000 C   0  0  0  0  0  0  0  0  0  0  0  0
    1.4287   -4.9501    0.0000 C   0  0  0  0  0  0  0  0  0  0  0  0
    1.4287   -4.1251    0.0000 C   0  0  0  0  0  0  0  0  0  0  0  0
    0.7143   -3.7126    0.0000 C   0  0  0  0  0  0  0  0  0  0  0  0
    0.7143   -2.8876    0.0000 N   0  0  0  0  0  0  0  0  0  0  0  0
    1.4287   -2.4751    0.0000 N   0  0  0  0  0  0  0  0  0  0  0  0
    1.4287   -1.6501    0.0000 C   0  0  0  0  0  0  0  0  0  0  0  0
    0.7143   -1.2376    0.0000 C   0  0  0  0  0  0  0  0  0  0  0  0
   -0.0002   -1.6501    0.0000 O   0  0  0  0  0  0  0  0  0  0  0  0
    0.7143   -0.4126    0.0000 C   0  0  0  0  0  0  0  0  0  0  0  0
    1.4287   -0.0001    0.0000 C   0  0  0  0  0  0  0  0  0  0  0  0
    2.1432   -0.4126    0.0000 C   0  0  0  0  0  0  0  0  0  0  0  0
    2.8577   -0.0001    0.0000 C   0  0  0  0  0  0  0  0  0  0  0  0
    3.5721   -0.4126    0.0000 C   0  0  0  0  0  0  0  0  0  0  0  0
    3.5721   -1.2376    0.0000 C   0  0  0  0  0  0  0  0  0  0  0  0
    2.8577   -1.6501    0.0000 C   0  0  0  0  0  0  0  0  0  0  0  0
    2.1432   -1.2376    0.0000 C   0  0  0  0  0  0  0  0  0  0  0  0
    2.8577   -2.4751    0.0000 S   0  0  0  0  0  0  0  0  0  0  0  0
    2.8577   -3.3001    0.0000 O   0  0  0  0  0  0  0  0  0  0  0  0
    2.0327   -2.4751    0.0000 O   0  0  0  0  0  0  0  0  0  0  0  0
    3.6827   -2.4751    0.0000 O   0  0  0  0  0  0  0  0  0  0  0  0
    4.2866   -0.0001    0.0000 S   0  0  0  0  0  0  0  0  0  0  0  0
    5.0011    0.4124    0.0000 O   0  0  0  0  0  0  0  0  0  0  0  0
    4.6991   -0.7146    0.0000 O   0  0  0  0  0  0  0  0  0  0  0  0
    3.8741    0.7144    0.0000 O   0  0  0  0  0  0  0  0  0  0  0  0
   -0.0002   -4.1251    0.0000 C   0  0  0  0  0  0  0  0  0  0  0  0
   -0.7147   -3.7126    0.0000 C   0  0  0  0  0  0  0  0  0  0  0  0
   -0.0002   -4.9501    0.0000 C   0  0  0  0  0  0  0  0  0  0  0  0
    1.3182  -13.6126    0.0000 H   0  0  0  0  0  0  0  0  0  0  0  0
    2.1432  -14.4376    0.0000 H   0  0  0  0  0  0  0  0  0  0  0  0
    2.9682  -13.6126    0.0000 H   0  0  0  0  0  0  0  0  0  0  0  0
    2.9668  -12.7397    0.0000 H   0  0  0  0  0  0  0  0  0  0  0  0
    2.5965  -12.0983    0.0000 H   0  0  0  0  0  0  0  0  0  0  0  0
   -0.0002  -11.5501    0.0000 H   0  0  0  0  0  0  0  0  0  0  0  0
   -0.0002   -9.9001    0.0000 H   0  0  0  0  0  0  0  0  0  0  0  0
    2.8577   -9.9001    0.0000 H   0  0  0  0  0  0  0  0  0  0  0  0
    2.8577  -11.5501    0.0000 H   0  0  0  0  0  0  0  0  0  0  0  0
   -0.7147   -7.8376    0.0000 H   0  0  0  0  0  0  0  0  0  0  0  0
   -0.7147   -6.1876    0.0000 H   0  0  0  0  0  0  0  0  0  0  0  0
    2.1432   -6.1876    0.0000 H   0  0  0  0  0  0  0  0  0  0  0  0
    1.7307   -8.5521    0.0000 H   0  0  0  0  0  0  0  0  0  0  0  0
    2.8577   -8.2501    0.0000 H   0  0  0  0  0  0  0  0  0  0  0  0
    2.5557   -7.1231    0.0000 H   0  0  0  0  0  0  0  0  0  0  0  0
    2.1432   -5.3626    0.0000 H   0  0  0  0  0  0  0  0  0  0  0  0
    2.1432   -3.7126    0.0000 H   0  0  0  0  0  0  0  0  0  0  0  0
   -0.0002   -2.4751    0.0000 H   0  0  0  0  0  0  0  0  0  0  0  0
   -0.0002   -0.0001    0.0000 H   0  0  0  0  0  0  0  0  0  0  0  0
    1.4287    0.8249    0.0000 H   0  0  0  0  0  0  0  0  0  0  0  0
    2.8577    0.8249    0.0000 H   0  0  0  0  0  0  0  0  0  0  0  0
    4.2866   -1.6501    0.0000 H   0  0  0  0  0  0  0  0  0  0  0  0
    3.5721   -3.7126    0.0000 H   0  0  0  0  0  0  0  0  0  0  0  0
    5.7156   -0.0001    0.0000 H   0  0  0  0  0  0  0  0  0  0  0  0
   -0.3022   -2.9981    0.0000 H   0  0  0  0  0  0  0  0  0  0  0  0
   -1.4292   -3.3001    0.0000 H   0  0  0  0  0  0  0  0  0  0  0  0
   -1.1272   -4.4271    0.0000 H   0  0  0  0  0  0  0  0  0  0  0  0
   -0.7147   -5.3626    0.0000 H   0  0  0  0  0  0  0  0  0  0  0  0
  1  2  1  0  0  0  0
  2  3  1  0  0  0  0
  3  4  1  0  0  0  0
  4  5  4  0  0  0  0
  5  6  4  0  0  0  0
  6  7  4  0  0  0  0
  7  8  4  0  0  0  0
  8  9  4  0  0  0  0
  4  9  4  0  0  0  0
 10  7  1  4  0  0  0
 10 11  2  0  0  0  0
 11 12  1  0  0  0  0
 12 13  4  0  0  0  0
 13 14  4  0  0  0  0
 14 15  4  0  0  0  0
 15 16  4  0  0  0  0
 16 17  4  0  0  0  0
 12 17  4  0  0  0  0
 17 18  1  0  0  0  0
 15 19  1  0  0  0  0
 19 20  4  0  0  0  0
 20 21  4  0  0  0  0
 21 22  4  0  0  0  0
 22 23  1  0  0  0  0
 24 23  1  4  0  0  0
 24 25  2  0  0  0  0
 25 26  1  0  0  0  0
 26 27  2  0  0  0  0
 26 28  1  0  0  0  0
 28 29  2  0  0  0  0
 29 30  1  0  0  0  0
 30 31  4  0  0  0  0
 31 32  4  0  0  0  0
 32 33  4  0  0  0  0
 33 34  4  0  0  0  0
 34 35  4  0  0  0  0
 25 35  1  0  0  0  0
 30 35  4  0  0  0  0
 34 36  1  0  0  0  0
 36 37  1  0  0  0  0
 36 38  2  0  0  0  0
 36 39  2  0  0  0  0
 32 40  1  0  0  0  0
 40 41  1  0  0  0  0
 40 42  2  0  0  0  0
 40 43  2  0  0  0  0
 22 44  4  0  0  0  0
 44 45  1  0  0  0  0
 44 46  4  0  0  0  0
 19 46  4  0  0  0  0
  1 47  1  0  0  0  0
  1 48  1  0  0  0  0
  1 49  1  0  0  0  0
  2 50  1  0  0  0  0
  2 51  1  0  0  0  0
  5 52  1  0  0  0  0
  6 53  1  0  0  0  0
  8 54  1  0  0  0  0
  9 55  1  0  0  0  0
 13 56  1  0  0  0  0
 14 57  1  0  0  0  0
 16 58  1  0  0  0  0
 18 59  1  0  0  0  0
 18 60  1  0  0  0  0
 18 61  1  0  0  0  0
 20 62  1  0  0  0  0
 21 63  1  0  0  0  0
 23 64  1  0  0  0  0
 28 65  1  0  0  0  0
 29 66  1  0  0  0  0
 31 67  1  0  0  0  0
 33 68  1  0  0  0  0
 37 69  1  0  0  0  0
 41 70  1  0  0  0  0
 45 71  1  0  0  0  0
 45 72  1  0  0  0  0
 45 73  1  0  0  0  0
 46 74  1  0  0  0  0
M  END
>  <InChIKey>
InChI=1S/C32H28N4O8S2/c1-4-44-25-10-8-24(9-11-25)33-34-27-12-5-21(15-19(27)2)22-6-13-28(20(3)16-22)35-36-32-29(37)14-7-23-17-26(45(38,39)40)18-30(31(23)32)46(41,42)43/h5-18,35H,4H2,1-3H3,(H,38,39,40)(H,41,42,43)

>  <CASRN>
6358-29-8

> <Outcome>
1

>  <Index>
3529

>  <StandardizerResult>
Dearomatize (ID: Dearomatize)
Clear Stereo (ID: ClearStereo)
Wedge Clean (ID: WedgeClean)
Mesomerize (ID: Mesomerize)
Tautomerize (ID: Tautomerize)
Aromatize (ID: Aromatize)
Add Explicit Hydrogens (ID: AddExplicitH)
Neutralize (ID: Neutralize)
Clean 2D (ID: Clean2D)

> <knn Distance>


> <CpId>
3529

$$$$
3530
  Mrv1532301301811342D          

 28 27  0  0  0  0            999 V2000
    0.1905   -2.9817    0.0000 C   0  0  0  0  0  0  0  0  0  0  0  0
    0.1905   -2.1567    0.0000 C   0  0  0  0  0  0  0  0  0  0  0  0
    1.0155   -2.1567    0.0000 C   0  0  0  0  0  0  0  0  0  0  0  0
   -0.6345   -2.1567    0.0000 O   0  0  0  0  0  0  0  0  0  0  0  0
    0.1905   -1.3317    0.0000 C   0  0  0  0  0  0  0  0  0  0  0  0
    0.9050   -0.9192    0.0000 C   0  0  0  0  0  0  0  0  0  0  0  0
    0.9050   -0.0942    0.0000 C   0  0  0  0  0  0  0  0  0  0  0  0
    0.9050    0.7308    0.0000 C   0  0  0  0  0  0  0  0  0  0  0  0
    1.7300   -0.0942    0.0000 C   0  0  0  0  0  0  0  0  0  0  0  0
    0.0800   -0.0942    0.0000 O   0  0  0  0  0  0  0  0  0  0  0  0
   -0.6345   -2.9817    0.0000 H   0  0  0  0  0  0  0  0  0  0  0  0
    0.1905   -3.8067    0.0000 H   0  0  0  0  0  0  0  0  0  0  0  0
    1.0155   -2.9817    0.0000 H   0  0  0  0  0  0  0  0  0  0  0  0
    1.7777   -2.4724    0.0000 H   0  0  0  0  0  0  0  0  0  0  0  0
    1.5989   -1.5733    0.0000 H   0  0  0  0  0  0  0  0  0  0  0  0
    0.6998   -1.3945    0.0000 H   0  0  0  0  0  0  0  0  0  0  0  0
   -1.2178   -1.5733    0.0000 H   0  0  0  0  0  0  0  0  0  0  0  0
   -0.2628   -0.6424    0.0000 H   0  0  0  0  0  0  0  0  0  0  0  0
   -0.6331   -1.2837    0.0000 H   0  0  0  0  0  0  0  0  0  0  0  0
    1.6625   -0.5923    0.0000 H   0  0  0  0  0  0  0  0  0  0  0  0
    0.1905   -0.5067    0.0000 H   0  0  0  0  0  0  0  0  0  0  0  0
    1.7300    0.7308    0.0000 H   0  0  0  0  0  0  0  0  0  0  0  0
    0.9050    1.5558    0.0000 H   0  0  0  0  0  0  0  0  0  0  0  0
    0.0800    0.7308    0.0000 H   0  0  0  0  0  0  0  0  0  0  0  0
    2.2515   -0.7335    0.0000 H   0  0  0  0  0  0  0  0  0  0  0  0
    2.5531   -0.1498    0.0000 H   0  0  0  0  0  0  0  0  0  0  0  0
    2.3327    0.4692    0.0000 H   0  0  0  0  0  0  0  0  0  0  0  0
   -0.7130    0.1333    0.0000 H   0  0  0  0  0  0  0  0  0  0  0  0
  1  2  1  0  0  0  0
  2  3  1  0  0  0  0
  2  4  1  0  0  0  0
  2  5  1  0  0  0  0
  5  6  1  0  0  0  0
  6  7  1  0  0  0  0
  7  8  1  0  0  0  0
  7  9  1  0  0  0  0
  7 10  1  0  0  0  0
  1 11  1  0  0  0  0
  1 12  1  0  0  0  0
  1 13  1  0  0  0  0
  3 14  1  0  0  0  0
  3 15  1  0  0  0  0
  3 16  1  0  0  0  0
  4 17  1  0  0  0  0
  5 18  1  0  0  0  0
  5 19  1  0  0  0  0
  6 20  1  0  0  0  0
  6 21  1  0  0  0  0
  8 22  1  0  0  0  0
  8 23  1  0  0  0  0
  8 24  1  0  0  0  0
  9 25  1  0  0  0  0
  9 26  1  0  0  0  0
  9 27  1  0  0  0  0
 10 28  1  0  0  0  0
M  END
>  <InChIKey>
InChI=1S/C8H18O2/c1-7(2,9)5-6-8(3,4)10/h9-10H,5-6H2,1-4H3

>  <UN GHS>
1

>  <CASRN>
110-03-2

> <Outcome>
1

>  <Index>
3530

>  <StandardizerResult>
Clear Stereo (ID: ClearStereo)
Wedge Clean (ID: WedgeClean)
Mesomerize (ID: Mesomerize)
Tautomerize (ID: Tautomerize)
Add Explicit Hydrogens (ID: AddExplicitH)
Neutralize (ID: Neutralize)
Clean 2D (ID: Clean2D)

> <knn Distance>


> <CpId>
3530

$$$$
3531
  Mrv1532301301811342D          

 16 16  0  0  0  0            999 V2000
    0.7145    2.0625    0.0000 N   0  0  0  0  0  0  0  0  0  0  0  0
    0.7145    1.2375    0.0000 C   0  0  0  0  0  0  0  0  0  0  0  0
    1.4289    0.8250    0.0000 C   0  0  0  0  0  0  0  0  0  0  0  0
    1.4289    0.0000    0.0000 C   0  0  0  0  0  0  0  0  0  0  0  0
    0.7145   -0.4125    0.0000 C   0  0  0  0  0  0  0  0  0  0  0  0
    0.7145   -1.2375    0.0000 Cl  0  0  0  0  0  0  0  0  0  0  0  0
   -0.0000    0.0000    0.0000 C   0  0  0  0  0  0  0  0  0  0  0  0
   -0.7145   -0.4125    0.0000 N   0  0  0  0  0  0  0  0  0  0  0  0
   -0.0000    0.8250    0.0000 C   0  0  0  0  0  0  0  0  0  0  0  0
    1.4289    2.4750    0.0000 H   0  0  0  0  0  0  0  0  0  0  0  0
   -0.0000    2.4750    0.0000 H   0  0  0  0  0  0  0  0  0  0  0  0
    2.1434    1.2375    0.0000 H   0  0  0  0  0  0  0  0  0  0  0  0
    2.1434   -0.4125    0.0000 H   0  0  0  0  0  0  0  0  0  0  0  0
   -1.4289    0.0000    0.0000 H   0  0  0  0  0  0  0  0  0  0  0  0
   -0.7145   -1.2375    0.0000 H   0  0  0  0  0  0  0  0  0  0  0  0
   -0.7145    1.2375    0.0000 H   0  0  0  0  0  0  0  0  0  0  0  0
  1  2  1  0  0  0  0
  2  3  4  0  0  0  0
  3  4  4  0  0  0  0
  4  5  4  0  0  0  0
  5  6  1  0  0  0  0
  5  7  4  0  0  0  0
  7  8  1  0  0  0  0
  7  9  4  0  0  0  0
  2  9  4  0  0  0  0
  1 10  1  0  0  0  0
  1 11  1  0  0  0  0
  3 12  1  0  0  0  0
  4 13  1  0  0  0  0
  8 14  1  0  0  0  0
  8 15  1  0  0  0  0
  9 16  1  0  0  0  0
M  END
>  <InChIKey>
InChI=1S/C6H7ClN2/c7-5-2-1-4(8)3-6(5)9/h1-3H,8-9H2

>  <CASRN>
5131-60-2

> <Outcome>
1

>  <Index>
3531

>  <StandardizerResult>
Dearomatize (ID: Dearomatize)
Clear Stereo (ID: ClearStereo)
Wedge Clean (ID: WedgeClean)
Mesomerize (ID: Mesomerize)
Tautomerize (ID: Tautomerize)
Aromatize (ID: Aromatize)
Add Explicit Hydrogens (ID: AddExplicitH)
Neutralize (ID: Neutralize)
Clean 2D (ID: Clean2D)

> <knn Distance>


> <CpId>
3531

$$$$
3533
  Mrv1532301301811342D          

  4  3  0  0  0  0            999 V2000
    1.2375    0.7145    0.0000 Cl  0  0  0  0  0  0  0  0  0  0  0  0
    0.8250   -0.0000    0.0000 C   0  0  0  0  0  0  0  0  0  0  0  0
    1.2375   -0.7145    0.0000 Cl  0  0  0  0  0  0  0  0  0  0  0  0
    0.0000   -0.0000    0.0000 S   0  0  0  0  0  0  0  0  0  0  0  0
  1  2  1  0  0  0  0
  2  3  1  0  0  0  0
  2  4  2  0  0  0  0
M  END
>  <InChIKey>
InChI=1S/CCl2S/c2-1(3)4

>  <CASRN>
463-71-8

> <Outcome>
1

>  <Index>
3533

>  <StandardizerResult>
Clear Stereo (ID: ClearStereo)
Wedge Clean (ID: WedgeClean)
Mesomerize (ID: Mesomerize)
Tautomerize (ID: Tautomerize)
Clean 2D (ID: Clean2D)

> <knn Distance>


> <CpId>
3533

$$$$
3537
  Mrv1532301301811342D          

 20 20  0  0  0  0            999 V2000
    0.7145    2.0625    0.0000 C   0  0  0  0  0  0  0  0  0  0  0  0
    0.7145    1.2375    0.0000 C   0  0  0  0  0  0  0  0  0  0  0  0
    1.4289    0.8250    0.0000 C   0  0  0  0  0  0  0  0  0  0  0  0
    1.4289   -0.0000    0.0000 C   0  0  0  0  0  0  0  0  0  0  0  0
    0.7145   -0.4125    0.0000 C   0  0  0  0  0  0  0  0  0  0  0  0
    0.0000   -0.0000    0.0000 C   0  0  0  0  0  0  0  0  0  0  0  0
    0.0000    0.8250    0.0000 C   0  0  0  0  0  0  0  0  0  0  0  0
   -0.7145    1.2375    0.0000 O   0  0  0  0  0  0  0  0  0  0  0  0
   -0.7145   -0.4125    0.0000 N   0  0  0  0  0  0  0  0  0  0  0  0
   -1.4289   -0.0000    0.0000 O   0  0  0  0  0  0  0  0  0  0  0  0
   -0.7145   -1.2375    0.0000 O   0  0  0  0  0  0  0  0  0  0  0  0
    2.1434   -0.4125    0.0000 N   0  0  0  0  0  0  0  0  0  0  0  0
    2.8579   -0.0000    0.0000 O   0  0  0  0  0  0  0  0  0  0  0  0
    2.1434   -1.2375    0.0000 O   0  0  0  0  0  0  0  0  0  0  0  0
    1.5395    2.0625    0.0000 H   0  0  0  0  0  0  0  0  0  0  0  0
    0.7145    2.8875    0.0000 H   0  0  0  0  0  0  0  0  0  0  0  0
   -0.1105    2.0625    0.0000 H   0  0  0  0  0  0  0  0  0  0  0  0
    2.1434    1.2375    0.0000 H   0  0  0  0  0  0  0  0  0  0  0  0
    0.7145   -1.2375    0.0000 H   0  0  0  0  0  0  0  0  0  0  0  0
   -0.7145    2.0625    0.0000 H   0  0  0  0  0  0  0  0  0  0  0  0
  1  2  1  0  0  0  0
  2  3  4  0  0  0  0
  3  4  4  0  0  0  0
  4  5  4  0  0  0  0
  5  6  4  0  0  0  0
  6  7  4  0  0  0  0
  2  7  4  0  0  0  0
  7  8  1  0  0  0  0
  6  9  1  0  0  0  0
  9 10  2  0  0  0  0
  9 11  2  0  0  0  0
  4 12  1  0  0  0  0
 12 13  2  0  0  0  0
 12 14  2  0  0  0  0
  1 15  1  0  0  0  0
  1 16  1  0  0  0  0
  1 17  1  0  0  0  0
  3 18  1  0  0  0  0
  5 19  1  0  0  0  0
  8 20  1  0  0  0  0
M  END
>  <InChIKey>
InChI=1S/C7H6N2O5/c1-4-2-5(8(11)12)3-6(7(4)10)9(13)14/h2-3,10H,1H3

>  <CASRN>
534-52-1

> <Outcome>
1

>  <Index>
3537

>  <StandardizerResult>
Dearomatize (ID: Dearomatize)
Clear Stereo (ID: ClearStereo)
Wedge Clean (ID: WedgeClean)
Mesomerize (ID: Mesomerize)
Tautomerize (ID: Tautomerize)
Aromatize (ID: Aromatize)
Add Explicit Hydrogens (ID: AddExplicitH)
Neutralize (ID: Neutralize)
Clean 2D (ID: Clean2D)

> <knn Distance>


> <CpId>
3537

$$$$
3539
  Mrv1532301301811342D          

 37 41  0  0  0  0            999 V2000
    5.6439    0.6369    0.0000 O   0  0  0  0  0  0  0  0  0  0  0  0
    4.8234    0.5509    0.0000 C   0  0  0  0  0  0  0  0  0  0  0  0
    4.3387    1.2185    0.0000 C   0  0  0  0  0  0  0  0  0  0  0  0
    4.6744    1.9721    0.0000 Br  0  0  0  0  0  0  0  0  0  0  0  0
    3.5182    1.1325    0.0000 C   0  0  0  0  0  0  0  0  0  0  0  0
    3.1824    0.3789    0.0000 C   0  0  0  0  0  0  0  0  0  0  0  0
    3.6671   -0.2887    0.0000 C   0  0  0  0  0  0  0  0  0  0  0  0
    3.3313   -1.0423    0.0000 O   0  0  0  0  0  0  0  0  0  0  0  0
    2.5108   -1.1283    0.0000 C   0  0  0  0  0  0  0  0  0  0  0  0
    2.1751   -1.8818    0.0000 C   0  0  0  0  0  0  0  0  0  0  0  0
    2.6598   -2.5494    0.0000 Br  0  0  0  0  0  0  0  0  0  0  0  0
    1.3546   -1.9678    0.0000 C   0  0  0  0  0  0  0  0  0  0  0  0
    1.0188   -2.7214    0.0000 O   0  0  0  0  0  0  0  0  0  0  0  0
    0.8698   -1.3003    0.0000 C   0  0  0  0  0  0  0  0  0  0  0  0
    0.0493   -1.3863    0.0000 Br  0  0  0  0  0  0  0  0  0  0  0  0
    1.2056   -0.5467    0.0000 C   0  0  0  0  0  0  0  0  0  0  0  0
    2.0261   -0.4607    0.0000 C   0  0  0  0  0  0  0  0  0  0  0  0
    2.3619    0.2929    0.0000 C   0  0  0  0  0  0  0  0  0  0  0  0
    2.6171    1.0774    0.0000 O   0  0  0  0  0  0  0  0  0  0  0  0
    1.9498    1.5626    0.0000 C   0  0  0  0  0  0  0  0  0  0  0  0
    1.9500    2.3876    0.0000 O   0  0  0  0  0  0  0  0  0  0  0  0
    1.2822    1.0778    0.0000 C   0  0  0  0  0  0  0  0  0  0  0  0
    1.5369    0.2931    0.0000 C   0  0  0  0  0  0  0  0  0  0  0  0
    0.9847   -0.3198    0.0000 C   0  0  0  0  0  0  0  0  0  0  0  0
    1.2394   -1.1045    0.0000 Cl  0  0  0  0  0  0  0  0  0  0  0  0
    0.1778   -0.1480    0.0000 C   0  0  0  0  0  0  0  0  0  0  0  0
   -0.3745   -0.7610    0.0000 Cl  0  0  0  0  0  0  0  0  0  0  0  0
   -0.0770    0.6367    0.0000 C   0  0  0  0  0  0  0  0  0  0  0  0
   -0.8839    0.8084    0.0000 Cl  0  0  0  0  0  0  0  0  0  0  0  0
    0.4753    1.2496    0.0000 C   0  0  0  0  0  0  0  0  0  0  0  0
    0.2205    2.0343    0.0000 Cl  0  0  0  0  0  0  0  0  0  0  0  0
    4.4876   -0.2027    0.0000 C   0  0  0  0  0  0  0  0  0  0  0  0
    4.9724   -0.8703    0.0000 Br  0  0  0  0  0  0  0  0  0  0  0  0
    6.1286   -0.0307    0.0000 H   0  0  0  0  0  0  0  0  0  0  0  0
    3.4500    1.9547    0.0000 H   0  0  0  0  0  0  0  0  0  0  0  0
    0.1983   -2.8074    0.0000 H   0  0  0  0  0  0  0  0  0  0  0  0
    1.8350   -1.0800    0.0000 H   0  0  0  0  0  0  0  0  0  0  0  0
  1  2  1  0  0  0  0
  2  3  4  0  0  0  0
  3  4  1  0  0  0  0
  3  5  4  0  0  0  0
  5  6  4  0  0  0  0
  6  7  4  0  0  0  0
  7  8  1  0  0  0  0
  8  9  1  0  0  0  0
  9 10  4  0  0  0  0
 10 11  1  0  0  0  0
 10 12  4  0  0  0  0
 12 13  1  0  0  0  0
 12 14  4  0  0  0  0
 14 15  1  0  0  0  0
 14 16  4  0  0  0  0
 16 17  4  0  0  0  0
  9 17  4  0  0  0  0
 17 18  1  0  0  0  0
  6 18  1  0  0  0  0
 18 19  1  0  0  0  0
 19 20  1  0  0  0  0
 20 21  2  0  0  0  0
 20 22  1  0  0  0  0
 22 23  4  0  0  0  0
 18 23  1  0  0  0  0
 23 24  4  0  0  0  0
 24 25  1  0  0  0  0
 24 26  4  0  0  0  0
 26 27  1  0  0  0  0
 26 28  4  0  0  0  0
 28 29  1  0  0  0  0
 28 30  4  0  0  0  0
 22 30  4  0  0  0  0
 30 31  1  0  0  0  0
  7 32  4  0  0  0  0
  2 32  4  0  0  0  0
 32 33  1  0  0  0  0
  1 34  1  0  0  0  0
  5 35  1  0  0  0  0
 13 36  1  0  0  0  0
 16 37  1  0  0  0  0
M  END
>  <InChIKey>
InChI=1S/C20H4Br4Cl4O5/c21-5-1-3-17(9(23)15(5)29)32-18-4(2-6(22)16(30)10(18)24)20(3)8-7(19(31)33-20)11(25)13(27)14(28)12(8)26/h1-2,29-30H

>  <UN GHS>
1

>  <CASRN>
2134-15-8 18472-87-2

> <Outcome>
1

>  <Index>
3539

>  <StandardizerResult>
Dearomatize (ID: Dearomatize)
Clear Stereo (ID: ClearStereo)
Wedge Clean (ID: WedgeClean)
Mesomerize (ID: Mesomerize)
Tautomerize (ID: Tautomerize)
Aromatize (ID: Aromatize)
Add Explicit Hydrogens (ID: AddExplicitH)
Neutralize (ID: Neutralize)
Clean 2D (ID: Clean2D)

> <knn Distance>


> <CpId>
3539

$$$$
3542
  Mrv1532301301811342D          

145146  0  0  0  0            999 V2000
   -4.2797    4.9670    0.0000 C   0  0  0  0  0  0  0  0  0  0  0  0
   -4.5003    4.1720    0.0000 O   0  0  0  0  0  0  0  0  0  0  0  0
   -3.9222    3.5835    0.0000 C   0  0  0  0  0  0  0  0  0  0  0  0
   -4.1428    2.7885    0.0000 C   0  0  0  0  0  0  0  0  0  0  0  0
   -4.9415    2.5821    0.0000 C   0  0  0  0  0  0  0  0  0  0  0  0
   -5.1622    1.7872    0.0000 C   0  0  0  0  0  0  0  0  0  0  0  0
   -5.9609    1.5808    0.0000 C   0  0  0  0  0  0  0  0  0  0  0  0
   -6.5391    2.1693    0.0000 C   0  0  0  0  0  0  0  0  0  0  0  0
   -6.3184    2.9643    0.0000 C   0  0  0  0  0  0  0  0  0  0  0  0
   -5.5197    3.1707    0.0000 C   0  0  0  0  0  0  0  0  0  0  0  0
   -3.1234    3.7899    0.0000 C   0  0  0  0  0  0  0  0  0  0  0  0
   -2.9028    4.5849    0.0000 C   0  0  0  0  0  0  0  0  0  0  0  0
   -2.5453    3.2014    0.0000 C   0  0  0  0  0  0  0  0  0  0  0  0
   -1.7465    3.4078    0.0000 C   0  0  0  0  0  0  0  0  0  0  0  0
   -1.5259    4.2027    0.0000 C   0  0  0  0  0  0  0  0  0  0  0  0
   -1.1684    2.8192    0.0000 C   0  0  0  0  0  0  0  0  0  0  0  0
   -1.3890    2.0243    0.0000 C   0  0  0  0  0  0  0  0  0  0  0  0
   -0.8108    1.4357    0.0000 C   0  0  0  0  0  0  0  0  0  0  0  0
   -0.4524    2.1788    0.0000 N   0  0  0  0  0  0  0  0  0  0  0  0
    0.3651    2.0675    0.0000 C   0  0  0  0  0  0  0  0  0  0  0  0
    0.9357    2.6634    0.0000 O   0  0  0  0  0  0  0  0  0  0  0  0
    0.5118    1.2556    0.0000 C   0  0  0  0  0  0  0  0  0  0  0  0
    1.2263    1.6681    0.0000 C   0  0  0  0  0  0  0  0  0  0  0  0
    1.9407    1.2556    0.0000 C   0  0  0  0  0  0  0  0  0  0  0  0
    2.6552    1.6681    0.0000 C   0  0  0  0  0  0  0  0  0  0  0  0
    3.3697    1.2556    0.0000 N   0  0  0  0  0  0  0  0  0  0  0  0
    4.0842    1.6681    0.0000 C   0  0  0  0  0  0  0  0  0  0  0  0
    4.0842    2.4931    0.0000 N   0  0  0  0  0  0  0  0  0  0  0  0
    4.7986    1.2556    0.0000 N   0  0  0  0  0  0  0  0  0  0  0  0
    1.2009    0.6724    0.0000 N   0  0  0  0  0  0  0  0  0  0  0  0
    1.0896   -0.1451    0.0000 C   0  0  0  0  0  0  0  0  0  0  0  0
    0.3260   -0.4574    0.0000 O   0  0  0  0  0  0  0  0  0  0  0  0
    1.7419   -0.6502    0.0000 C   0  0  0  0  0  0  0  0  0  0  0  0
    2.5055   -0.3379    0.0000 C   0  0  0  0  0  0  0  0  0  0  0  0
    1.6305   -1.4677    0.0000 C   0  0  0  0  0  0  0  0  0  0  0  0
    2.2828   -1.9728    0.0000 N   0  0  0  0  0  0  0  0  0  0  0  0
    2.1715   -2.7903    0.0000 C   0  0  0  0  0  0  0  0  0  0  0  0
    1.4079   -3.1026    0.0000 O   0  0  0  0  0  0  0  0  0  0  0  0
    2.8237   -3.2954    0.0000 C   0  0  0  0  0  0  0  0  0  0  0  0
    3.5873   -2.9831    0.0000 C   0  0  0  0  0  0  0  0  0  0  0  0
    4.2396   -3.4882    0.0000 C   0  0  0  0  0  0  0  0  0  0  0  0
    4.1283   -4.3057    0.0000 C   0  0  0  0  0  0  0  0  0  0  0  0
    5.0032   -3.1759    0.0000 C   0  0  0  0  0  0  0  0  0  0  0  0
    2.7124   -4.1129    0.0000 N   0  0  0  0  0  0  0  0  0  0  0  0
    1.9488   -4.4252    0.0000 C   0  0  0  0  0  0  0  0  0  0  0  0
    1.2965   -3.9200    0.0000 O   0  0  0  0  0  0  0  0  0  0  0  0
    1.8375   -5.2426    0.0000 C   0  0  0  0  0  0  0  0  0  0  0  0
    2.4898   -5.7478    0.0000 C   0  0  0  0  0  0  0  0  0  0  0  0
    1.0739   -5.5549    0.0000 N   0  0  0  0  0  0  0  0  0  0  0  0
    0.4216   -5.0498    0.0000 C   0  0  0  0  0  0  0  0  0  0  0  0
   -0.3420   -5.3621    0.0000 O   0  0  0  0  0  0  0  0  0  0  0  0
    0.5329   -4.2324    0.0000 C   0  0  0  0  0  0  0  0  0  0  0  0
    0.9671   -3.5309    0.0000 C   0  0  0  0  0  0  0  0  0  0  0  0
   -0.1193   -3.7272    0.0000 N   0  0  0  0  0  0  0  0  0  0  0  0
   -0.8829   -4.0395    0.0000 C   0  0  0  0  0  0  0  0  0  0  0  0
   -0.0080   -2.9098    0.0000 C   0  0  0  0  0  0  0  0  0  0  0  0
    0.7556   -2.5974    0.0000 O   0  0  0  0  0  0  0  0  0  0  0  0
   -0.6603   -2.4046    0.0000 C   0  0  0  0  0  0  0  0  0  0  0  0
   -0.5489   -1.5872    0.0000 C   0  0  0  0  0  0  0  0  0  0  0  0
   -1.2012   -1.0820    0.0000 C   0  0  0  0  0  0  0  0  0  0  0  0
   -1.0899   -0.2646    0.0000 N   0  0  0  0  0  0  0  0  0  0  0  0
   -1.7422    0.2406    0.0000 C   0  0  0  0  0  0  0  0  0  0  0  0
   -2.5058   -0.0717    0.0000 O   0  0  0  0  0  0  0  0  0  0  0  0
   -1.6308    1.0580    0.0000 C   0  0  0  0  0  0  0  0  0  0  0  0
   -2.2939    1.5489    0.0000 C   0  0  0  0  0  0  0  0  0  0  0  0
   -1.9648   -1.3943    0.0000 C   0  0  0  0  0  0  0  0  0  0  0  0
   -2.6171   -0.8892    0.0000 O   0  0  0  0  0  0  0  0  0  0  0  0
   -2.0761   -2.2118    0.0000 O   0  0  0  0  0  0  0  0  0  0  0  0
    2.3941   -1.1554    0.0000 C   0  0  0  0  0  0  0  0  0  0  0  0
    3.0464   -1.6605    0.0000 O   0  0  0  0  0  0  0  0  0  0  0  0
    2.9647   -0.5595    0.0000 O   0  0  0  0  0  0  0  0  0  0  0  0
   -3.4847    4.7464    0.0000 H   0  0  0  0  0  0  0  0  0  0  0  0
   -4.0590    5.7619    0.0000 H   0  0  0  0  0  0  0  0  0  0  0  0
   -5.0746    5.1876    0.0000 H   0  0  0  0  0  0  0  0  0  0  0  0
   -4.7209    3.3771    0.0000 H   0  0  0  0  0  0  0  0  0  0  0  0
   -3.8903    2.0031    0.0000 H   0  0  0  0  0  0  0  0  0  0  0  0
   -3.3620    2.5221    0.0000 H   0  0  0  0  0  0  0  0  0  0  0  0
   -4.5840    1.1986    0.0000 H   0  0  0  0  0  0  0  0  0  0  0  0
   -6.1815    0.7858    0.0000 H   0  0  0  0  0  0  0  0  0  0  0  0
   -7.3378    1.9629    0.0000 H   0  0  0  0  0  0  0  0  0  0  0  0
   -6.8966    3.5528    0.0000 H   0  0  0  0  0  0  0  0  0  0  0  0
   -5.7261    3.9694    0.0000 H   0  0  0  0  0  0  0  0  0  0  0  0
   -3.7015    4.3785    0.0000 H   0  0  0  0  0  0  0  0  0  0  0  0
   -2.2528    4.0768    0.0000 H   0  0  0  0  0  0  0  0  0  0  0  0
   -2.1846    4.9910    0.0000 H   0  0  0  0  0  0  0  0  0  0  0  0
   -3.0032    5.4037    0.0000 H   0  0  0  0  0  0  0  0  0  0  0  0
   -2.7659    2.4064    0.0000 H   0  0  0  0  0  0  0  0  0  0  0  0
   -0.8238    3.7695    0.0000 H   0  0  0  0  0  0  0  0  0  0  0  0
   -0.9143    4.7565    0.0000 H   0  0  0  0  0  0  0  0  0  0  0  0
   -1.8874    4.9443    0.0000 H   0  0  0  0  0  0  0  0  0  0  0  0
   -0.5988    3.4161    0.0000 H   0  0  0  0  0  0  0  0  0  0  0  0
   -2.1877    1.8179    0.0000 H   0  0  0  0  0  0  0  0  0  0  0  0
   -0.2327    0.8472    0.0000 H   0  0  0  0  0  0  0  0  0  0  0  0
   -0.1065    2.9278    0.0000 H   0  0  0  0  0  0  0  0  0  0  0  0
    0.4292    0.4348    0.0000 H   0  0  0  0  0  0  0  0  0  0  0  0
    1.8394    2.2201    0.0000 H   0  0  0  0  0  0  0  0  0  0  0  0
    1.3250    2.4872    0.0000 H   0  0  0  0  0  0  0  0  0  0  0  0
    2.0198    0.4344    0.0000 H   0  0  0  0  0  0  0  0  0  0  0  0
    2.6742    0.8779    0.0000 H   0  0  0  0  0  0  0  0  0  0  0  0
    3.0255    2.4054    0.0000 H   0  0  0  0  0  0  0  0  0  0  0  0
    2.2850    2.4054    0.0000 H   0  0  0  0  0  0  0  0  0  0  0  0
    3.7728    0.5358    0.0000 H   0  0  0  0  0  0  0  0  0  0  0  0
    4.7986    2.9056    0.0000 H   0  0  0  0  0  0  0  0  0  0  0  0
    3.3697    2.9056    0.0000 H   0  0  0  0  0  0  0  0  0  0  0  0
    4.7986    0.4306    0.0000 H   0  0  0  0  0  0  0  0  0  0  0  0
    1.2153    1.4972    0.0000 H   0  0  0  0  0  0  0  0  0  0  0  0
    1.8532    0.1672    0.0000 H   0  0  0  0  0  0  0  0  0  0  0  0
    3.3147   -0.1773    0.0000 H   0  0  0  0  0  0  0  0  0  0  0  0
    3.0553    0.2771    0.0000 H   0  0  0  0  0  0  0  0  0  0  0  0
    2.5747    0.4842    0.0000 H   0  0  0  0  0  0  0  0  0  0  0  0
    0.8669   -1.7800    0.0000 H   0  0  0  0  0  0  0  0  0  0  0  0
    2.9351   -2.4780    0.0000 H   0  0  0  0  0  0  0  0  0  0  0  0
    3.4760   -3.8006    0.0000 H   0  0  0  0  0  0  0  0  0  0  0  0
    4.2851   -2.5429    0.0000 H   0  0  0  0  0  0  0  0  0  0  0  0
    3.8389   -2.1974    0.0000 H   0  0  0  0  0  0  0  0  0  0  0  0
    4.8919   -3.9934    0.0000 H   0  0  0  0  0  0  0  0  0  0  0  0
    3.3647   -4.6180    0.0000 H   0  0  0  0  0  0  0  0  0  0  0  0
    4.0170   -5.1231    0.0000 H   0  0  0  0  0  0  0  0  0  0  0  0
    4.7806   -4.8108    0.0000 H   0  0  0  0  0  0  0  0  0  0  0  0
    5.6474   -3.6914    0.0000 H   0  0  0  0  0  0  0  0  0  0  0  0
    5.7763   -2.8880    0.0000 H   0  0  0  0  0  0  0  0  0  0  0  0
    5.1534   -2.3647    0.0000 H   0  0  0  0  0  0  0  0  0  0  0  0
    2.6011   -4.9303    0.0000 H   0  0  0  0  0  0  0  0  0  0  0  0
    1.7262   -6.0601    0.0000 H   0  0  0  0  0  0  0  0  0  0  0  0
    2.3784   -6.5652    0.0000 H   0  0  0  0  0  0  0  0  0  0  0  0
    3.1420   -6.2529    0.0000 H   0  0  0  0  0  0  0  0  0  0  0  0
    3.2534   -5.4355    0.0000 H   0  0  0  0  0  0  0  0  0  0  0  0
    0.5687   -6.2072    0.0000 H   0  0  0  0  0  0  0  0  0  0  0  0
    0.1534   -3.3948    0.0000 H   0  0  0  0  0  0  0  0  0  0  0  0
    1.7912   -3.5710    0.0000 H   0  0  0  0  0  0  0  0  0  0  0  0
   -1.1952   -3.2759    0.0000 H   0  0  0  0  0  0  0  0  0  0  0  0
   -1.6465   -4.3518    0.0000 H   0  0  0  0  0  0  0  0  0  0  0  0
   -0.5706   -4.8031    0.0000 H   0  0  0  0  0  0  0  0  0  0  0  0
   -1.4828   -2.3410    0.0000 H   0  0  0  0  0  0  0  0  0  0  0  0
   -1.2025   -3.0264    0.0000 H   0  0  0  0  0  0  0  0  0  0  0  0
    0.2736   -1.6508    0.0000 H   0  0  0  0  0  0  0  0  0  0  0  0
   -0.0067   -0.9654    0.0000 H   0  0  0  0  0  0  0  0  0  0  0  0
   -1.8535   -0.5769    0.0000 H   0  0  0  0  0  0  0  0  0  0  0  0
   -0.3263    0.0477    0.0000 H   0  0  0  0  0  0  0  0  0  0  0  0
   -0.9677    0.5672    0.0000 H   0  0  0  0  0  0  0  0  0  0  0  0
   -2.8483    2.1599    0.0000 H   0  0  0  0  0  0  0  0  0  0  0  0
   -3.0871    1.3218    0.0000 H   0  0  0  0  0  0  0  0  0  0  0  0
   -2.4410    0.7371    0.0000 H   0  0  0  0  0  0  0  0  0  0  0  0
   -3.3807   -1.2015    0.0000 H   0  0  0  0  0  0  0  0  0  0  0  0
    3.5306   -0.9925    0.0000 H   0  0  0  0  0  0  0  0  0  0  0  0
  1  2  1  0  0  0  0
  2  3  1  0  0  0  0
  3  4  1  0  0  0  0
  4  5  1  0  0  0  0
  5  6  4  0  0  0  0
  6  7  4  0  0  0  0
  7  8  4  0  0  0  0
  8  9  4  0  0  0  0
  9 10  4  0  0  0  0
  5 10  4  0  0  0  0
  3 11  1  0  0  0  0
 11 12  1  0  0  0  0
 13 11  1  0  0  0  0
 13 14  2  0  0  0  0
 14 15  1  0  0  0  0
 16 14  1  0  0  0  0
 16 17  2  0  0  0  0
 17 18  1  0  0  0  0
 18 19  1  0  0  0  0
 19 20  1  0  0  0  0
 20 21  2  0  0  0  0
 20 22  1  0  0  0  0
 22 23  1  0  0  0  0
 23 24  1  0  0  0  0
 24 25  1  0  0  0  0
 25 26  1  0  0  0  0
 26 27  1  0  0  0  0
 27 28  1  0  0  0  0
 27 29  2  0  0  0  0
 22 30  1  0  0  0  0
 30 31  1  0  0  0  0
 31 32  2  0  0  0  0
 31 33  1  0  0  0  0
 33 34  1  0  0  0  0
 33 35  1  0  0  0  0
 35 36  1  0  0  0  0
 36 37  1  0  0  0  0
 37 38  2  0  0  0  0
 37 39  1  0  0  0  0
 39 40  1  0  0  0  0
 40 41  1  0  0  0  0
 41 42  1  0  0  0  0
 41 43  1  0  0  0  0
 39 44  1  0  0  0  0
 44 45  1  0  0  0  0
 45 46  2  0  0  0  0
 45 47  1  0  0  0  0
 47 48  1  0  0  0  0
 47 49  1  0  0  0  0
 49 50  1  0  0  0  0
 50 51  2  0  0  0  0
 50 52  1  0  0  0  0
 52 53  2  0  0  0  0
 52 54  1  0  0  0  0
 54 55  1  0  0  0  0
 54 56  1  0  0  0  0
 56 57  2  0  0  0  0
 56 58  1  0  0  0  0
 58 59  1  0  0  0  0
 59 60  1  0  0  0  0
 60 61  1  0  0  0  0
 61 62  1  0  0  0  0
 62 63  2  0  0  0  0
 62 64  1  0  0  0  0
 18 64  1  0  0  0  0
 64 65  1  0  0  0  0
 60 66  1  0  0  0  0
 66 67  1  0  0  0  0
 66 68  2  0  0  0  0
 35 69  1  0  0  0  0
 69 70  1  0  0  0  0
 69 71  2  0  0  0  0
  1 72  1  0  0  0  0
  1 73  1  0  0  0  0
  1 74  1  0  0  0  0
  3 75  1  0  0  0  0
  4 76  1  0  0  0  0
  4 77  1  0  0  0  0
  6 78  1  0  0  0  0
  7 79  1  0  0  0  0
  8 80  1  0  0  0  0
  9 81  1  0  0  0  0
 10 82  1  0  0  0  0
 11 83  1  0  0  0  0
 12 84  1  0  0  0  0
 12 85  1  0  0  0  0
 12 86  1  0  0  0  0
 13 87  1  4  0  0  0
 15 88  1  0  0  0  0
 15 89  1  0  0  0  0
 15 90  1  0  0  0  0
 16 91  1  4  0  0  0
 17 92  1  0  0  0  0
 18 93  1  0  0  0  0
 19 94  1  0  0  0  0
 22 95  1  0  0  0  0
 23 96  1  0  0  0  0
 23 97  1  0  0  0  0
 24 98  1  0  0  0  0
 24 99  1  0  0  0  0
 25100  1  0  0  0  0
 25101  1  0  0  0  0
 26102  1  0  0  0  0
 28103  1  0  0  0  0
 28104  1  0  0  0  0
 29105  1  0  0  0  0
 30106  1  0  0  0  0
 33107  1  0  0  0  0
 34108  1  0  0  0  0
 34109  1  0  0  0  0
 34110  1  0  0  0  0
 35111  1  0  0  0  0
 36112  1  0  0  0  0
 39113  1  0  0  0  0
 40114  1  0  0  0  0
 40115  1  0  0  0  0
 41116  1  0  0  0  0
 42117  1  0  0  0  0
 42118  1  0  0  0  0
 42119  1  0  0  0  0
 43120  1  0  0  0  0
 43121  1  0  0  0  0
 43122  1  0  0  0  0
 44123  1  0  0  0  0
 47124  1  0  0  0  0
 48125  1  0  0  0  0
 48126  1  0  0  0  0
 48127  1  0  0  0  0
 49128  1  0  0  0  0
 53129  1  0  0  0  0
 53130  1  0  0  0  0
 55131  1  0  0  0  0
 55132  1  0  0  0  0
 55133  1  0  0  0  0
 58134  1  0  0  0  0
 58135  1  0  0  0  0
 59136  1  0  0  0  0
 59137  1  0  0  0  0
 60138  1  0  0  0  0
 61139  1  0  0  0  0
 64140  1  0  0  0  0
 65141  1  0  0  0  0
 65142  1  0  0  0  0
 65143  1  0  0  0  0
 67144  1  0  0  0  0
 70145  1  0  0  0  0
M  END
>  <InChIKey>
InChI=1S/C49H74N10O12/c1-26(2)23-37-46(66)58-40(48(69)70)30(6)42(62)55-35(17-14-22-52-49(50)51)45(65)54-34(19-18-27(3)24-28(4)38(71-10)25-33-15-12-11-13-16-33)29(5)41(61)56-36(47(67)68)20-21-39(60)59(9)32(8)44(64)53-31(7)43(63)57-37/h11-13,15-16,18-19,24,26,28-31,34-38,40H,8,14,17,20-23,25H2,1-7,9-10H3,(H,53,64)(H,54,65)(H,55,62)(H,56,61)(H,57,63)(H,58,66)(H,67,68)(H,69,70)(H4,50,51,52)

>  <CASRN>
101043-37-2

> <Outcome>
1

>  <Index>
3542

>  <StandardizerResult>
Dearomatize (ID: Dearomatize)
Clear Stereo (ID: ClearStereo)
Wedge Clean (ID: WedgeClean)
Mesomerize (ID: Mesomerize)
Tautomerize (ID: Tautomerize)
Aromatize (ID: Aromatize)
Add Explicit Hydrogens (ID: AddExplicitH)
Neutralize (ID: Neutralize)
Clean 2D (ID: Clean2D)

> <knn Distance>


> <CpId>
3542

$$$$
3547
  Mrv1532301301811342D          

 36 36  0  0  0  0            999 V2000
    0.6991    2.9080    0.0000 C   0  0  0  0  0  0  0  0  0  0  0  0
    0.6991    2.0830    0.0000 C   0  0  0  0  0  0  0  0  0  0  0  0
   -0.1259    2.0830    0.0000 C   0  0  0  0  0  0  0  0  0  0  0  0
    1.5241    2.0830    0.0000 C   0  0  0  0  0  0  0  0  0  0  0  0
    0.6991    1.2580    0.0000 C   0  0  0  0  0  0  0  0  0  0  0  0
    1.4136    0.8455    0.0000 C   0  0  0  0  0  0  0  0  0  0  0  0
    1.4136    0.0205    0.0000 C   0  0  0  0  0  0  0  0  0  0  0  0
    2.1281   -0.3920    0.0000 O   0  0  0  0  0  0  0  0  0  0  0  0
    0.6991   -0.3920    0.0000 C   0  0  0  0  0  0  0  0  0  0  0  0
   -0.0153    0.0205    0.0000 C   0  0  0  0  0  0  0  0  0  0  0  0
   -0.0153    0.8455    0.0000 C   0  0  0  0  0  0  0  0  0  0  0  0
   -0.7298    1.2580    0.0000 O   0  0  0  0  0  0  0  0  0  0  0  0
    0.6991   -1.2170    0.0000 C   0  0  0  0  0  0  0  0  0  0  0  0
    0.6991   -2.0420    0.0000 C   0  0  0  0  0  0  0  0  0  0  0  0
   -0.1259   -1.2170    0.0000 C   0  0  0  0  0  0  0  0  0  0  0  0
    1.5241   -1.2170    0.0000 C   0  0  0  0  0  0  0  0  0  0  0  0
    1.5241    2.9080    0.0000 H   0  0  0  0  0  0  0  0  0  0  0  0
    0.6991    3.7330    0.0000 H   0  0  0  0  0  0  0  0  0  0  0  0
   -0.1259    2.9080    0.0000 H   0  0  0  0  0  0  0  0  0  0  0  0
   -0.8881    2.3988    0.0000 H   0  0  0  0  0  0  0  0  0  0  0  0
   -0.7092    1.4997    0.0000 H   0  0  0  0  0  0  0  0  0  0  0  0
    0.1898    1.3208    0.0000 H   0  0  0  0  0  0  0  0  0  0  0  0
    1.2084    1.3208    0.0000 H   0  0  0  0  0  0  0  0  0  0  0  0
    2.1075    1.4997    0.0000 H   0  0  0  0  0  0  0  0  0  0  0  0
    2.2863    2.3988    0.0000 H   0  0  0  0  0  0  0  0  0  0  0  0
    2.1711    0.5186    0.0000 H   0  0  0  0  0  0  0  0  0  0  0  0
   -0.7298   -0.3920    0.0000 H   0  0  0  0  0  0  0  0  0  0  0  0
   -0.1259   -2.0420    0.0000 H   0  0  0  0  0  0  0  0  0  0  0  0
    0.6991   -2.8670    0.0000 H   0  0  0  0  0  0  0  0  0  0  0  0
    1.5241   -2.0420    0.0000 H   0  0  0  0  0  0  0  0  0  0  0  0
    0.1898   -0.4548    0.0000 H   0  0  0  0  0  0  0  0  0  0  0  0
   -0.7092   -0.6336    0.0000 H   0  0  0  0  0  0  0  0  0  0  0  0
   -0.8881   -1.5327    0.0000 H   0  0  0  0  0  0  0  0  0  0  0  0
    2.2863   -1.5327    0.0000 H   0  0  0  0  0  0  0  0  0  0  0  0
    2.1075   -0.6336    0.0000 H   0  0  0  0  0  0  0  0  0  0  0  0
    1.2084   -0.4548    0.0000 H   0  0  0  0  0  0  0  0  0  0  0  0
  1  2  1  0  0  0  0
  2  3  1  0  0  0  0
  2  4  1  0  0  0  0
  2  5  1  0  0  0  0
  5  6  2  0  0  0  0
  6  7  1  0  0  0  0
  7  8  2  0  0  0  0
  7  9  1  0  0  0  0
  9 10  2  0  0  0  0
 10 11  1  0  0  0  0
  5 11  1  0  0  0  0
 11 12  2  0  0  0  0
  9 13  1  0  0  0  0
 13 14  1  0  0  0  0
 13 15  1  0  0  0  0
 13 16  1  0  0  0  0
  1 17  1  0  0  0  0
  1 18  1  0  0  0  0
  1 19  1  0  0  0  0
  3 20  1  0  0  0  0
  3 21  1  0  0  0  0
  3 22  1  0  0  0  0
  4 23  1  0  0  0  0
  4 24  1  0  0  0  0
  4 25  1  0  0  0  0
  6 26  1  0  0  0  0
 10 27  1  0  0  0  0
 14 28  1  0  0  0  0
 14 29  1  0  0  0  0
 14 30  1  0  0  0  0
 15 31  1  0  0  0  0
 15 32  1  0  0  0  0
 15 33  1  0  0  0  0
 16 34  1  0  0  0  0
 16 35  1  0  0  0  0
 16 36  1  0  0  0  0
M  END
>  <InChIKey>
InChI=1S/C14H20O2/c1-13(2,3)9-7-12(16)10(8-11(9)15)14(4,5)6/h7-8H,1-6H3

>  <CASRN>
2460-77-7

> <Outcome>
1

>  <Index>
3547

>  <StandardizerResult>
Clear Stereo (ID: ClearStereo)
Wedge Clean (ID: WedgeClean)
Mesomerize (ID: Mesomerize)
Tautomerize (ID: Tautomerize)
Add Explicit Hydrogens (ID: AddExplicitH)
Neutralize (ID: Neutralize)
Clean 2D (ID: Clean2D)

> <knn Distance>


> <CpId>
3547

$$$$
296
  Mrv1532301301811342D          

 15 15  0  0  0  0            999 V2000
    0.7145    2.0625    0.0000 C   0  0  0  0  0  0  0  0  0  0  0  0
    0.7145    1.2375    0.0000 C   0  0  0  0  0  0  0  0  0  0  0  0
    1.4289    0.8250    0.0000 C   0  0  0  0  0  0  0  0  0  0  0  0
    1.4289   -0.0000    0.0000 C   0  0  0  0  0  0  0  0  0  0  0  0
    0.7145   -0.4125    0.0000 C   0  0  0  0  0  0  0  0  0  0  0  0
    0.0000   -0.0000    0.0000 C   0  0  0  0  0  0  0  0  0  0  0  0
    0.0000    0.8250    0.0000 C   0  0  0  0  0  0  0  0  0  0  0  0
   -0.7145    1.2375    0.0000 Cl  0  0  0  0  0  0  0  0  0  0  0  0
    1.5395    2.0625    0.0000 H   0  0  0  0  0  0  0  0  0  0  0  0
    0.7145    2.8875    0.0000 H   0  0  0  0  0  0  0  0  0  0  0  0
   -0.1105    2.0625    0.0000 H   0  0  0  0  0  0  0  0  0  0  0  0
    2.1434    1.2375    0.0000 H   0  0  0  0  0  0  0  0  0  0  0  0
    2.1434   -0.4125    0.0000 H   0  0  0  0  0  0  0  0  0  0  0  0
    0.7145   -1.2375    0.0000 H   0  0  0  0  0  0  0  0  0  0  0  0
   -0.7145   -0.4125    0.0000 H   0  0  0  0  0  0  0  0  0  0  0  0
  1  2  1  0  0  0  0
  2  3  4  0  0  0  0
  3  4  4  0  0  0  0
  4  5  4  0  0  0  0
  5  6  4  0  0  0  0
  6  7  4  0  0  0  0
  2  7  4  0  0  0  0
  7  8  1  0  0  0  0
  1  9  1  0  0  0  0
  1 10  1  0  0  0  0
  1 11  1  0  0  0  0
  3 12  1  0  0  0  0
  4 13  1  0  0  0  0
  5 14  1  0  0  0  0
  6 15  1  0  0  0  0
M  END
>  <InChIKey>
IBSQPLPBRSHTTG-UHFFFAOYSA-N

>  <UN GHS>
Non-irritant

>  <CASRN>
95-49-8

> <Outcome>
0

>  <Index>
296

>  <StandardizerResult>
Dearomatize (ID: Dearomatize)
Clear Stereo (ID: ClearStereo)
Wedge Clean (ID: WedgeClean)
Mesomerize (ID: Mesomerize)
Tautomerize (ID: Tautomerize)
Aromatize (ID: Aromatize)
Add Explicit Hydrogens (ID: AddExplicitH)
Neutralize (ID: Neutralize)
Clean 2D (ID: Clean2D)

> <knn Distance>
1.41421353816986

> <CpId>
296

$$$$
501
  Mrv1532301301811342D          

 12 12  0  0  0  0            999 V2000
    0.7145    2.0625    0.0000 Cl  0  0  0  0  0  0  0  0  0  0  0  0
    0.7145    1.2375    0.0000 C   0  0  0  0  0  0  0  0  0  0  0  0
    1.4289    0.8250    0.0000 C   0  0  0  0  0  0  0  0  0  0  0  0
    1.4289    0.0000    0.0000 C   0  0  0  0  0  0  0  0  0  0  0  0
    0.7145   -0.4125    0.0000 C   0  0  0  0  0  0  0  0  0  0  0  0
   -0.0000    0.0000    0.0000 C   0  0  0  0  0  0  0  0  0  0  0  0
   -0.0000    0.8250    0.0000 C   0  0  0  0  0  0  0  0  0  0  0  0
    2.1434    1.2375    0.0000 H   0  0  0  0  0  0  0  0  0  0  0  0
    2.1434   -0.4125    0.0000 H   0  0  0  0  0  0  0  0  0  0  0  0
    0.7145   -1.2375    0.0000 H   0  0  0  0  0  0  0  0  0  0  0  0
   -0.7145   -0.4125    0.0000 H   0  0  0  0  0  0  0  0  0  0  0  0
   -0.7145    1.2375    0.0000 H   0  0  0  0  0  0  0  0  0  0  0  0
  1  2  1  0  0  0  0
  2  3  4  0  0  0  0
  3  4  4  0  0  0  0
  4  5  4  0  0  0  0
  5  6  4  0  0  0  0
  6  7  4  0  0  0  0
  2  7  4  0  0  0  0
  3  8  1  0  0  0  0
  4  9  1  0  0  0  0
  5 10  1  0  0  0  0
  6 11  1  0  0  0  0
  7 12  1  0  0  0  0
M  END
>  <InChIKey>
MVPPADPHJFYWMZ-UHFFFAOYSA-N

>  <UN GHS>
Non-irritant

>  <CASRN>
108-90-7

> <Outcome>
0

>  <Index>
501

>  <StandardizerResult>
Dearomatize (ID: Dearomatize)
Clear Stereo (ID: ClearStereo)
Wedge Clean (ID: WedgeClean)
Mesomerize (ID: Mesomerize)
Tautomerize (ID: Tautomerize)
Aromatize (ID: Aromatize)
Add Explicit Hydrogens (ID: AddExplicitH)
Neutralize (ID: Neutralize)
Clean 2D (ID: Clean2D)

> <knn Distance>
1.41421353816986

> <CpId>
501

$$$$
547
  Mrv1532301301811342D          

 12 12  0  0  0  0            999 V2000
    0.7145    2.0625    0.0000 Cl  0  0  0  0  0  0  0  0  0  0  0  0
    0.7145    1.2375    0.0000 C   0  0  0  0  0  0  0  0  0  0  0  0
    1.4289    0.8250    0.0000 C   0  0  0  0  0  0  0  0  0  0  0  0
    1.4289   -0.0000    0.0000 C   0  0  0  0  0  0  0  0  0  0  0  0
    0.7145   -0.4125    0.0000 C   0  0  0  0  0  0  0  0  0  0  0  0
    0.7145   -1.2375    0.0000 Cl  0  0  0  0  0  0  0  0  0  0  0  0
   -0.0000    0.0000    0.0000 C   0  0  0  0  0  0  0  0  0  0  0  0
   -0.0000    0.8250    0.0000 C   0  0  0  0  0  0  0  0  0  0  0  0
    2.1434    1.2375    0.0000 H   0  0  0  0  0  0  0  0  0  0  0  0
    2.1434   -0.4125    0.0000 H   0  0  0  0  0  0  0  0  0  0  0  0
   -0.7145   -0.4125    0.0000 H   0  0  0  0  0  0  0  0  0  0  0  0
   -0.7145    1.2375    0.0000 H   0  0  0  0  0  0  0  0  0  0  0  0
  1  2  1  0  0  0  0
  2  3  4  0  0  0  0
  3  4  4  0  0  0  0
  4  5  4  0  0  0  0
  5  6  1  0  0  0  0
  5  7  4  0  0  0  0
  7  8  4  0  0  0  0
  2  8  4  0  0  0  0
  3  9  1  0  0  0  0
  4 10  1  0  0  0  0
  7 11  1  0  0  0  0
  8 12  1  0  0  0  0
M  END
>  <InChIKey>
OCJBOOLMMGQPQU-UHFFFAOYSA-N

>  <UN GHS>
Non-irritant

>  <CASRN>
106-46-7

> <Outcome>
0

>  <Index>
547

>  <StandardizerResult>
Dearomatize (ID: Dearomatize)
Clear Stereo (ID: ClearStereo)
Wedge Clean (ID: WedgeClean)
Mesomerize (ID: Mesomerize)
Tautomerize (ID: Tautomerize)
Aromatize (ID: Aromatize)
Add Explicit Hydrogens (ID: AddExplicitH)
Neutralize (ID: Neutralize)
Clean 2D (ID: Clean2D)

> <knn Distance>
1.41421353816986

> <CpId>
547

$$$$
94
  Mrv1532301301811342D          

 11 10  0  0  0  0            999 V2000
    2.4734   -1.4317    0.0000 Cl  0  0  0  0  0  0  0  0  0  0  0  0
    2.0609   -0.7173    0.0000 C   0  0  0  0  0  0  0  0  0  0  0  0
    1.2359   -0.7173    0.0000 C   0  0  0  0  0  0  0  0  0  0  0  0
    0.8234   -1.4317    0.0000 Cl  0  0  0  0  0  0  0  0  0  0  0  0
    0.8234   -0.0028    0.0000 C   0  0  0  0  0  0  0  0  0  0  0  0
   -0.0016   -0.0028    0.0000 Cl  0  0  0  0  0  0  0  0  0  0  0  0
    2.7502   -0.2639    0.0000 H   0  0  0  0  0  0  0  0  0  0  0  0
    2.1089    0.1064    0.0000 H   0  0  0  0  0  0  0  0  0  0  0  0
    1.6484   -1.4317    0.0000 H   0  0  0  0  0  0  0  0  0  0  0  0
    1.5127    0.4506    0.0000 H   0  0  0  0  0  0  0  0  0  0  0  0
    0.8714    0.8208    0.0000 H   0  0  0  0  0  0  0  0  0  0  0  0
  1  2  1  0  0  0  0
  2  3  1  0  0  0  0
  3  4  1  0  0  0  0
  3  5  1  0  0  0  0
  5  6  1  0  0  0  0
  2  7  1  0  0  0  0
  2  8  1  0  0  0  0
  3  9  1  0  0  0  0
  5 10  1  0  0  0  0
  5 11  1  0  0  0  0
M  END
>  <InChIKey>
CFXQEHVMCRXUSD-UHFFFAOYSA-N

>  <UN GHS>
Non-irritant

>  <CASRN>
96-18-4

> <Outcome>
0

>  <Index>
94

>  <StandardizerResult>
Clear Stereo (ID: ClearStereo)
Wedge Clean (ID: WedgeClean)
Mesomerize (ID: Mesomerize)
Tautomerize (ID: Tautomerize)
Add Explicit Hydrogens (ID: AddExplicitH)
Neutralize (ID: Neutralize)
Clean 2D (ID: Clean2D)

> <knn Distance>
1.73205077648163

> <CpId>
94

$$$$
1895
  Mrv1532301301811342D          

 18 18  0  0  0  0            999 V2000
    0.8063    2.0652    0.0000 Cl  0  0  0  0  0  0  0  0  0  0  0  0
    0.8063    1.2402    0.0000 C   0  0  0  0  0  0  0  0  0  0  0  0
    1.5208    0.8277    0.0000 C   0  0  0  0  0  0  0  0  0  0  0  0
    2.2353    1.2402    0.0000 Cl  0  0  0  0  0  0  0  0  0  0  0  0
    1.5208    0.0027    0.0000 C   0  0  0  0  0  0  0  0  0  0  0  0
    2.2353   -0.4098    0.0000 Cl  0  0  0  0  0  0  0  0  0  0  0  0
    0.8063   -0.4098    0.0000 C   0  0  0  0  0  0  0  0  0  0  0  0
    0.8063   -1.2348    0.0000 Cl  0  0  0  0  0  0  0  0  0  0  0  0
    0.0919    0.0027    0.0000 C   0  0  0  0  0  0  0  0  0  0  0  0
   -0.6226   -0.4098    0.0000 Cl  0  0  0  0  0  0  0  0  0  0  0  0
    0.0919    0.8277    0.0000 C   0  0  0  0  0  0  0  0  0  0  0  0
   -0.6226    1.2402    0.0000 Cl  0  0  0  0  0  0  0  0  0  0  0  0
    0.0919    1.6527    0.0000 H   0  0  0  0  0  0  0  0  0  0  0  0
    1.5208    1.6527    0.0000 H   0  0  0  0  0  0  0  0  0  0  0  0
    1.5208   -0.8223    0.0000 H   0  0  0  0  0  0  0  0  0  0  0  0
    0.0919   -0.8223    0.0000 H   0  0  0  0  0  0  0  0  0  0  0  0
   -0.6226    0.4152    0.0000 H   0  0  0  0  0  0  0  0  0  0  0  0
    0.8063    0.4152    0.0000 H   0  0  0  0  0  0  0  0  0  0  0  0
  1  2  1  0  0  0  0
  2  3  1  0  0  0  0
  3  4  1  0  0  0  0
  3  5  1  0  0  0  0
  5  6  1  0  0  0  0
  5  7  1  0  0  0  0
  7  8  1  0  0  0  0
  7  9  1  0  0  0  0
  9 10  1  0  0  0  0
  9 11  1  0  0  0  0
  2 11  1  0  0  0  0
 11 12  1  0  0  0  0
  2 13  1  0  0  0  0
  3 14  1  0  0  0  0
  5 15  1  0  0  0  0
  7 16  1  0  0  0  0
  9 17  1  0  0  0  0
 11 18  1  0  0  0  0
M  END
>  <InChIKey>
InChI=1S/C6H6Cl6/c7-1-2(8)4(10)6(12)5(11)3(1)9/h1-6H

>  <CASRN>
58-89-9

> <Outcome>
0

>  <Index>
1895

>  <StandardizerResult>
Clear Stereo (ID: ClearStereo)
Wedge Clean (ID: WedgeClean)
Mesomerize (ID: Mesomerize)
Tautomerize (ID: Tautomerize)
Add Explicit Hydrogens (ID: AddExplicitH)
Neutralize (ID: Neutralize)
Clean 2D (ID: Clean2D)

> <knn Distance>
1.73205077648163

> <CpId>
1895

$$$$
2398
  Mrv1532301301811342D          

 31 31  0  0  0  0            999 V2000
    1.4640    2.4665    0.0000 C   0  0  0  0  0  0  0  0  0  0  0  0
    0.7495    2.0540    0.0000 C   0  0  0  0  0  0  0  0  0  0  0  0
    0.0351    2.4665    0.0000 C   0  0  0  0  0  0  0  0  0  0  0  0
    0.7495    1.2290    0.0000 C   0  0  0  0  0  0  0  0  0  0  0  0
    1.4640    0.8165    0.0000 C   0  0  0  0  0  0  0  0  0  0  0  0
    1.4640   -0.0085    0.0000 C   0  0  0  0  0  0  0  0  0  0  0  0
    0.7495   -0.4210    0.0000 C   0  0  0  0  0  0  0  0  0  0  0  0
    0.0351   -0.0085    0.0000 C   0  0  0  0  0  0  0  0  0  0  0  0
   -0.6794   -0.4210    0.0000 C   0  0  0  0  0  0  0  0  0  0  0  0
   -0.6794   -1.2460    0.0000 C   0  0  0  0  0  0  0  0  0  0  0  0
   -1.3939   -0.0085    0.0000 C   0  0  0  0  0  0  0  0  0  0  0  0
    0.0351    0.8165    0.0000 C   0  0  0  0  0  0  0  0  0  0  0  0
   -0.6794    1.2290    0.0000 O   0  0  0  0  0  0  0  0  0  0  0  0
    1.8765    1.7520    0.0000 H   0  0  0  0  0  0  0  0  0  0  0  0
    2.1785    2.8790    0.0000 H   0  0  0  0  0  0  0  0  0  0  0  0
    1.0515    3.1810    0.0000 H   0  0  0  0  0  0  0  0  0  0  0  0
    0.7495    2.8790    0.0000 H   0  0  0  0  0  0  0  0  0  0  0  0
   -0.1785    3.2634    0.0000 H   0  0  0  0  0  0  0  0  0  0  0  0
   -0.7899    2.4665    0.0000 H   0  0  0  0  0  0  0  0  0  0  0  0
   -0.1785    1.6696    0.0000 H   0  0  0  0  0  0  0  0  0  0  0  0
    2.1785    1.2290    0.0000 H   0  0  0  0  0  0  0  0  0  0  0  0
    2.1785   -0.4210    0.0000 H   0  0  0  0  0  0  0  0  0  0  0  0
    0.7495   -1.2460    0.0000 H   0  0  0  0  0  0  0  0  0  0  0  0
    0.0351   -0.8335    0.0000 H   0  0  0  0  0  0  0  0  0  0  0  0
   -1.4763   -1.0325    0.0000 H   0  0  0  0  0  0  0  0  0  0  0  0
   -1.0919   -1.9605    0.0000 H   0  0  0  0  0  0  0  0  0  0  0  0
   -0.0960   -1.8294    0.0000 H   0  0  0  0  0  0  0  0  0  0  0  0
   -0.9814    0.7060    0.0000 H   0  0  0  0  0  0  0  0  0  0  0  0
   -2.1083    0.4040    0.0000 H   0  0  0  0  0  0  0  0  0  0  0  0
   -1.8064   -0.7230    0.0000 H   0  0  0  0  0  0  0  0  0  0  0  0
   -1.3175    1.7519    0.0000 H   0  0  0  0  0  0  0  0  0  0  0  0
  1  2  1  0  0  0  0
  2  3  1  0  0  0  0
  2  4  1  0  0  0  0
  4  5  4  0  0  0  0
  5  6  4  0  0  0  0
  6  7  4  0  0  0  0
  7  8  4  0  0  0  0
  8  9  1  0  0  0  0
  9 10  1  0  0  0  0
  9 11  1  0  0  0  0
  8 12  4  0  0  0  0
  4 12  4  0  0  0  0
 12 13  1  0  0  0  0
  1 14  1  0  0  0  0
  1 15  1  0  0  0  0
  1 16  1  0  0  0  0
  2 17  1  0  0  0  0
  3 18  1  0  0  0  0
  3 19  1  0  0  0  0
  3 20  1  0  0  0  0
  5 21  1  0  0  0  0
  6 22  1  0  0  0  0
  7 23  1  0  0  0  0
  9 24  1  0  0  0  0
 10 25  1  0  0  0  0
 10 26  1  0  0  0  0
 10 27  1  0  0  0  0
 11 28  1  0  0  0  0
 11 29  1  0  0  0  0
 11 30  1  0  0  0  0
 13 31  1  0  0  0  0
M  END
>  <InChIKey>
InChI=1S/C12H18O/c1-8(2)10-6-5-7-11(9(3)4)12(10)13/h5-9,13H,1-4H3

>  <CASRN>
2078-54-8

> <Outcome>
0

>  <Index>
2398

>  <StandardizerResult>
Dearomatize (ID: Dearomatize)
Clear Stereo (ID: ClearStereo)
Wedge Clean (ID: WedgeClean)
Mesomerize (ID: Mesomerize)
Tautomerize (ID: Tautomerize)
Aromatize (ID: Aromatize)
Add Explicit Hydrogens (ID: AddExplicitH)
Neutralize (ID: Neutralize)
Clean 2D (ID: Clean2D)

> <knn Distance>
1.73205077648163

> <CpId>
2398

$$$$
3279
  Mrv1532301301811342D          

 15 15  0  0  0  0            999 V2000
    0.7145    2.8875    0.0000 F   0  0  0  0  0  0  0  0  0  0  0  0
    0.7145    2.0625    0.0000 C   0  0  0  0  0  0  0  0  0  0  0  0
   -0.1105    2.0625    0.0000 F   0  0  0  0  0  0  0  0  0  0  0  0
    1.5395    2.0625    0.0000 F   0  0  0  0  0  0  0  0  0  0  0  0
    0.7145    1.2375    0.0000 C   0  0  0  0  0  0  0  0  0  0  0  0
    1.4289    0.8250    0.0000 C   0  0  0  0  0  0  0  0  0  0  0  0
    1.4289    0.0000    0.0000 C   0  0  0  0  0  0  0  0  0  0  0  0
    0.7145   -0.4125    0.0000 C   0  0  0  0  0  0  0  0  0  0  0  0
    0.7145   -1.2375    0.0000 Cl  0  0  0  0  0  0  0  0  0  0  0  0
    0.0000    0.0000    0.0000 C   0  0  0  0  0  0  0  0  0  0  0  0
   -0.7145   -0.4125    0.0000 Cl  0  0  0  0  0  0  0  0  0  0  0  0
    0.0000    0.8250    0.0000 C   0  0  0  0  0  0  0  0  0  0  0  0
    2.1434    1.2375    0.0000 H   0  0  0  0  0  0  0  0  0  0  0  0
    2.1434   -0.4125    0.0000 H   0  0  0  0  0  0  0  0  0  0  0  0
   -0.7145    1.2375    0.0000 H   0  0  0  0  0  0  0  0  0  0  0  0
  1  2  1  0  0  0  0
  2  3  1  0  0  0  0
  2  4  1  0  0  0  0
  2  5  1  0  0  0  0
  5  6  4  0  0  0  0
  6  7  4  0  0  0  0
  7  8  4  0  0  0  0
  8  9  1  0  0  0  0
  8 10  4  0  0  0  0
 10 11  1  0  0  0  0
 10 12  4  0  0  0  0
  5 12  4  0  0  0  0
  6 13  1  0  0  0  0
  7 14  1  0  0  0  0
 12 15  1  0  0  0  0
M  END
>  <InChIKey>
InChI=1S/C7H3Cl2F3/c8-5-2-1-4(3-6(5)9)7(10,11)12/h1-3H

>  <CASRN>
328-84-7

> <Outcome>
0

>  <Index>
3279

>  <StandardizerResult>
Dearomatize (ID: Dearomatize)
Clear Stereo (ID: ClearStereo)
Wedge Clean (ID: WedgeClean)
Mesomerize (ID: Mesomerize)
Tautomerize (ID: Tautomerize)
Aromatize (ID: Aromatize)
Add Explicit Hydrogens (ID: AddExplicitH)
Neutralize (ID: Neutralize)
Clean 2D (ID: Clean2D)

> <knn Distance>
1.73205077648163

> <CpId>
3279

$$$$
165
  Mrv1532301301811342D          

 86 85  0  0  0  0            999 V2000
   15.3730    9.7008    0.0000 C   0  0  0  0  0  0  0  0  0  0  0  0
   16.0875    9.2883    0.0000 C   0  0  0  0  0  0  0  0  0  0  0  0
   16.8020    9.7008    0.0000 C   0  0  0  0  0  0  0  0  0  0  0  0
   17.5164    9.2883    0.0000 C   0  0  0  0  0  0  0  0  0  0  0  0
   18.2309    9.7008    0.0000 C   0  0  0  0  0  0  0  0  0  0  0  0
   18.9454    9.2883    0.0000 C   0  0  0  0  0  0  0  0  0  0  0  0
   19.6599    9.7008    0.0000 C   0  0  0  0  0  0  0  0  0  0  0  0
   20.3743    9.2883    0.0000 C   0  0  0  0  0  0  0  0  0  0  0  0
   21.0888    9.7008    0.0000 C   0  0  0  0  0  0  0  0  0  0  0  0
   21.8033    9.2883    0.0000 C   0  0  0  0  0  0  0  0  0  0  0  0
   22.5177    9.7008    0.0000 C   0  0  0  0  0  0  0  0  0  0  0  0
   23.2322    9.2883    0.0000 C   0  0  0  0  0  0  0  0  0  0  0  0
   23.9467    9.7008    0.0000 C   0  0  0  0  0  0  0  0  0  0  0  0
   24.6612    9.2883    0.0000 C   0  0  0  0  0  0  0  0  0  0  0  0
   25.3756    9.7008    0.0000 O   0  0  0  0  0  0  0  0  0  0  0  0
   26.0901    9.2883    0.0000 C   0  0  0  0  0  0  0  0  0  0  0  0
   26.0901    8.4633    0.0000 O   0  0  0  0  0  0  0  0  0  0  0  0
   26.8046    9.7008    0.0000 C   0  0  0  0  0  0  0  0  0  0  0  0
   27.5190    9.2883    0.0000 C   0  0  0  0  0  0  0  0  0  0  0  0
   28.2335    9.7008    0.0000 C   0  0  0  0  0  0  0  0  0  0  0  0
   28.9480    9.2883    0.0000 C   0  0  0  0  0  0  0  0  0  0  0  0
   29.6624    9.7008    0.0000 C   0  0  0  0  0  0  0  0  0  0  0  0
   30.3769    9.2883    0.0000 C   0  0  0  0  0  0  0  0  0  0  0  0
   31.0914    9.7008    0.0000 C   0  0  0  0  0  0  0  0  0  0  0  0
   31.8059    9.2883    0.0000 C   0  0  0  0  0  0  0  0  0  0  0  0
   32.5203    9.7008    0.0000 C   0  0  0  0  0  0  0  0  0  0  0  0
   33.2348    9.2883    0.0000 C   0  0  0  0  0  0  0  0  0  0  0  0
   33.9493    9.7008    0.0000 C   0  0  0  0  0  0  0  0  0  0  0  0
   34.6637    9.2883    0.0000 C   0  0  0  0  0  0  0  0  0  0  0  0
   35.3782    9.7008    0.0000 C   0  0  0  0  0  0  0  0  0  0  0  0
   15.7855   10.4153    0.0000 H   0  0  0  0  0  0  0  0  0  0  0  0
   14.6586   10.1133    0.0000 H   0  0  0  0  0  0  0  0  0  0  0  0
   14.9605    8.9863    0.0000 H   0  0  0  0  0  0  0  0  0  0  0  0
   15.7172    8.5511    0.0000 H   0  0  0  0  0  0  0  0  0  0  0  0
   16.4578    8.5511    0.0000 H   0  0  0  0  0  0  0  0  0  0  0  0
   17.1722   10.4381    0.0000 H   0  0  0  0  0  0  0  0  0  0  0  0
   16.4317   10.4381    0.0000 H   0  0  0  0  0  0  0  0  0  0  0  0
   17.1462    8.5511    0.0000 H   0  0  0  0  0  0  0  0  0  0  0  0
   17.8867    8.5511    0.0000 H   0  0  0  0  0  0  0  0  0  0  0  0
   18.6012   10.4381    0.0000 H   0  0  0  0  0  0  0  0  0  0  0  0
   17.8607   10.4381    0.0000 H   0  0  0  0  0  0  0  0  0  0  0  0
   18.5751    8.5511    0.0000 H   0  0  0  0  0  0  0  0  0  0  0  0
   19.3156    8.5511    0.0000 H   0  0  0  0  0  0  0  0  0  0  0  0
   20.0301   10.4381    0.0000 H   0  0  0  0  0  0  0  0  0  0  0  0
   19.2896   10.4381    0.0000 H   0  0  0  0  0  0  0  0  0  0  0  0
   20.0041    8.5511    0.0000 H   0  0  0  0  0  0  0  0  0  0  0  0
   20.7446    8.5511    0.0000 H   0  0  0  0  0  0  0  0  0  0  0  0
   21.4591   10.4381    0.0000 H   0  0  0  0  0  0  0  0  0  0  0  0
   20.7185   10.4381    0.0000 H   0  0  0  0  0  0  0  0  0  0  0  0
   21.4330    8.5511    0.0000 H   0  0  0  0  0  0  0  0  0  0  0  0
   22.1735    8.5511    0.0000 H   0  0  0  0  0  0  0  0  0  0  0  0
   22.8880   10.4381    0.0000 H   0  0  0  0  0  0  0  0  0  0  0  0
   22.1475   10.4381    0.0000 H   0  0  0  0  0  0  0  0  0  0  0  0
   22.8619    8.5511    0.0000 H   0  0  0  0  0  0  0  0  0  0  0  0
   23.6025    8.5511    0.0000 H   0  0  0  0  0  0  0  0  0  0  0  0
   24.3169   10.4381    0.0000 H   0  0  0  0  0  0  0  0  0  0  0  0
   23.5764   10.4381    0.0000 H   0  0  0  0  0  0  0  0  0  0  0  0
   24.2909    8.5511    0.0000 H   0  0  0  0  0  0  0  0  0  0  0  0
   25.0314    8.5511    0.0000 H   0  0  0  0  0  0  0  0  0  0  0  0
   27.1748   10.4381    0.0000 H   0  0  0  0  0  0  0  0  0  0  0  0
   26.4343   10.4381    0.0000 H   0  0  0  0  0  0  0  0  0  0  0  0
   27.1488    8.5511    0.0000 H   0  0  0  0  0  0  0  0  0  0  0  0
   27.8893    8.5511    0.0000 H   0  0  0  0  0  0  0  0  0  0  0  0
   28.6038   10.4381    0.0000 H   0  0  0  0  0  0  0  0  0  0  0  0
   27.8632   10.4381    0.0000 H   0  0  0  0  0  0  0  0  0  0  0  0
   28.5777    8.5511    0.0000 H   0  0  0  0  0  0  0  0  0  0  0  0
   29.3182    8.5511    0.0000 H   0  0  0  0  0  0  0  0  0  0  0  0
   30.0327   10.4381    0.0000 H   0  0  0  0  0  0  0  0  0  0  0  0
   29.2922   10.4381    0.0000 H   0  0  0  0  0  0  0  0  0  0  0  0
   30.0067    8.5511    0.0000 H   0  0  0  0  0  0  0  0  0  0  0  0
   30.7472    8.5511    0.0000 H   0  0  0  0  0  0  0  0  0  0  0  0
   31.4616   10.4381    0.0000 H   0  0  0  0  0  0  0  0  0  0  0  0
   30.7211   10.4381    0.0000 H   0  0  0  0  0  0  0  0  0  0  0  0
   31.4356    8.5511    0.0000 H   0  0  0  0  0  0  0  0  0  0  0  0
   32.1761    8.5511    0.0000 H   0  0  0  0  0  0  0  0  0  0  0  0
   32.8906   10.4381    0.0000 H   0  0  0  0  0  0  0  0  0  0  0  0
   32.1501   10.4381    0.0000 H   0  0  0  0  0  0  0  0  0  0  0  0
   32.8645    8.5511    0.0000 H   0  0  0  0  0  0  0  0  0  0  0  0
   33.6051    8.5511    0.0000 H   0  0  0  0  0  0  0  0  0  0  0  0
   34.3195   10.4381    0.0000 H   0  0  0  0  0  0  0  0  0  0  0  0
   33.5790   10.4381    0.0000 H   0  0  0  0  0  0  0  0  0  0  0  0
   34.2935    8.5511    0.0000 H   0  0  0  0  0  0  0  0  0  0  0  0
   35.0340    8.5511    0.0000 H   0  0  0  0  0  0  0  0  0  0  0  0
   35.7907    8.9863    0.0000 H   0  0  0  0  0  0  0  0  0  0  0  0
   36.0927   10.1133    0.0000 H   0  0  0  0  0  0  0  0  0  0  0  0
   34.9657   10.4153    0.0000 H   0  0  0  0  0  0  0  0  0  0  0  0
  1  2  1  0  0  0  0
  2  3  1  0  0  0  0
  3  4  1  0  0  0  0
  4  5  1  0  0  0  0
  5  6  1  0  0  0  0
  6  7  1  0  0  0  0
  7  8  1  0  0  0  0
  8  9  1  0  0  0  0
  9 10  1  0  0  0  0
 10 11  1  0  0  0  0
 11 12  1  0  0  0  0
 12 13  1  0  0  0  0
 13 14  1  0  0  0  0
 14 15  1  0  0  0  0
 15 16  1  0  0  0  0
 16 17  2  0  0  0  0
 16 18  1  0  0  0  0
 18 19  1  0  0  0  0
 19 20  1  0  0  0  0
 20 21  1  0  0  0  0
 21 22  1  0  0  0  0
 22 23  1  0  0  0  0
 23 24  1  0  0  0  0
 24 25  1  0  0  0  0
 25 26  1  0  0  0  0
 26 27  1  0  0  0  0
 27 28  1  0  0  0  0
 28 29  1  0  0  0  0
 29 30  1  0  0  0  0
  1 31  1  0  0  0  0
  1 32  1  0  0  0  0
  1 33  1  0  0  0  0
  2 34  1  0  0  0  0
  2 35  1  0  0  0  0
  3 36  1  0  0  0  0
  3 37  1  0  0  0  0
  4 38  1  0  0  0  0
  4 39  1  0  0  0  0
  5 40  1  0  0  0  0
  5 41  1  0  0  0  0
  6 42  1  0  0  0  0
  6 43  1  0  0  0  0
  7 44  1  0  0  0  0
  7 45  1  0  0  0  0
  8 46  1  0  0  0  0
  8 47  1  0  0  0  0
  9 48  1  0  0  0  0
  9 49  1  0  0  0  0
 10 50  1  0  0  0  0
 10 51  1  0  0  0  0
 11 52  1  0  0  0  0
 11 53  1  0  0  0  0
 12 54  1  0  0  0  0
 12 55  1  0  0  0  0
 13 56  1  0  0  0  0
 13 57  1  0  0  0  0
 14 58  1  0  0  0  0
 14 59  1  0  0  0  0
 18 60  1  0  0  0  0
 18 61  1  0  0  0  0
 19 62  1  0  0  0  0
 19 63  1  0  0  0  0
 20 64  1  0  0  0  0
 20 65  1  0  0  0  0
 21 66  1  0  0  0  0
 21 67  1  0  0  0  0
 22 68  1  0  0  0  0
 22 69  1  0  0  0  0
 23 70  1  0  0  0  0
 23 71  1  0  0  0  0
 24 72  1  0  0  0  0
 24 73  1  0  0  0  0
 25 74  1  0  0  0  0
 25 75  1  0  0  0  0
 26 76  1  0  0  0  0
 26 77  1  0  0  0  0
 27 78  1  0  0  0  0
 27 79  1  0  0  0  0
 28 80  1  0  0  0  0
 28 81  1  0  0  0  0
 29 82  1  0  0  0  0
 29 83  1  0  0  0  0
 30 84  1  0  0  0  0
 30 85  1  0  0  0  0
 30 86  1  0  0  0  0
M  END
>  <InChIKey>
DZKXJUASMGQEMA-UHFFFAOYSA-N

>  <UN GHS>
Non-irritant

>  <CASRN>
3234-85-3

> <Outcome>
0

>  <Index>
165

>  <StandardizerResult>
Clear Stereo (ID: ClearStereo)
Wedge Clean (ID: WedgeClean)
Mesomerize (ID: Mesomerize)
Tautomerize (ID: Tautomerize)
Add Explicit Hydrogens (ID: AddExplicitH)
Neutralize (ID: Neutralize)
Clean 2D (ID: Clean2D)

> <knn Distance>
2.0

> <CpId>
165

$$$$
975
  Mrv1532301301811342D          

 13 13  0  0  0  0            999 V2000
    0.7145    2.0625    0.0000 Cl  0  0  0  0  0  0  0  0  0  0  0  0
    0.7145    1.2375    0.0000 C   0  0  0  0  0  0  0  0  0  0  0  0
    1.4289    0.8250    0.0000 C   0  0  0  0  0  0  0  0  0  0  0  0
    1.4289    0.0000    0.0000 C   0  0  0  0  0  0  0  0  0  0  0  0
    0.7145   -0.4125    0.0000 C   0  0  0  0  0  0  0  0  0  0  0  0
   -0.0000    0.0000    0.0000 C   0  0  0  0  0  0  0  0  0  0  0  0
   -0.7145   -0.4125    0.0000 Cl  0  0  0  0  0  0  0  0  0  0  0  0
   -0.0000    0.8250    0.0000 C   0  0  0  0  0  0  0  0  0  0  0  0
   -0.7145    1.2375    0.0000 C   0  0  0  0  0  0  0  0  0  0  0  0
   -1.4289    1.6500    0.0000 N   0  0  0  0  0  0  0  0  0  0  0  0
    2.1434    1.2375    0.0000 H   0  0  0  0  0  0  0  0  0  0  0  0
    2.1434   -0.4125    0.0000 H   0  0  0  0  0  0  0  0  0  0  0  0
    0.7145   -1.2375    0.0000 H   0  0  0  0  0  0  0  0  0  0  0  0
  1  2  1  0  0  0  0
  2  3  4  0  0  0  0
  3  4  4  0  0  0  0
  4  5  4  0  0  0  0
  5  6  4  0  0  0  0
  6  7  1  0  0  0  0
  6  8  4  0  0  0  0
  2  8  4  0  0  0  0
  8  9  1  0  0  0  0
  9 10  3  0  0  0  0
  3 11  1  0  0  0  0
  4 12  1  0  0  0  0
  5 13  1  0  0  0  0
M  END
>  <InChIKey>
YOYAIZYFCNQIRF-UHFFFAOYSA-N

>  <UN GHS>
Non-irritant

>  <CASRN>
1194-65-6

> <Outcome>
0

>  <Index>
975

>  <StandardizerResult>
Dearomatize (ID: Dearomatize)
Clear Stereo (ID: ClearStereo)
Wedge Clean (ID: WedgeClean)
Mesomerize (ID: Mesomerize)
Tautomerize (ID: Tautomerize)
Aromatize (ID: Aromatize)
Add Explicit Hydrogens (ID: AddExplicitH)
Neutralize (ID: Neutralize)
Clean 2D (ID: Clean2D)

> <knn Distance>
2.0

> <CpId>
975

$$$$
983
  Mrv1532301301811342D          

 15 15  0  0  0  0            999 V2000
    0.7145    2.0625    0.0000 C   0  0  0  0  0  0  0  0  0  0  0  0
    0.7145    1.2375    0.0000 C   0  0  0  0  0  0  0  0  0  0  0  0
    1.4289    0.8250    0.0000 C   0  0  0  0  0  0  0  0  0  0  0  0
    1.4289    0.0000    0.0000 C   0  0  0  0  0  0  0  0  0  0  0  0
    0.7145   -0.4125    0.0000 C   0  0  0  0  0  0  0  0  0  0  0  0
    0.0000    0.0000    0.0000 C   0  0  0  0  0  0  0  0  0  0  0  0
    0.0000    0.8250    0.0000 C   0  0  0  0  0  0  0  0  0  0  0  0
    1.5395    2.0625    0.0000 H   0  0  0  0  0  0  0  0  0  0  0  0
    0.7145    2.8875    0.0000 H   0  0  0  0  0  0  0  0  0  0  0  0
   -0.1105    2.0625    0.0000 H   0  0  0  0  0  0  0  0  0  0  0  0
    2.1434    1.2375    0.0000 H   0  0  0  0  0  0  0  0  0  0  0  0
    2.1434   -0.4125    0.0000 H   0  0  0  0  0  0  0  0  0  0  0  0
    0.7145   -1.2375    0.0000 H   0  0  0  0  0  0  0  0  0  0  0  0
   -0.7145   -0.4125    0.0000 H   0  0  0  0  0  0  0  0  0  0  0  0
   -0.7145    1.2375    0.0000 H   0  0  0  0  0  0  0  0  0  0  0  0
  1  2  1  0  0  0  0
  2  3  4  0  0  0  0
  3  4  4  0  0  0  0
  4  5  4  0  0  0  0
  5  6  4  0  0  0  0
  6  7  4  0  0  0  0
  2  7  4  0  0  0  0
  1  8  1  0  0  0  0
  1  9  1  0  0  0  0
  1 10  1  0  0  0  0
  3 11  1  0  0  0  0
  4 12  1  0  0  0  0
  5 13  1  0  0  0  0
  6 14  1  0  0  0  0
  7 15  1  0  0  0  0
M  END
>  <InChIKey>
YXFVVABEGXRONW-UHFFFAOYSA-N

>  <UN GHS>
Non-irritant

>  <CASRN>
108-88-3

> <Outcome>
0

>  <Index>
983

>  <StandardizerResult>
Dearomatize (ID: Dearomatize)
Clear Stereo (ID: ClearStereo)
Wedge Clean (ID: WedgeClean)
Mesomerize (ID: Mesomerize)
Tautomerize (ID: Tautomerize)
Aromatize (ID: Aromatize)
Add Explicit Hydrogens (ID: AddExplicitH)
Neutralize (ID: Neutralize)
Clean 2D (ID: Clean2D)

> <knn Distance>
2.0

> <CpId>
983

$$$$
1039
  Mrv1532301301811342D          

 77 76  0  0  0  0            999 V2000
   12.1836    7.8592    0.0000 C   0  0  0  0  0  0  0  0  0  0  0  0
   12.8980    8.2717    0.0000 C   0  0  0  0  0  0  0  0  0  0  0  0
   13.6125    7.8592    0.0000 C   0  0  0  0  0  0  0  0  0  0  0  0
   14.3270    8.2717    0.0000 C   0  0  0  0  0  0  0  0  0  0  0  0
   15.0414    7.8592    0.0000 C   0  0  0  0  0  0  0  0  0  0  0  0
   15.7559    8.2717    0.0000 C   0  0  0  0  0  0  0  0  0  0  0  0
   16.4704    7.8592    0.0000 C   0  0  0  0  0  0  0  0  0  0  0  0
   17.1849    8.2717    0.0000 C   0  0  0  0  0  0  0  0  0  0  0  0
   17.8993    7.8592    0.0000 C   0  0  0  0  0  0  0  0  0  0  0  0
   18.6138    8.2717    0.0000 C   0  0  0  0  0  0  0  0  0  0  0  0
   19.3283    7.8592    0.0000 C   0  0  0  0  0  0  0  0  0  0  0  0
   20.0427    8.2717    0.0000 C   0  0  0  0  0  0  0  0  0  0  0  0
   20.7572    7.8592    0.0000 C   0  0  0  0  0  0  0  0  0  0  0  0
   21.4717    8.2717    0.0000 C   0  0  0  0  0  0  0  0  0  0  0  0
   22.1862    7.8592    0.0000 C   0  0  0  0  0  0  0  0  0  0  0  0
   22.9006    8.2717    0.0000 C   0  0  0  0  0  0  0  0  0  0  0  0
   23.6151    7.8592    0.0000 C   0  0  0  0  0  0  0  0  0  0  0  0
   24.3296    8.2717    0.0000 C   0  0  0  0  0  0  0  0  0  0  0  0
   25.0440    7.8592    0.0000 O   0  0  0  0  0  0  0  0  0  0  0  0
   25.7585    8.2717    0.0000 C   0  0  0  0  0  0  0  0  0  0  0  0
   25.7585    9.0967    0.0000 O   0  0  0  0  0  0  0  0  0  0  0  0
   26.4730    7.8592    0.0000 C   0  0  0  0  0  0  0  0  0  0  0  0
   27.1875    8.2717    0.0000 C   0  0  0  0  0  0  0  0  0  0  0  0
   27.9019    7.8592    0.0000 C   0  0  0  0  0  0  0  0  0  0  0  0
   28.6164    8.2717    0.0000 C   0  0  0  0  0  0  0  0  0  0  0  0
   29.3309    7.8592    0.0000 C   0  0  0  0  0  0  0  0  0  0  0  0
   30.0453    8.2717    0.0000 C   0  0  0  0  0  0  0  0  0  0  0  0
   11.7711    8.5737    0.0000 H   0  0  0  0  0  0  0  0  0  0  0  0
   11.4691    7.4467    0.0000 H   0  0  0  0  0  0  0  0  0  0  0  0
   12.5961    7.1447    0.0000 H   0  0  0  0  0  0  0  0  0  0  0  0
   13.2683    9.0089    0.0000 H   0  0  0  0  0  0  0  0  0  0  0  0
   12.5278    9.0089    0.0000 H   0  0  0  0  0  0  0  0  0  0  0  0
   13.2422    7.1220    0.0000 H   0  0  0  0  0  0  0  0  0  0  0  0
   13.9828    7.1220    0.0000 H   0  0  0  0  0  0  0  0  0  0  0  0
   14.6972    9.0089    0.0000 H   0  0  0  0  0  0  0  0  0  0  0  0
   13.9567    9.0089    0.0000 H   0  0  0  0  0  0  0  0  0  0  0  0
   14.6712    7.1220    0.0000 H   0  0  0  0  0  0  0  0  0  0  0  0
   15.4117    7.1220    0.0000 H   0  0  0  0  0  0  0  0  0  0  0  0
   16.1262    9.0089    0.0000 H   0  0  0  0  0  0  0  0  0  0  0  0
   15.3857    9.0089    0.0000 H   0  0  0  0  0  0  0  0  0  0  0  0
   16.1001    7.1220    0.0000 H   0  0  0  0  0  0  0  0  0  0  0  0
   16.8406    7.1220    0.0000 H   0  0  0  0  0  0  0  0  0  0  0  0
   17.5551    9.0089    0.0000 H   0  0  0  0  0  0  0  0  0  0  0  0
   16.8146    9.0089    0.0000 H   0  0  0  0  0  0  0  0  0  0  0  0
   17.5291    7.1220    0.0000 H   0  0  0  0  0  0  0  0  0  0  0  0
   18.2696    7.1220    0.0000 H   0  0  0  0  0  0  0  0  0  0  0  0
   18.9841    9.0089    0.0000 H   0  0  0  0  0  0  0  0  0  0  0  0
   18.2435    9.0089    0.0000 H   0  0  0  0  0  0  0  0  0  0  0  0
   18.9580    7.1220    0.0000 H   0  0  0  0  0  0  0  0  0  0  0  0
   19.6985    7.1220    0.0000 H   0  0  0  0  0  0  0  0  0  0  0  0
   20.4130    9.0089    0.0000 H   0  0  0  0  0  0  0  0  0  0  0  0
   19.6725    9.0089    0.0000 H   0  0  0  0  0  0  0  0  0  0  0  0
   20.3870    7.1220    0.0000 H   0  0  0  0  0  0  0  0  0  0  0  0
   21.1275    7.1220    0.0000 H   0  0  0  0  0  0  0  0  0  0  0  0
   21.8419    9.0089    0.0000 H   0  0  0  0  0  0  0  0  0  0  0  0
   21.1014    9.0089    0.0000 H   0  0  0  0  0  0  0  0  0  0  0  0
   21.8159    7.1220    0.0000 H   0  0  0  0  0  0  0  0  0  0  0  0
   22.5564    7.1220    0.0000 H   0  0  0  0  0  0  0  0  0  0  0  0
   23.2709    9.0089    0.0000 H   0  0  0  0  0  0  0  0  0  0  0  0
   22.5304    9.0089    0.0000 H   0  0  0  0  0  0  0  0  0  0  0  0
   23.2448    7.1220    0.0000 H   0  0  0  0  0  0  0  0  0  0  0  0
   23.9854    7.1220    0.0000 H   0  0  0  0  0  0  0  0  0  0  0  0
   24.6998    9.0089    0.0000 H   0  0  0  0  0  0  0  0  0  0  0  0
   23.9593    9.0089    0.0000 H   0  0  0  0  0  0  0  0  0  0  0  0
   26.1027    7.1220    0.0000 H   0  0  0  0  0  0  0  0  0  0  0  0
   26.8432    7.1220    0.0000 H   0  0  0  0  0  0  0  0  0  0  0  0
   27.5577    9.0089    0.0000 H   0  0  0  0  0  0  0  0  0  0  0  0
   26.8172    9.0089    0.0000 H   0  0  0  0  0  0  0  0  0  0  0  0
   27.5317    7.1220    0.0000 H   0  0  0  0  0  0  0  0  0  0  0  0
   28.2722    7.1220    0.0000 H   0  0  0  0  0  0  0  0  0  0  0  0
   28.9867    9.0089    0.0000 H   0  0  0  0  0  0  0  0  0  0  0  0
   28.2461    9.0089    0.0000 H   0  0  0  0  0  0  0  0  0  0  0  0
   28.9606    7.1220    0.0000 H   0  0  0  0  0  0  0  0  0  0  0  0
   29.7011    7.1220    0.0000 H   0  0  0  0  0  0  0  0  0  0  0  0
   30.4578    7.5572    0.0000 H   0  0  0  0  0  0  0  0  0  0  0  0
   30.7598    8.6842    0.0000 H   0  0  0  0  0  0  0  0  0  0  0  0
   29.6328    8.9862    0.0000 H   0  0  0  0  0  0  0  0  0  0  0  0
  1  2  1  0  0  0  0
  2  3  1  0  0  0  0
  3  4  1  0  0  0  0
  4  5  1  0  0  0  0
  5  6  1  0  0  0  0
  6  7  1  0  0  0  0
  7  8  1  0  0  0  0
  8  9  1  0  0  0  0
  9 10  1  0  0  0  0
 10 11  1  0  0  0  0
 11 12  1  0  0  0  0
 12 13  1  0  0  0  0
 13 14  1  0  0  0  0
 14 15  1  0  0  0  0
 15 16  1  0  0  0  0
 16 17  1  0  0  0  0
 17 18  1  0  0  0  0
 18 19  1  0  0  0  0
 19 20  1  0  0  0  0
 20 21  2  0  0  0  0
 20 22  1  0  0  0  0
 22 23  1  0  0  0  0
 23 24  1  0  0  0  0
 24 25  1  0  0  0  0
 25 26  1  0  0  0  0
 26 27  1  0  0  0  0
  1 28  1  0  0  0  0
  1 29  1  0  0  0  0
  1 30  1  0  0  0  0
  2 31  1  0  0  0  0
  2 32  1  0  0  0  0
  3 33  1  0  0  0  0
  3 34  1  0  0  0  0
  4 35  1  0  0  0  0
  4 36  1  0  0  0  0
  5 37  1  0  0  0  0
  5 38  1  0  0  0  0
  6 39  1  0  0  0  0
  6 40  1  0  0  0  0
  7 41  1  0  0  0  0
  7 42  1  0  0  0  0
  8 43  1  0  0  0  0
  8 44  1  0  0  0  0
  9 45  1  0  0  0  0
  9 46  1  0  0  0  0
 10 47  1  0  0  0  0
 10 48  1  0  0  0  0
 11 49  1  0  0  0  0
 11 50  1  0  0  0  0
 12 51  1  0  0  0  0
 12 52  1  0  0  0  0
 13 53  1  0  0  0  0
 13 54  1  0  0  0  0
 14 55  1  0  0  0  0
 14 56  1  0  0  0  0
 15 57  1  0  0  0  0
 15 58  1  0  0  0  0
 16 59  1  0  0  0  0
 16 60  1  0  0  0  0
 17 61  1  0  0  0  0
 17 62  1  0  0  0  0
 18 63  1  0  0  0  0
 18 64  1  0  0  0  0
 22 65  1  0  0  0  0
 22 66  1  0  0  0  0
 23 67  1  0  0  0  0
 23 68  1  0  0  0  0
 24 69  1  0  0  0  0
 24 70  1  0  0  0  0
 25 71  1  0  0  0  0
 25 72  1  0  0  0  0
 26 73  1  0  0  0  0
 26 74  1  0  0  0  0
 27 75  1  0  0  0  0
 27 76  1  0  0  0  0
 27 77  1  0  0  0  0
M  END
>  <InChIKey>
InChI=1S/C25H50O2/c1-3-5-7-9-10-11-12-13-14-15-16-17-18-19-20-22-24-27-25(26)23-21-8-6-4-2/h3-24H2,1-2H3

>  <CASRN>
66009-41-4

> <Outcome>
0

>  <Index>
1039

>  <StandardizerResult>
Clear Stereo (ID: ClearStereo)
Wedge Clean (ID: WedgeClean)
Mesomerize (ID: Mesomerize)
Tautomerize (ID: Tautomerize)
Add Explicit Hydrogens (ID: AddExplicitH)
Neutralize (ID: Neutralize)
Clean 2D (ID: Clean2D)

> <knn Distance>
2.0

> <CpId>
1039

$$$$
1058
  Mrv1532301301811342D          

  5  4  0  0  0  0            999 V2000
    0.8250   -0.8250    0.0000 F   0  0  0  0  0  0  0  0  0  0  0  0
    0.8250    0.0000    0.0000 C   0  0  0  0  0  0  0  0  0  0  0  0
    0.8250    0.8250    0.0000 F   0  0  0  0  0  0  0  0  0  0  0  0
    1.6500   -0.0000    0.0000 F   0  0  0  0  0  0  0  0  0  0  0  0
    0.0000    0.0000    0.0000 Cl  0  0  0  0  0  0  0  0  0  0  0  0
  1  2  1  0  0  0  0
  2  3  1  0  0  0  0
  2  4  1  0  0  0  0
  2  5  1  0  0  0  0
M  END
>  <InChIKey>
InChI=1S/CClF3/c2-1(3,4)5

>  <CASRN>
75-72-9

> <Outcome>
0

>  <Index>
1058

>  <StandardizerResult>
Clear Stereo (ID: ClearStereo)
Wedge Clean (ID: WedgeClean)
Mesomerize (ID: Mesomerize)
Tautomerize (ID: Tautomerize)
Clean 2D (ID: Clean2D)

> <knn Distance>
2.0

> <CpId>
1058

$$$$
1075
  Mrv1532301301811342D          

  8  7  0  0  0  0            999 V2000
    0.8250   -1.6500    0.0000 F   0  0  0  0  0  0  0  0  0  0  0  0
    0.8250   -0.8250    0.0000 C   0  0  0  0  0  0  0  0  0  0  0  0
    1.6500   -0.8250    0.0000 F   0  0  0  0  0  0  0  0  0  0  0  0
    0.0000   -0.8250    0.0000 Cl  0  0  0  0  0  0  0  0  0  0  0  0
    0.8250    0.0000    0.0000 C   0  0  0  0  0  0  0  0  0  0  0  0
    0.8250    0.8250    0.0000 F   0  0  0  0  0  0  0  0  0  0  0  0
    1.6500   -0.0000    0.0000 Cl  0  0  0  0  0  0  0  0  0  0  0  0
    0.0000    0.0000    0.0000 Cl  0  0  0  0  0  0  0  0  0  0  0  0
  1  2  1  0  0  0  0
  2  3  1  0  0  0  0
  2  4  1  0  0  0  0
  2  5  1  0  0  0  0
  5  6  1  0  0  0  0
  5  7  1  0  0  0  0
  5  8  1  0  0  0  0
M  END
>  <InChIKey>
InChI=1S/C2Cl3F3/c3-1(4,6)2(5,7)8

>  <CASRN>
76-13-1

> <Outcome>
0

>  <Index>
1075

>  <StandardizerResult>
Clear Stereo (ID: ClearStereo)
Wedge Clean (ID: WedgeClean)
Mesomerize (ID: Mesomerize)
Tautomerize (ID: Tautomerize)
Clean 2D (ID: Clean2D)

> <knn Distance>
2.0

> <CpId>
1075

$$$$
1374
  Mrv1532301301811342D          

 56 55  0  0  0  0            999 V2000
    9.1855    6.1286    0.0000 C   0  0  0  0  0  0  0  0  0  0  0  0
    9.9000    5.7161    0.0000 C   0  0  0  0  0  0  0  0  0  0  0  0
   10.6145    6.1286    0.0000 C   0  0  0  0  0  0  0  0  0  0  0  0
   11.3289    5.7161    0.0000 C   0  0  0  0  0  0  0  0  0  0  0  0
   12.0434    6.1286    0.0000 C   0  0  0  0  0  0  0  0  0  0  0  0
   12.7579    5.7161    0.0000 C   0  0  0  0  0  0  0  0  0  0  0  0
   13.4724    6.1286    0.0000 C   0  0  0  0  0  0  0  0  0  0  0  0
   14.1868    5.7161    0.0000 C   0  0  0  0  0  0  0  0  0  0  0  0
   14.9013    6.1286    0.0000 C   0  0  0  0  0  0  0  0  0  0  0  0
   15.6158    5.7161    0.0000 C   0  0  0  0  0  0  0  0  0  0  0  0
   16.3302    6.1286    0.0000 C   0  0  0  0  0  0  0  0  0  0  0  0
   17.0447    5.7161    0.0000 C   0  0  0  0  0  0  0  0  0  0  0  0
   17.7592    6.1286    0.0000 C   0  0  0  0  0  0  0  0  0  0  0  0
   18.4737    5.7161    0.0000 C   0  0  0  0  0  0  0  0  0  0  0  0
   18.4737    4.8911    0.0000 O   0  0  0  0  0  0  0  0  0  0  0  0
   19.1881    6.1286    0.0000 O   0  0  0  0  0  0  0  0  0  0  0  0
   19.9026    5.7161    0.0000 C   0  0  0  0  0  0  0  0  0  0  0  0
   20.6171    6.1286    0.0000 C   0  0  0  0  0  0  0  0  0  0  0  0
   21.3315    5.7161    0.0000 C   0  0  0  0  0  0  0  0  0  0  0  0
   22.0460    6.1286    0.0000 C   0  0  0  0  0  0  0  0  0  0  0  0
    9.5980    6.8431    0.0000 H   0  0  0  0  0  0  0  0  0  0  0  0
    8.4711    6.5411    0.0000 H   0  0  0  0  0  0  0  0  0  0  0  0
    8.7730    5.4141    0.0000 H   0  0  0  0  0  0  0  0  0  0  0  0
    9.5297    4.9789    0.0000 H   0  0  0  0  0  0  0  0  0  0  0  0
   10.2703    4.9789    0.0000 H   0  0  0  0  0  0  0  0  0  0  0  0
   10.9847    6.8659    0.0000 H   0  0  0  0  0  0  0  0  0  0  0  0
   10.2442    6.8659    0.0000 H   0  0  0  0  0  0  0  0  0  0  0  0
   10.9587    4.9789    0.0000 H   0  0  0  0  0  0  0  0  0  0  0  0
   11.6992    4.9789    0.0000 H   0  0  0  0  0  0  0  0  0  0  0  0
   12.4137    6.8659    0.0000 H   0  0  0  0  0  0  0  0  0  0  0  0
   11.6732    6.8659    0.0000 H   0  0  0  0  0  0  0  0  0  0  0  0
   12.3876    4.9789    0.0000 H   0  0  0  0  0  0  0  0  0  0  0  0
   13.1281    4.9789    0.0000 H   0  0  0  0  0  0  0  0  0  0  0  0
   13.8426    6.8659    0.0000 H   0  0  0  0  0  0  0  0  0  0  0  0
   13.1021    6.8659    0.0000 H   0  0  0  0  0  0  0  0  0  0  0  0
   13.8166    4.9789    0.0000 H   0  0  0  0  0  0  0  0  0  0  0  0
   14.5571    4.9789    0.0000 H   0  0  0  0  0  0  0  0  0  0  0  0
   15.2716    6.8659    0.0000 H   0  0  0  0  0  0  0  0  0  0  0  0
   14.5310    6.8659    0.0000 H   0  0  0  0  0  0  0  0  0  0  0  0
   15.2455    4.9789    0.0000 H   0  0  0  0  0  0  0  0  0  0  0  0
   15.9860    4.9789    0.0000 H   0  0  0  0  0  0  0  0  0  0  0  0
   16.7005    6.8659    0.0000 H   0  0  0  0  0  0  0  0  0  0  0  0
   15.9600    6.8659    0.0000 H   0  0  0  0  0  0  0  0  0  0  0  0
   16.6745    4.9789    0.0000 H   0  0  0  0  0  0  0  0  0  0  0  0
   17.4150    4.9789    0.0000 H   0  0  0  0  0  0  0  0  0  0  0  0
   18.1294    6.8659    0.0000 H   0  0  0  0  0  0  0  0  0  0  0  0
   17.3889    6.8659    0.0000 H   0  0  0  0  0  0  0  0  0  0  0  0
   19.5323    4.9789    0.0000 H   0  0  0  0  0  0  0  0  0  0  0  0
   20.2729    4.9789    0.0000 H   0  0  0  0  0  0  0  0  0  0  0  0
   20.9873    6.8659    0.0000 H   0  0  0  0  0  0  0  0  0  0  0  0
   20.2468    6.8659    0.0000 H   0  0  0  0  0  0  0  0  0  0  0  0
   20.9613    4.9789    0.0000 H   0  0  0  0  0  0  0  0  0  0  0  0
   21.7018    4.9789    0.0000 H   0  0  0  0  0  0  0  0  0  0  0  0
   22.4585    5.4141    0.0000 H   0  0  0  0  0  0  0  0  0  0  0  0
   22.7605    6.5411    0.0000 H   0  0  0  0  0  0  0  0  0  0  0  0
   21.6335    6.8431    0.0000 H   0  0  0  0  0  0  0  0  0  0  0  0
  1  2  1  0  0  0  0
  2  3  1  0  0  0  0
  3  4  1  0  0  0  0
  4  5  1  0  0  0  0
  5  6  1  0  0  0  0
  6  7  1  0  0  0  0
  7  8  1  0  0  0  0
  8  9  1  0  0  0  0
  9 10  1  0  0  0  0
 10 11  1  0  0  0  0
 11 12  1  0  0  0  0
 12 13  1  0  0  0  0
 13 14  1  0  0  0  0
 14 15  2  0  0  0  0
 14 16  1  0  0  0  0
 16 17  1  0  0  0  0
 17 18  1  0  0  0  0
 18 19  1  0  0  0  0
 19 20  1  0  0  0  0
  1 21  1  0  0  0  0
  1 22  1  0  0  0  0
  1 23  1  0  0  0  0
  2 24  1  0  0  0  0
  2 25  1  0  0  0  0
  3 26  1  0  0  0  0
  3 27  1  0  0  0  0
  4 28  1  0  0  0  0
  4 29  1  0  0  0  0
  5 30  1  0  0  0  0
  5 31  1  0  0  0  0
  6 32  1  0  0  0  0
  6 33  1  0  0  0  0
  7 34  1  0  0  0  0
  7 35  1  0  0  0  0
  8 36  1  0  0  0  0
  8 37  1  0  0  0  0
  9 38  1  0  0  0  0
  9 39  1  0  0  0  0
 10 40  1  0  0  0  0
 10 41  1  0  0  0  0
 11 42  1  0  0  0  0
 11 43  1  0  0  0  0
 12 44  1  0  0  0  0
 12 45  1  0  0  0  0
 13 46  1  0  0  0  0
 13 47  1  0  0  0  0
 17 48  1  0  0  0  0
 17 49  1  0  0  0  0
 18 50  1  0  0  0  0
 18 51  1  0  0  0  0
 19 52  1  0  0  0  0
 19 53  1  0  0  0  0
 20 54  1  0  0  0  0
 20 55  1  0  0  0  0
 20 56  1  0  0  0  0
M  END
>  <InChIKey>
InChI=1S/C18H36O2/c1-3-5-7-8-9-10-11-12-13-14-15-16-18(19)20-17-6-4-2/h3-17H2,1-2H3

>  <CASRN>
110-36-1

> <Outcome>
0

>  <Index>
1374

>  <StandardizerResult>
Clear Stereo (ID: ClearStereo)
Wedge Clean (ID: WedgeClean)
Mesomerize (ID: Mesomerize)
Tautomerize (ID: Tautomerize)
Add Explicit Hydrogens (ID: AddExplicitH)
Neutralize (ID: Neutralize)
Clean 2D (ID: Clean2D)

> <knn Distance>
2.0

> <CpId>
1374

$$$$
1763
  Mrv1532301301811342D          

 80 79  0  0  0  0            999 V2000
   14.1355    8.9864    0.0000 C   0  0  0  0  0  0  0  0  0  0  0  0
   14.8500    8.5739    0.0000 C   0  0  0  0  0  0  0  0  0  0  0  0
   15.5645    8.9864    0.0000 C   0  0  0  0  0  0  0  0  0  0  0  0
   16.2789    8.5739    0.0000 C   0  0  0  0  0  0  0  0  0  0  0  0
   16.9934    8.9864    0.0000 C   0  0  0  0  0  0  0  0  0  0  0  0
   17.7079    8.5739    0.0000 C   0  0  0  0  0  0  0  0  0  0  0  0
   18.4224    8.9864    0.0000 C   0  0  0  0  0  0  0  0  0  0  0  0
   19.1368    8.5739    0.0000 C   0  0  0  0  0  0  0  0  0  0  0  0
   19.8513    8.9864    0.0000 C   0  0  0  0  0  0  0  0  0  0  0  0
   20.5658    8.5739    0.0000 C   0  0  0  0  0  0  0  0  0  0  0  0
   21.2802    8.9864    0.0000 C   0  0  0  0  0  0  0  0  0  0  0  0
   21.9947    8.5739    0.0000 C   0  0  0  0  0  0  0  0  0  0  0  0
   22.7092    8.9864    0.0000 C   0  0  0  0  0  0  0  0  0  0  0  0
   23.4237    8.5739    0.0000 C   0  0  0  0  0  0  0  0  0  0  0  0
   24.1381    8.9864    0.0000 C   0  0  0  0  0  0  0  0  0  0  0  0
   24.8526    8.5739    0.0000 C   0  0  0  0  0  0  0  0  0  0  0  0
   25.5671    8.9864    0.0000 C   0  0  0  0  0  0  0  0  0  0  0  0
   26.2815    8.5739    0.0000 C   0  0  0  0  0  0  0  0  0  0  0  0
   26.2815    7.7489    0.0000 O   0  0  0  0  0  0  0  0  0  0  0  0
   26.9960    8.9864    0.0000 O   0  0  0  0  0  0  0  0  0  0  0  0
   27.7105    8.5739    0.0000 C   0  0  0  0  0  0  0  0  0  0  0  0
   28.4249    8.9864    0.0000 C   0  0  0  0  0  0  0  0  0  0  0  0
   29.1394    8.5739    0.0000 C   0  0  0  0  0  0  0  0  0  0  0  0
   29.8539    8.9864    0.0000 C   0  0  0  0  0  0  0  0  0  0  0  0
   30.5684    8.5739    0.0000 C   0  0  0  0  0  0  0  0  0  0  0  0
   31.2828    8.9864    0.0000 C   0  0  0  0  0  0  0  0  0  0  0  0
   31.9973    8.5739    0.0000 C   0  0  0  0  0  0  0  0  0  0  0  0
   32.7118    8.9864    0.0000 C   0  0  0  0  0  0  0  0  0  0  0  0
   14.5480    9.7009    0.0000 H   0  0  0  0  0  0  0  0  0  0  0  0
   13.4211    9.3989    0.0000 H   0  0  0  0  0  0  0  0  0  0  0  0
   13.7230    8.2719    0.0000 H   0  0  0  0  0  0  0  0  0  0  0  0
   14.4797    7.8367    0.0000 H   0  0  0  0  0  0  0  0  0  0  0  0
   15.2203    7.8367    0.0000 H   0  0  0  0  0  0  0  0  0  0  0  0
   15.9347    9.7237    0.0000 H   0  0  0  0  0  0  0  0  0  0  0  0
   15.1942    9.7237    0.0000 H   0  0  0  0  0  0  0  0  0  0  0  0
   15.9087    7.8367    0.0000 H   0  0  0  0  0  0  0  0  0  0  0  0
   16.6492    7.8367    0.0000 H   0  0  0  0  0  0  0  0  0  0  0  0
   17.3637    9.7237    0.0000 H   0  0  0  0  0  0  0  0  0  0  0  0
   16.6232    9.7237    0.0000 H   0  0  0  0  0  0  0  0  0  0  0  0
   17.3376    7.8367    0.0000 H   0  0  0  0  0  0  0  0  0  0  0  0
   18.0781    7.8367    0.0000 H   0  0  0  0  0  0  0  0  0  0  0  0
   18.7926    9.7237    0.0000 H   0  0  0  0  0  0  0  0  0  0  0  0
   18.0521    9.7237    0.0000 H   0  0  0  0  0  0  0  0  0  0  0  0
   18.7666    7.8367    0.0000 H   0  0  0  0  0  0  0  0  0  0  0  0
   19.5071    7.8367    0.0000 H   0  0  0  0  0  0  0  0  0  0  0  0
   20.2216    9.7237    0.0000 H   0  0  0  0  0  0  0  0  0  0  0  0
   19.4810    9.7237    0.0000 H   0  0  0  0  0  0  0  0  0  0  0  0
   20.1955    7.8367    0.0000 H   0  0  0  0  0  0  0  0  0  0  0  0
   20.9360    7.8367    0.0000 H   0  0  0  0  0  0  0  0  0  0  0  0
   21.6505    9.7237    0.0000 H   0  0  0  0  0  0  0  0  0  0  0  0
   20.9100    9.7237    0.0000 H   0  0  0  0  0  0  0  0  0  0  0  0
   21.6245    7.8367    0.0000 H   0  0  0  0  0  0  0  0  0  0  0  0
   22.3650    7.8367    0.0000 H   0  0  0  0  0  0  0  0  0  0  0  0
   23.0794    9.7237    0.0000 H   0  0  0  0  0  0  0  0  0  0  0  0
   22.3389    9.7237    0.0000 H   0  0  0  0  0  0  0  0  0  0  0  0
   23.0534    7.8367    0.0000 H   0  0  0  0  0  0  0  0  0  0  0  0
   23.7939    7.8367    0.0000 H   0  0  0  0  0  0  0  0  0  0  0  0
   24.5084    9.7237    0.0000 H   0  0  0  0  0  0  0  0  0  0  0  0
   23.7679    9.7237    0.0000 H   0  0  0  0  0  0  0  0  0  0  0  0
   24.4823    7.8367    0.0000 H   0  0  0  0  0  0  0  0  0  0  0  0
   25.2229    7.8367    0.0000 H   0  0  0  0  0  0  0  0  0  0  0  0
   25.9373    9.7237    0.0000 H   0  0  0  0  0  0  0  0  0  0  0  0
   25.1968    9.7237    0.0000 H   0  0  0  0  0  0  0  0  0  0  0  0
   27.3402    7.8367    0.0000 H   0  0  0  0  0  0  0  0  0  0  0  0
   28.0807    7.8367    0.0000 H   0  0  0  0  0  0  0  0  0  0  0  0
   28.7952    9.7237    0.0000 H   0  0  0  0  0  0  0  0  0  0  0  0
   28.0547    9.7237    0.0000 H   0  0  0  0  0  0  0  0  0  0  0  0
   28.7692    7.8367    0.0000 H   0  0  0  0  0  0  0  0  0  0  0  0
   29.5097    7.8367    0.0000 H   0  0  0  0  0  0  0  0  0  0  0  0
   30.2242    9.7237    0.0000 H   0  0  0  0  0  0  0  0  0  0  0  0
   29.4836    9.7237    0.0000 H   0  0  0  0  0  0  0  0  0  0  0  0
   30.1981    7.8367    0.0000 H   0  0  0  0  0  0  0  0  0  0  0  0
   30.9386    7.8367    0.0000 H   0  0  0  0  0  0  0  0  0  0  0  0
   31.6531    9.7237    0.0000 H   0  0  0  0  0  0  0  0  0  0  0  0
   30.9126    9.7237    0.0000 H   0  0  0  0  0  0  0  0  0  0  0  0
   31.6270    7.8367    0.0000 H   0  0  0  0  0  0  0  0  0  0  0  0
   32.3676    7.8367    0.0000 H   0  0  0  0  0  0  0  0  0  0  0  0
   33.1243    8.2719    0.0000 H   0  0  0  0  0  0  0  0  0  0  0  0
   33.4262    9.3989    0.0000 H   0  0  0  0  0  0  0  0  0  0  0  0
   32.2993    9.7009    0.0000 H   0  0  0  0  0  0  0  0  0  0  0  0
  1  2  1  0  0  0  0
  2  3  1  0  0  0  0
  3  4  1  0  0  0  0
  4  5  1  0  0  0  0
  5  6  1  0  0  0  0
  6  7  1  0  0  0  0
  7  8  1  0  0  0  0
  8  9  1  0  0  0  0
  9 10  1  0  0  0  0
 10 11  1  0  0  0  0
 11 12  1  0  0  0  0
 12 13  1  0  0  0  0
 13 14  1  0  0  0  0
 14 15  1  0  0  0  0
 15 16  1  0  0  0  0
 16 17  1  0  0  0  0
 17 18  1  0  0  0  0
 18 19  2  0  0  0  0
 18 20  1  0  0  0  0
 20 21  1  0  0  0  0
 21 22  1  0  0  0  0
 22 23  1  0  0  0  0
 23 24  1  0  0  0  0
 24 25  1  0  0  0  0
 25 26  1  0  0  0  0
 26 27  1  0  0  0  0
 27 28  1  0  0  0  0
  1 29  1  0  0  0  0
  1 30  1  0  0  0  0
  1 31  1  0  0  0  0
  2 32  1  0  0  0  0
  2 33  1  0  0  0  0
  3 34  1  0  0  0  0
  3 35  1  0  0  0  0
  4 36  1  0  0  0  0
  4 37  1  0  0  0  0
  5 38  1  0  0  0  0
  5 39  1  0  0  0  0
  6 40  1  0  0  0  0
  6 41  1  0  0  0  0
  7 42  1  0  0  0  0
  7 43  1  0  0  0  0
  8 44  1  0  0  0  0
  8 45  1  0  0  0  0
  9 46  1  0  0  0  0
  9 47  1  0  0  0  0
 10 48  1  0  0  0  0
 10 49  1  0  0  0  0
 11 50  1  0  0  0  0
 11 51  1  0  0  0  0
 12 52  1  0  0  0  0
 12 53  1  0  0  0  0
 13 54  1  0  0  0  0
 13 55  1  0  0  0  0
 14 56  1  0  0  0  0
 14 57  1  0  0  0  0
 15 58  1  0  0  0  0
 15 59  1  0  0  0  0
 16 60  1  0  0  0  0
 16 61  1  0  0  0  0
 17 62  1  0  0  0  0
 17 63  1  0  0  0  0
 21 64  1  0  0  0  0
 21 65  1  0  0  0  0
 22 66  1  0  0  0  0
 22 67  1  0  0  0  0
 23 68  1  0  0  0  0
 23 69  1  0  0  0  0
 24 70  1  0  0  0  0
 24 71  1  0  0  0  0
 25 72  1  0  0  0  0
 25 73  1  0  0  0  0
 26 74  1  0  0  0  0
 26 75  1  0  0  0  0
 27 76  1  0  0  0  0
 27 77  1  0  0  0  0
 28 78  1  0  0  0  0
 28 79  1  0  0  0  0
 28 80  1  0  0  0  0
M  END
>  <InChIKey>
InChI=1S/C26H52O2/c1-3-5-7-9-11-12-13-14-15-16-17-18-19-20-22-24-26(27)28-25-23-21-10-8-6-4-2/h3-25H2,1-2H3

>  <CASRN>
22047-49-0

> <Outcome>
0

>  <Index>
1763

>  <StandardizerResult>
Clear Stereo (ID: ClearStereo)
Wedge Clean (ID: WedgeClean)
Mesomerize (ID: Mesomerize)
Tautomerize (ID: Tautomerize)
Add Explicit Hydrogens (ID: AddExplicitH)
Neutralize (ID: Neutralize)
Clean 2D (ID: Clean2D)

> <knn Distance>
2.0

> <CpId>
1763

$$$$
1933
  Mrv1532301301811342D          

 28 29  0  0  0  0            999 V2000
    0.7477   -0.4303    0.0000 Cl  0  0  0  0  0  0  0  0  0  0  0  0
    1.4622   -0.0178    0.0000 C   0  0  0  0  0  0  0  0  0  0  0  0
    1.4622    0.8072    0.0000 Cl  0  0  0  0  0  0  0  0  0  0  0  0
    2.1767   -0.4303    0.0000 C   0  0  0  0  0  0  0  0  0  0  0  0
    2.1767   -1.2553    0.0000 C   0  0  0  0  0  0  0  0  0  0  0  0
    2.8911   -1.6678    0.0000 C   0  0  0  0  0  0  0  0  0  0  0  0
    2.8911   -2.4928    0.0000 C   0  0  0  0  0  0  0  0  0  0  0  0
    2.1767   -2.9053    0.0000 C   0  0  0  0  0  0  0  0  0  0  0  0
    2.1767   -3.7303    0.0000 Cl  0  0  0  0  0  0  0  0  0  0  0  0
    1.4622   -2.4928    0.0000 C   0  0  0  0  0  0  0  0  0  0  0  0
    1.4622   -1.6678    0.0000 C   0  0  0  0  0  0  0  0  0  0  0  0
    2.8911   -0.0178    0.0000 C   0  0  0  0  0  0  0  0  0  0  0  0
    2.8911    0.8072    0.0000 C   0  0  0  0  0  0  0  0  0  0  0  0
    3.6056    1.2197    0.0000 C   0  0  0  0  0  0  0  0  0  0  0  0
    4.3201    0.8072    0.0000 C   0  0  0  0  0  0  0  0  0  0  0  0
    4.3201   -0.0178    0.0000 C   0  0  0  0  0  0  0  0  0  0  0  0
    3.6056   -0.4303    0.0000 C   0  0  0  0  0  0  0  0  0  0  0  0
    3.6056   -1.2553    0.0000 Cl  0  0  0  0  0  0  0  0  0  0  0  0
    0.7477    0.3947    0.0000 H   0  0  0  0  0  0  0  0  0  0  0  0
    1.4622   -0.8428    0.0000 H   0  0  0  0  0  0  0  0  0  0  0  0
    2.8911   -0.8428    0.0000 H   0  0  0  0  0  0  0  0  0  0  0  0
    3.6056   -2.9053    0.0000 H   0  0  0  0  0  0  0  0  0  0  0  0
    0.7477   -2.9053    0.0000 H   0  0  0  0  0  0  0  0  0  0  0  0
    0.6372   -1.6678    0.0000 H   0  0  0  0  0  0  0  0  0  0  0  0
    2.1767    1.2197    0.0000 H   0  0  0  0  0  0  0  0  0  0  0  0
    3.6056    2.0447    0.0000 H   0  0  0  0  0  0  0  0  0  0  0  0
    5.0345    1.2197    0.0000 H   0  0  0  0  0  0  0  0  0  0  0  0
    5.0345   -0.4303    0.0000 H   0  0  0  0  0  0  0  0  0  0  0  0
  1  2  1  0  0  0  0
  2  3  1  0  0  0  0
  2  4  1  0  0  0  0
  4  5  1  0  0  0  0
  5  6  4  0  0  0  0
  6  7  4  0  0  0  0
  7  8  4  0  0  0  0
  8  9  1  0  0  0  0
  8 10  4  0  0  0  0
 10 11  4  0  0  0  0
  5 11  4  0  0  0  0
  4 12  1  0  0  0  0
 12 13  4  0  0  0  0
 13 14  4  0  0  0  0
 14 15  4  0  0  0  0
 15 16  4  0  0  0  0
 16 17  4  0  0  0  0
 12 17  4  0  0  0  0
 17 18  1  0  0  0  0
  2 19  1  0  0  0  0
  4 20  1  0  0  0  0
  6 21  1  0  0  0  0
  7 22  1  0  0  0  0
 10 23  1  0  0  0  0
 11 24  1  0  0  0  0
 13 25  1  0  0  0  0
 14 26  1  0  0  0  0
 15 27  1  0  0  0  0
 16 28  1  0  0  0  0
M  END
>  <InChIKey>
InChI=1S/C14H10Cl4/c15-10-7-5-9(6-8-10)13(14(17)18)11-3-1-2-4-12(11)16/h1-8,13-14H

>  <CASRN>
53-19-0

> <Outcome>
0

>  <Index>
1933

>  <StandardizerResult>
Dearomatize (ID: Dearomatize)
Clear Stereo (ID: ClearStereo)
Wedge Clean (ID: WedgeClean)
Mesomerize (ID: Mesomerize)
Tautomerize (ID: Tautomerize)
Aromatize (ID: Aromatize)
Add Explicit Hydrogens (ID: AddExplicitH)
Neutralize (ID: Neutralize)
Clean 2D (ID: Clean2D)

> <knn Distance>
2.0

> <CpId>
1933

$$$$
2172
  Mrv1532301301811342D          

 98 97  0  0  0  0            999 V2000
   17.8480   11.1298    0.0000 C   0  0  0  0  0  0  0  0  0  0  0  0
   18.5625   10.7173    0.0000 C   0  0  0  0  0  0  0  0  0  0  0  0
   19.2770   11.1298    0.0000 C   0  0  0  0  0  0  0  0  0  0  0  0
   19.9914   10.7173    0.0000 C   0  0  0  0  0  0  0  0  0  0  0  0
   20.7059   11.1298    0.0000 C   0  0  0  0  0  0  0  0  0  0  0  0
   21.4204   10.7173    0.0000 C   0  0  0  0  0  0  0  0  0  0  0  0
   22.1349   11.1298    0.0000 C   0  0  0  0  0  0  0  0  0  0  0  0
   22.8493   10.7173    0.0000 C   0  0  0  0  0  0  0  0  0  0  0  0
   23.5638   11.1298    0.0000 C   0  0  0  0  0  0  0  0  0  0  0  0
   24.2783   10.7173    0.0000 C   0  0  0  0  0  0  0  0  0  0  0  0
   24.9927   11.1298    0.0000 C   0  0  0  0  0  0  0  0  0  0  0  0
   25.7072   10.7173    0.0000 C   0  0  0  0  0  0  0  0  0  0  0  0
   26.4217   11.1298    0.0000 C   0  0  0  0  0  0  0  0  0  0  0  0
   27.1362   10.7173    0.0000 C   0  0  0  0  0  0  0  0  0  0  0  0
   27.8506   11.1298    0.0000 C   0  0  0  0  0  0  0  0  0  0  0  0
   28.5651   10.7173    0.0000 C   0  0  0  0  0  0  0  0  0  0  0  0
   29.2796   11.1298    0.0000 C   0  0  0  0  0  0  0  0  0  0  0  0
   29.9940   10.7173    0.0000 C   0  0  0  0  0  0  0  0  0  0  0  0
   29.9940    9.8923    0.0000 O   0  0  0  0  0  0  0  0  0  0  0  0
   30.7085   11.1298    0.0000 O   0  0  0  0  0  0  0  0  0  0  0  0
   31.4230   10.7173    0.0000 C   0  0  0  0  0  0  0  0  0  0  0  0
   32.1374   11.1298    0.0000 C   0  0  0  0  0  0  0  0  0  0  0  0
   32.8519   10.7173    0.0000 C   0  0  0  0  0  0  0  0  0  0  0  0
   33.5664   11.1298    0.0000 C   0  0  0  0  0  0  0  0  0  0  0  0
   34.2809   10.7173    0.0000 C   0  0  0  0  0  0  0  0  0  0  0  0
   34.9953   11.1298    0.0000 C   0  0  0  0  0  0  0  0  0  0  0  0
   35.7098   10.7173    0.0000 C   0  0  0  0  0  0  0  0  0  0  0  0
   36.4243   11.1298    0.0000 C   0  0  0  0  0  0  0  0  0  0  0  0
   37.1387   10.7173    0.0000 C   0  0  0  0  0  0  0  0  0  0  0  0
   37.8532   11.1298    0.0000 C   0  0  0  0  0  0  0  0  0  0  0  0
   38.5677   10.7173    0.0000 C   0  0  0  0  0  0  0  0  0  0  0  0
   39.2822   11.1298    0.0000 C   0  0  0  0  0  0  0  0  0  0  0  0
   39.9966   10.7173    0.0000 C   0  0  0  0  0  0  0  0  0  0  0  0
   40.7111   11.1298    0.0000 C   0  0  0  0  0  0  0  0  0  0  0  0
   18.2605   11.8443    0.0000 H   0  0  0  0  0  0  0  0  0  0  0  0
   17.1336   11.5423    0.0000 H   0  0  0  0  0  0  0  0  0  0  0  0
   17.4355   10.4153    0.0000 H   0  0  0  0  0  0  0  0  0  0  0  0
   18.1922    9.9800    0.0000 H   0  0  0  0  0  0  0  0  0  0  0  0
   18.9328    9.9800    0.0000 H   0  0  0  0  0  0  0  0  0  0  0  0
   19.6472   11.8670    0.0000 H   0  0  0  0  0  0  0  0  0  0  0  0
   18.9067   11.8670    0.0000 H   0  0  0  0  0  0  0  0  0  0  0  0
   19.6212    9.9800    0.0000 H   0  0  0  0  0  0  0  0  0  0  0  0
   20.3617    9.9800    0.0000 H   0  0  0  0  0  0  0  0  0  0  0  0
   21.0762   11.8670    0.0000 H   0  0  0  0  0  0  0  0  0  0  0  0
   20.3357   11.8670    0.0000 H   0  0  0  0  0  0  0  0  0  0  0  0
   21.0501    9.9800    0.0000 H   0  0  0  0  0  0  0  0  0  0  0  0
   21.7906    9.9800    0.0000 H   0  0  0  0  0  0  0  0  0  0  0  0
   22.5051   11.8670    0.0000 H   0  0  0  0  0  0  0  0  0  0  0  0
   21.7646   11.8670    0.0000 H   0  0  0  0  0  0  0  0  0  0  0  0
   22.4791    9.9800    0.0000 H   0  0  0  0  0  0  0  0  0  0  0  0
   23.2196    9.9800    0.0000 H   0  0  0  0  0  0  0  0  0  0  0  0
   23.9341   11.8670    0.0000 H   0  0  0  0  0  0  0  0  0  0  0  0
   23.1935   11.8670    0.0000 H   0  0  0  0  0  0  0  0  0  0  0  0
   23.9080    9.9800    0.0000 H   0  0  0  0  0  0  0  0  0  0  0  0
   24.6485    9.9800    0.0000 H   0  0  0  0  0  0  0  0  0  0  0  0
   25.3630   11.8670    0.0000 H   0  0  0  0  0  0  0  0  0  0  0  0
   24.6225   11.8670    0.0000 H   0  0  0  0  0  0  0  0  0  0  0  0
   25.3370    9.9800    0.0000 H   0  0  0  0  0  0  0  0  0  0  0  0
   26.0775    9.9800    0.0000 H   0  0  0  0  0  0  0  0  0  0  0  0
   26.7919   11.8670    0.0000 H   0  0  0  0  0  0  0  0  0  0  0  0
   26.0514   11.8670    0.0000 H   0  0  0  0  0  0  0  0  0  0  0  0
   26.7659    9.9800    0.0000 H   0  0  0  0  0  0  0  0  0  0  0  0
   27.5064    9.9800    0.0000 H   0  0  0  0  0  0  0  0  0  0  0  0
   28.2209   11.8670    0.0000 H   0  0  0  0  0  0  0  0  0  0  0  0
   27.4804   11.8670    0.0000 H   0  0  0  0  0  0  0  0  0  0  0  0
   28.1948    9.9800    0.0000 H   0  0  0  0  0  0  0  0  0  0  0  0
   28.9354    9.9800    0.0000 H   0  0  0  0  0  0  0  0  0  0  0  0
   29.6498   11.8670    0.0000 H   0  0  0  0  0  0  0  0  0  0  0  0
   28.9093   11.8670    0.0000 H   0  0  0  0  0  0  0  0  0  0  0  0
   31.0527    9.9800    0.0000 H   0  0  0  0  0  0  0  0  0  0  0  0
   31.7932    9.9800    0.0000 H   0  0  0  0  0  0  0  0  0  0  0  0
   32.5077   11.8670    0.0000 H   0  0  0  0  0  0  0  0  0  0  0  0
   31.7672   11.8670    0.0000 H   0  0  0  0  0  0  0  0  0  0  0  0
   32.4817    9.9800    0.0000 H   0  0  0  0  0  0  0  0  0  0  0  0
   33.2222    9.9800    0.0000 H   0  0  0  0  0  0  0  0  0  0  0  0
   33.9366   11.8670    0.0000 H   0  0  0  0  0  0  0  0  0  0  0  0
   33.1961   11.8670    0.0000 H   0  0  0  0  0  0  0  0  0  0  0  0
   33.9106    9.9800    0.0000 H   0  0  0  0  0  0  0  0  0  0  0  0
   34.6511    9.9800    0.0000 H   0  0  0  0  0  0  0  0  0  0  0  0
   35.3656   11.8670    0.0000 H   0  0  0  0  0  0  0  0  0  0  0  0
   34.6251   11.8670    0.0000 H   0  0  0  0  0  0  0  0  0  0  0  0
   35.3395    9.9800    0.0000 H   0  0  0  0  0  0  0  0  0  0  0  0
   36.0801    9.9800    0.0000 H   0  0  0  0  0  0  0  0  0  0  0  0
   36.7945   11.8670    0.0000 H   0  0  0  0  0  0  0  0  0  0  0  0
   36.0540   11.8670    0.0000 H   0  0  0  0  0  0  0  0  0  0  0  0
   36.7685    9.9800    0.0000 H   0  0  0  0  0  0  0  0  0  0  0  0
   37.5090    9.9800    0.0000 H   0  0  0  0  0  0  0  0  0  0  0  0
   38.2235   11.8670    0.0000 H   0  0  0  0  0  0  0  0  0  0  0  0
   37.4830   11.8670    0.0000 H   0  0  0  0  0  0  0  0  0  0  0  0
   38.1974    9.9800    0.0000 H   0  0  0  0  0  0  0  0  0  0  0  0
   38.9379    9.9800    0.0000 H   0  0  0  0  0  0  0  0  0  0  0  0
   39.6524   11.8670    0.0000 H   0  0  0  0  0  0  0  0  0  0  0  0
   38.9119   11.8670    0.0000 H   0  0  0  0  0  0  0  0  0  0  0  0
   39.6264    9.9800    0.0000 H   0  0  0  0  0  0  0  0  0  0  0  0
   40.3669    9.9800    0.0000 H   0  0  0  0  0  0  0  0  0  0  0  0
   41.1236   10.4153    0.0000 H   0  0  0  0  0  0  0  0  0  0  0  0
   41.4256   11.5423    0.0000 H   0  0  0  0  0  0  0  0  0  0  0  0
   40.2986   11.8443    0.0000 H   0  0  0  0  0  0  0  0  0  0  0  0
  1  2  1  0  0  0  0
  2  3  1  0  0  0  0
  3  4  1  0  0  0  0
  4  5  1  0  0  0  0
  5  6  1  0  0  0  0
  6  7  1  0  0  0  0
  7  8  1  0  0  0  0
  8  9  1  0  0  0  0
  9 10  1  0  0  0  0
 10 11  1  0  0  0  0
 11 12  1  0  0  0  0
 12 13  1  0  0  0  0
 13 14  1  0  0  0  0
 14 15  1  0  0  0  0
 15 16  1  0  0  0  0
 16 17  1  0  0  0  0
 17 18  1  0  0  0  0
 18 19  2  0  0  0  0
 18 20  1  0  0  0  0
 20 21  1  0  0  0  0
 21 22  1  0  0  0  0
 22 23  1  0  0  0  0
 23 24  1  0  0  0  0
 24 25  1  0  0  0  0
 25 26  1  0  0  0  0
 26 27  1  0  0  0  0
 27 28  1  0  0  0  0
 28 29  1  0  0  0  0
 29 30  1  0  0  0  0
 30 31  1  0  0  0  0
 31 32  1  0  0  0  0
 32 33  1  0  0  0  0
 33 34  1  0  0  0  0
  1 35  1  0  0  0  0
  1 36  1  0  0  0  0
  1 37  1  0  0  0  0
  2 38  1  0  0  0  0
  2 39  1  0  0  0  0
  3 40  1  0  0  0  0
  3 41  1  0  0  0  0
  4 42  1  0  0  0  0
  4 43  1  0  0  0  0
  5 44  1  0  0  0  0
  5 45  1  0  0  0  0
  6 46  1  0  0  0  0
  6 47  1  0  0  0  0
  7 48  1  0  0  0  0
  7 49  1  0  0  0  0
  8 50  1  0  0  0  0
  8 51  1  0  0  0  0
  9 52  1  0  0  0  0
  9 53  1  0  0  0  0
 10 54  1  0  0  0  0
 10 55  1  0  0  0  0
 11 56  1  0  0  0  0
 11 57  1  0  0  0  0
 12 58  1  0  0  0  0
 12 59  1  0  0  0  0
 13 60  1  0  0  0  0
 13 61  1  0  0  0  0
 14 62  1  0  0  0  0
 14 63  1  0  0  0  0
 15 64  1  0  0  0  0
 15 65  1  0  0  0  0
 16 66  1  0  0  0  0
 16 67  1  0  0  0  0
 17 68  1  0  0  0  0
 17 69  1  0  0  0  0
 21 70  1  0  0  0  0
 21 71  1  0  0  0  0
 22 72  1  0  0  0  0
 22 73  1  0  0  0  0
 23 74  1  0  0  0  0
 23 75  1  0  0  0  0
 24 76  1  0  0  0  0
 24 77  1  0  0  0  0
 25 78  1  0  0  0  0
 25 79  1  0  0  0  0
 26 80  1  0  0  0  0
 26 81  1  0  0  0  0
 27 82  1  0  0  0  0
 27 83  1  0  0  0  0
 28 84  1  0  0  0  0
 28 85  1  0  0  0  0
 29 86  1  0  0  0  0
 29 87  1  0  0  0  0
 30 88  1  0  0  0  0
 30 89  1  0  0  0  0
 31 90  1  0  0  0  0
 31 91  1  0  0  0  0
 32 92  1  0  0  0  0
 32 93  1  0  0  0  0
 33 94  1  0  0  0  0
 33 95  1  0  0  0  0
 34 96  1  0  0  0  0
 34 97  1  0  0  0  0
 34 98  1  0  0  0  0
M  END
>  <InChIKey>
InChI=1S/C32H64O2/c1-3-5-7-9-11-13-15-17-18-19-20-22-24-26-28-30-32(33)34-31-29-27-25-23-21-16-14-12-10-8-6-4-2/h3-31H2,1-2H3

>  <CASRN>
17661-50-6

> <Outcome>
0

>  <Index>
2172

>  <StandardizerResult>
Clear Stereo (ID: ClearStereo)
Wedge Clean (ID: WedgeClean)
Mesomerize (ID: Mesomerize)
Tautomerize (ID: Tautomerize)
Add Explicit Hydrogens (ID: AddExplicitH)
Neutralize (ID: Neutralize)
Clean 2D (ID: Clean2D)

> <knn Distance>
2.0

> <CpId>
2172

$$$$
2214
  Mrv1532301301811342D          

 56 55  0  0  0  0            999 V2000
   -1.1815    1.0198    0.0000 C   0  0  0  0  0  0  0  0  0  0  0  0
   -0.4670    1.4323    0.0000 N   0  3  0  0  0  0  0  0  0  0  0  0
   -0.0545    0.7179    0.0000 C   0  0  0  0  0  0  0  0  0  0  0  0
   -0.8795    2.1468    0.0000 C   0  0  0  0  0  0  0  0  0  0  0  0
    0.2475    1.8448    0.0000 C   0  0  0  0  0  0  0  0  0  0  0  0
    0.9619    1.4323    0.0000 C   0  0  0  0  0  0  0  0  0  0  0  0
    1.6764    1.8448    0.0000 C   0  0  0  0  0  0  0  0  0  0  0  0
    2.3909    1.4323    0.0000 C   0  0  0  0  0  0  0  0  0  0  0  0
    3.1053    1.8448    0.0000 C   0  0  0  0  0  0  0  0  0  0  0  0
    3.8198    1.4323    0.0000 C   0  0  0  0  0  0  0  0  0  0  0  0
    4.5343    1.8448    0.0000 C   0  0  0  0  0  0  0  0  0  0  0  0
    5.2488    1.4323    0.0000 C   0  0  0  0  0  0  0  0  0  0  0  0
    5.9632    1.8448    0.0000 C   0  0  0  0  0  0  0  0  0  0  0  0
    6.6777    1.4323    0.0000 C   0  0  0  0  0  0  0  0  0  0  0  0
    7.3922    1.8448    0.0000 N   0  3  0  0  0  0  0  0  0  0  0  0
    8.1066    2.2573    0.0000 C   0  0  0  0  0  0  0  0  0  0  0  0
    7.8047    1.1304    0.0000 C   0  0  0  0  0  0  0  0  0  0  0  0
    6.9797    2.5593    0.0000 C   0  0  0  0  0  0  0  0  0  0  0  0
   -1.5940    1.7343    0.0000 H   0  0  0  0  0  0  0  0  0  0  0  0
   -1.8960    0.6073    0.0000 H   0  0  0  0  0  0  0  0  0  0  0  0
   -0.7690    0.3054    0.0000 H   0  0  0  0  0  0  0  0  0  0  0  0
    0.0532   -0.1001    0.0000 H   0  0  0  0  0  0  0  0  0  0  0  0
    0.7424    0.5043    0.0000 H   0  0  0  0  0  0  0  0  0  0  0  0
    0.4477    1.3724    0.0000 H   0  0  0  0  0  0  0  0  0  0  0  0
   -0.0616    2.2545    0.0000 H   0  0  0  0  0  0  0  0  0  0  0  0
   -0.6660    2.9437    0.0000 H   0  0  0  0  0  0  0  0  0  0  0  0
   -1.5340    2.6490    0.0000 H   0  0  0  0  0  0  0  0  0  0  0  0
    1.0105    2.1585    0.0000 H   0  0  0  0  0  0  0  0  0  0  0  0
    0.4653    2.6405    0.0000 H   0  0  0  0  0  0  0  0  0  0  0  0
    1.3884    0.7261    0.0000 H   0  0  0  0  0  0  0  0  0  0  0  0
    1.7609    1.2267    0.0000 H   0  0  0  0  0  0  0  0  0  0  0  0
    2.2909    2.3954    0.0000 H   0  0  0  0  0  0  0  0  0  0  0  0
    1.7781    2.6635    0.0000 H   0  0  0  0  0  0  0  0  0  0  0  0
    2.4300    0.6083    0.0000 H   0  0  0  0  0  0  0  0  0  0  0  0
    2.9779    0.8527    0.0000 H   0  0  0  0  0  0  0  0  0  0  0  0
    3.4756    2.5821    0.0000 H   0  0  0  0  0  0  0  0  0  0  0  0
    2.7351    2.5821    0.0000 H   0  0  0  0  0  0  0  0  0  0  0  0
    3.4496    0.6951    0.0000 H   0  0  0  0  0  0  0  0  0  0  0  0
    4.1901    0.6951    0.0000 H   0  0  0  0  0  0  0  0  0  0  0  0
    4.9045    2.5821    0.0000 H   0  0  0  0  0  0  0  0  0  0  0  0
    4.1640    2.5821    0.0000 H   0  0  0  0  0  0  0  0  0  0  0  0
    4.8785    0.6951    0.0000 H   0  0  0  0  0  0  0  0  0  0  0  0
    5.6190    0.6951    0.0000 H   0  0  0  0  0  0  0  0  0  0  0  0
    6.3335    2.5821    0.0000 H   0  0  0  0  0  0  0  0  0  0  0  0
    5.5930    2.5821    0.0000 H   0  0  0  0  0  0  0  0  0  0  0  0
    6.3074    0.6951    0.0000 H   0  0  0  0  0  0  0  0  0  0  0  0
    7.0480    0.6951    0.0000 H   0  0  0  0  0  0  0  0  0  0  0  0
    8.5191    1.5429    0.0000 H   0  0  0  0  0  0  0  0  0  0  0  0
    8.8211    2.6698    0.0000 H   0  0  0  0  0  0  0  0  0  0  0  0
    7.6941    2.9718    0.0000 H   0  0  0  0  0  0  0  0  0  0  0  0
    7.5902    0.3337    0.0000 H   0  0  0  0  0  0  0  0  0  0  0  0
    8.2166    0.4156    0.0000 H   0  0  0  0  0  0  0  0  0  0  0  0
    8.6015    0.9165    0.0000 H   0  0  0  0  0  0  0  0  0  0  0  0
    7.1325    3.3700    0.0000 H   0  0  0  0  0  0  0  0  0  0  0  0
    6.4644    3.2036    0.0000 H   0  0  0  0  0  0  0  0  0  0  0  0
    6.5546    1.8522    0.0000 H   0  0  0  0  0  0  0  0  0  0  0  0
  1  2  1  0  0  0  0
  2  3  1  0  0  0  0
  2  4  1  0  0  0  0
  2  5  1  0  0  0  0
  5  6  1  0  0  0  0
  6  7  1  0  0  0  0
  7  8  1  0  0  0  0
  8  9  1  0  0  0  0
  9 10  1  0  0  0  0
 10 11  1  0  0  0  0
 11 12  1  0  0  0  0
 12 13  1  0  0  0  0
 13 14  1  0  0  0  0
 14 15  1  0  0  0  0
 15 16  1  0  0  0  0
 15 17  1  0  0  0  0
 15 18  1  0  0  0  0
  1 19  1  0  0  0  0
  1 20  1  0  0  0  0
  1 21  1  0  0  0  0
  3 22  1  0  0  0  0
  3 23  1  0  0  0  0
  3 24  1  0  0  0  0
  4 25  1  0  0  0  0
  4 26  1  0  0  0  0
  4 27  1  0  0  0  0
  5 28  1  0  0  0  0
  5 29  1  0  0  0  0
  6 30  1  0  0  0  0
  6 31  1  0  0  0  0
  7 32  1  0  0  0  0
  7 33  1  0  0  0  0
  8 34  1  0  0  0  0
  8 35  1  0  0  0  0
  9 36  1  0  0  0  0
  9 37  1  0  0  0  0
 10 38  1  0  0  0  0
 10 39  1  0  0  0  0
 11 40  1  0  0  0  0
 11 41  1  0  0  0  0
 12 42  1  0  0  0  0
 12 43  1  0  0  0  0
 13 44  1  0  0  0  0
 13 45  1  0  0  0  0
 14 46  1  0  0  0  0
 14 47  1  0  0  0  0
 16 48  1  0  0  0  0
 16 49  1  0  0  0  0
 16 50  1  0  0  0  0
 17 51  1  0  0  0  0
 17 52  1  0  0  0  0
 17 53  1  0  0  0  0
 18 54  1  0  0  0  0
 18 55  1  0  0  0  0
 18 56  1  0  0  0  0
M  CHG  2   2   1  15   1
M  END
>  <InChIKey>
InChI=1S/C16H38N2/c1-17(2,3)15-13-11-9-7-8-10-12-14-16-18(4,5)6/h7-16H2,1-6H3/q+2

>  <CASRN>
156-74-1

> <Outcome>
0

>  <Index>
2214

>  <StandardizerResult>
Clear Stereo (ID: ClearStereo)
Wedge Clean (ID: WedgeClean)
Mesomerize (ID: Mesomerize)
Tautomerize (ID: Tautomerize)
Add Explicit Hydrogens (ID: AddExplicitH)
Clean 2D (ID: Clean2D)

> <knn Distance>
2.0

> <CpId>
2214

$$$$
2267
  Mrv1532301301811342D          

  5  4  0  0  0  0            999 V2000
    0.8250    0.0000    0.0000 C   0  0  0  0  0  0  0  0  0  0  0  0
   -0.0000    0.0000    0.0000 Cl  0  0  0  0  0  0  0  0  0  0  0  0
    0.8250   -0.8250    0.0000 H   0  0  0  0  0  0  0  0  0  0  0  0
    1.6500   -0.0000    0.0000 H   0  0  0  0  0  0  0  0  0  0  0  0
    0.8250    0.8250    0.0000 H   0  0  0  0  0  0  0  0  0  0  0  0
  1  2  1  0  0  0  0
  1  3  1  0  0  0  0
  1  4  1  0  0  0  0
  1  5  1  0  0  0  0
M  END
>  <InChIKey>
InChI=1S/CH3Cl/c1-2/h1H3

>  <CASRN>
74-87-3

> <Outcome>
0

>  <Index>
2267

>  <StandardizerResult>
Mesomerize (ID: Mesomerize)
Tautomerize (ID: Tautomerize)
Add Explicit Hydrogens (ID: AddExplicitH)
Neutralize (ID: Neutralize)
Clean 2D (ID: Clean2D)

> <knn Distance>
2.0

> <CpId>
2267

$$$$
2411
  Mrv1532301301811342D          

 71 70  0  0  0  0            999 V2000
   10.9461    7.1447    0.0000 C   0  0  0  0  0  0  0  0  0  0  0  0
   11.6605    7.5572    0.0000 C   0  0  0  0  0  0  0  0  0  0  0  0
   12.3750    7.1447    0.0000 C   0  0  0  0  0  0  0  0  0  0  0  0
   13.0895    7.5572    0.0000 C   0  0  0  0  0  0  0  0  0  0  0  0
   13.8039    7.1447    0.0000 C   0  0  0  0  0  0  0  0  0  0  0  0
   14.5184    7.5572    0.0000 C   0  0  0  0  0  0  0  0  0  0  0  0
   15.2329    7.1447    0.0000 C   0  0  0  0  0  0  0  0  0  0  0  0
   15.9474    7.5572    0.0000 C   0  0  0  0  0  0  0  0  0  0  0  0
   16.6618    7.1447    0.0000 C   0  0  0  0  0  0  0  0  0  0  0  0
   17.3763    7.5572    0.0000 C   0  0  0  0  0  0  0  0  0  0  0  0
   18.0908    7.1447    0.0000 C   0  0  0  0  0  0  0  0  0  0  0  0
   18.8052    7.5572    0.0000 C   0  0  0  0  0  0  0  0  0  0  0  0
   19.5197    7.1447    0.0000 C   0  0  0  0  0  0  0  0  0  0  0  0
   20.2342    7.5572    0.0000 C   0  0  0  0  0  0  0  0  0  0  0  0
   20.9487    7.1447    0.0000 C   0  0  0  0  0  0  0  0  0  0  0  0
   21.6631    7.5572    0.0000 C   0  0  0  0  0  0  0  0  0  0  0  0
   22.3776    7.1447    0.0000 C   0  0  0  0  0  0  0  0  0  0  0  0
   23.0921    7.5572    0.0000 C   0  0  0  0  0  0  0  0  0  0  0  0
   23.8065    7.1447    0.0000 C   0  0  0  0  0  0  0  0  0  0  0  0
   24.5210    7.5572    0.0000 C   0  0  0  0  0  0  0  0  0  0  0  0
   25.2355    7.1447    0.0000 O   0  0  0  0  0  0  0  0  0  0  0  0
   25.9499    7.5572    0.0000 C   0  0  0  0  0  0  0  0  0  0  0  0
   25.9499    8.3822    0.0000 O   0  0  0  0  0  0  0  0  0  0  0  0
   26.6644    7.1447    0.0000 C   0  0  0  0  0  0  0  0  0  0  0  0
   27.3789    7.5572    0.0000 C   0  0  0  0  0  0  0  0  0  0  0  0
   10.5336    7.8592    0.0000 H   0  0  0  0  0  0  0  0  0  0  0  0
   10.2316    6.7322    0.0000 H   0  0  0  0  0  0  0  0  0  0  0  0
   11.3586    6.4302    0.0000 H   0  0  0  0  0  0  0  0  0  0  0  0
   12.0308    8.2944    0.0000 H   0  0  0  0  0  0  0  0  0  0  0  0
   11.2903    8.2944    0.0000 H   0  0  0  0  0  0  0  0  0  0  0  0
   12.0047    6.4075    0.0000 H   0  0  0  0  0  0  0  0  0  0  0  0
   12.7453    6.4075    0.0000 H   0  0  0  0  0  0  0  0  0  0  0  0
   13.4597    8.2944    0.0000 H   0  0  0  0  0  0  0  0  0  0  0  0
   12.7192    8.2944    0.0000 H   0  0  0  0  0  0  0  0  0  0  0  0
   13.4337    6.4075    0.0000 H   0  0  0  0  0  0  0  0  0  0  0  0
   14.1742    6.4075    0.0000 H   0  0  0  0  0  0  0  0  0  0  0  0
   14.8887    8.2944    0.0000 H   0  0  0  0  0  0  0  0  0  0  0  0
   14.1482    8.2944    0.0000 H   0  0  0  0  0  0  0  0  0  0  0  0
   14.8626    6.4075    0.0000 H   0  0  0  0  0  0  0  0  0  0  0  0
   15.6031    6.4075    0.0000 H   0  0  0  0  0  0  0  0  0  0  0  0
   16.3176    8.2944    0.0000 H   0  0  0  0  0  0  0  0  0  0  0  0
   15.5771    8.2944    0.0000 H   0  0  0  0  0  0  0  0  0  0  0  0
   16.2916    6.4075    0.0000 H   0  0  0  0  0  0  0  0  0  0  0  0
   17.0321    6.4075    0.0000 H   0  0  0  0  0  0  0  0  0  0  0  0
   17.7466    8.2944    0.0000 H   0  0  0  0  0  0  0  0  0  0  0  0
   17.0060    8.2944    0.0000 H   0  0  0  0  0  0  0  0  0  0  0  0
   17.7205    6.4075    0.0000 H   0  0  0  0  0  0  0  0  0  0  0  0
   18.4610    6.4075    0.0000 H   0  0  0  0  0  0  0  0  0  0  0  0
   19.1755    8.2944    0.0000 H   0  0  0  0  0  0  0  0  0  0  0  0
   18.4350    8.2944    0.0000 H   0  0  0  0  0  0  0  0  0  0  0  0
   19.1495    6.4075    0.0000 H   0  0  0  0  0  0  0  0  0  0  0  0
   19.8900    6.4075    0.0000 H   0  0  0  0  0  0  0  0  0  0  0  0
   20.6044    8.2944    0.0000 H   0  0  0  0  0  0  0  0  0  0  0  0
   19.8639    8.2944    0.0000 H   0  0  0  0  0  0  0  0  0  0  0  0
   20.5784    6.4075    0.0000 H   0  0  0  0  0  0  0  0  0  0  0  0
   21.3189    6.4075    0.0000 H   0  0  0  0  0  0  0  0  0  0  0  0
   22.0334    8.2944    0.0000 H   0  0  0  0  0  0  0  0  0  0  0  0
   21.2929    8.2944    0.0000 H   0  0  0  0  0  0  0  0  0  0  0  0
   22.0073    6.4075    0.0000 H   0  0  0  0  0  0  0  0  0  0  0  0
   22.7479    6.4075    0.0000 H   0  0  0  0  0  0  0  0  0  0  0  0
   23.4623    8.2944    0.0000 H   0  0  0  0  0  0  0  0  0  0  0  0
   22.7218    8.2944    0.0000 H   0  0  0  0  0  0  0  0  0  0  0  0
   23.4363    6.4075    0.0000 H   0  0  0  0  0  0  0  0  0  0  0  0
   24.1768    6.4075    0.0000 H   0  0  0  0  0  0  0  0  0  0  0  0
   24.8913    8.2944    0.0000 H   0  0  0  0  0  0  0  0  0  0  0  0
   24.1507    8.2944    0.0000 H   0  0  0  0  0  0  0  0  0  0  0  0
   26.2942    6.4075    0.0000 H   0  0  0  0  0  0  0  0  0  0  0  0
   27.0347    6.4075    0.0000 H   0  0  0  0  0  0  0  0  0  0  0  0
   27.7914    6.8427    0.0000 H   0  0  0  0  0  0  0  0  0  0  0  0
   28.0934    7.9697    0.0000 H   0  0  0  0  0  0  0  0  0  0  0  0
   26.9664    8.2717    0.0000 H   0  0  0  0  0  0  0  0  0  0  0  0
  1  2  1  0  0  0  0
  2  3  1  0  0  0  0
  3  4  1  0  0  0  0
  4  5  1  0  0  0  0
  5  6  1  0  0  0  0
  6  7  1  0  0  0  0
  7  8  1  0  0  0  0
  8  9  1  0  0  0  0
  9 10  1  0  0  0  0
 10 11  1  0  0  0  0
 11 12  1  0  0  0  0
 12 13  1  0  0  0  0
 13 14  1  0  0  0  0
 14 15  1  0  0  0  0
 15 16  1  0  0  0  0
 16 17  1  0  0  0  0
 17 18  1  0  0  0  0
 18 19  1  0  0  0  0
 19 20  1  0  0  0  0
 20 21  1  0  0  0  0
 21 22  1  0  0  0  0
 22 23  2  0  0  0  0
 22 24  1  0  0  0  0
 24 25  1  0  0  0  0
  1 26  1  0  0  0  0
  1 27  1  0  0  0  0
  1 28  1  0  0  0  0
  2 29  1  0  0  0  0
  2 30  1  0  0  0  0
  3 31  1  0  0  0  0
  3 32  1  0  0  0  0
  4 33  1  0  0  0  0
  4 34  1  0  0  0  0
  5 35  1  0  0  0  0
  5 36  1  0  0  0  0
  6 37  1  0  0  0  0
  6 38  1  0  0  0  0
  7 39  1  0  0  0  0
  7 40  1  0  0  0  0
  8 41  1  0  0  0  0
  8 42  1  0  0  0  0
  9 43  1  0  0  0  0
  9 44  1  0  0  0  0
 10 45  1  0  0  0  0
 10 46  1  0  0  0  0
 11 47  1  0  0  0  0
 11 48  1  0  0  0  0
 12 49  1  0  0  0  0
 12 50  1  0  0  0  0
 13 51  1  0  0  0  0
 13 52  1  0  0  0  0
 14 53  1  0  0  0  0
 14 54  1  0  0  0  0
 15 55  1  0  0  0  0
 15 56  1  0  0  0  0
 16 57  1  0  0  0  0
 16 58  1  0  0  0  0
 17 59  1  0  0  0  0
 17 60  1  0  0  0  0
 18 61  1  0  0  0  0
 18 62  1  0  0  0  0
 19 63  1  0  0  0  0
 19 64  1  0  0  0  0
 20 65  1  0  0  0  0
 20 66  1  0  0  0  0
 24 67  1  0  0  0  0
 24 68  1  0  0  0  0
 25 69  1  0  0  0  0
 25 70  1  0  0  0  0
 25 71  1  0  0  0  0
M  END
>  <InChIKey>
InChI=1S/C23H46O2/c1-3-5-6-7-8-9-10-11-12-13-14-15-16-17-18-19-20-21-22-25-23(24)4-2/h3-22H2,1-2H3

>  <CASRN>
65591-14-2

> <Outcome>
0

>  <Index>
2411

>  <StandardizerResult>
Clear Stereo (ID: ClearStereo)
Wedge Clean (ID: WedgeClean)
Mesomerize (ID: Mesomerize)
Tautomerize (ID: Tautomerize)
Add Explicit Hydrogens (ID: AddExplicitH)
Neutralize (ID: Neutralize)
Clean 2D (ID: Clean2D)

> <knn Distance>
2.0

> <CpId>
2411

$$$$
2413
  Mrv1532301301811342D          

 74 73  0  0  0  0            999 V2000
   12.8980    8.2719    0.0000 C   0  0  0  0  0  0  0  0  0  0  0  0
   13.6125    7.8594    0.0000 C   0  0  0  0  0  0  0  0  0  0  0  0
   14.3270    8.2719    0.0000 C   0  0  0  0  0  0  0  0  0  0  0  0
   15.0414    7.8594    0.0000 C   0  0  0  0  0  0  0  0  0  0  0  0
   15.7559    8.2719    0.0000 C   0  0  0  0  0  0  0  0  0  0  0  0
   16.4704    7.8594    0.0000 C   0  0  0  0  0  0  0  0  0  0  0  0
   17.1849    8.2719    0.0000 C   0  0  0  0  0  0  0  0  0  0  0  0
   17.8993    7.8594    0.0000 C   0  0  0  0  0  0  0  0  0  0  0  0
   18.6138    8.2719    0.0000 C   0  0  0  0  0  0  0  0  0  0  0  0
   19.3283    7.8594    0.0000 C   0  0  0  0  0  0  0  0  0  0  0  0
   20.0427    8.2719    0.0000 C   0  0  0  0  0  0  0  0  0  0  0  0
   20.7572    7.8594    0.0000 C   0  0  0  0  0  0  0  0  0  0  0  0
   21.4717    8.2719    0.0000 C   0  0  0  0  0  0  0  0  0  0  0  0
   22.1861    7.8594    0.0000 C   0  0  0  0  0  0  0  0  0  0  0  0
   22.9006    8.2719    0.0000 C   0  0  0  0  0  0  0  0  0  0  0  0
   23.6151    7.8594    0.0000 C   0  0  0  0  0  0  0  0  0  0  0  0
   23.6151    7.0344    0.0000 O   0  0  0  0  0  0  0  0  0  0  0  0
   24.3296    8.2719    0.0000 O   0  0  0  0  0  0  0  0  0  0  0  0
   25.0440    7.8594    0.0000 C   0  0  0  0  0  0  0  0  0  0  0  0
   25.7585    8.2719    0.0000 C   0  0  0  0  0  0  0  0  0  0  0  0
   26.4730    7.8594    0.0000 C   0  0  0  0  0  0  0  0  0  0  0  0
   27.1874    8.2719    0.0000 C   0  0  0  0  0  0  0  0  0  0  0  0
   27.9019    7.8594    0.0000 C   0  0  0  0  0  0  0  0  0  0  0  0
   28.6164    8.2719    0.0000 C   0  0  0  0  0  0  0  0  0  0  0  0
   29.3309    7.8594    0.0000 C   0  0  0  0  0  0  0  0  0  0  0  0
   30.0453    8.2719    0.0000 C   0  0  0  0  0  0  0  0  0  0  0  0
   13.3105    8.9864    0.0000 H   0  0  0  0  0  0  0  0  0  0  0  0
   12.1836    8.6844    0.0000 H   0  0  0  0  0  0  0  0  0  0  0  0
   12.4855    7.5575    0.0000 H   0  0  0  0  0  0  0  0  0  0  0  0
   13.2422    7.1222    0.0000 H   0  0  0  0  0  0  0  0  0  0  0  0
   13.9828    7.1222    0.0000 H   0  0  0  0  0  0  0  0  0  0  0  0
   14.6972    9.0092    0.0000 H   0  0  0  0  0  0  0  0  0  0  0  0
   13.9567    9.0092    0.0000 H   0  0  0  0  0  0  0  0  0  0  0  0
   14.6712    7.1222    0.0000 H   0  0  0  0  0  0  0  0  0  0  0  0
   15.4117    7.1222    0.0000 H   0  0  0  0  0  0  0  0  0  0  0  0
   16.1262    9.0092    0.0000 H   0  0  0  0  0  0  0  0  0  0  0  0
   15.3857    9.0092    0.0000 H   0  0  0  0  0  0  0  0  0  0  0  0
   16.1001    7.1222    0.0000 H   0  0  0  0  0  0  0  0  0  0  0  0
   16.8406    7.1222    0.0000 H   0  0  0  0  0  0  0  0  0  0  0  0
   17.5551    9.0092    0.0000 H   0  0  0  0  0  0  0  0  0  0  0  0
   16.8146    9.0092    0.0000 H   0  0  0  0  0  0  0  0  0  0  0  0
   17.5291    7.1222    0.0000 H   0  0  0  0  0  0  0  0  0  0  0  0
   18.2696    7.1222    0.0000 H   0  0  0  0  0  0  0  0  0  0  0  0
   18.9841    9.0092    0.0000 H   0  0  0  0  0  0  0  0  0  0  0  0
   18.2435    9.0092    0.0000 H   0  0  0  0  0  0  0  0  0  0  0  0
   18.9580    7.1222    0.0000 H   0  0  0  0  0  0  0  0  0  0  0  0
   19.6985    7.1222    0.0000 H   0  0  0  0  0  0  0  0  0  0  0  0
   20.4130    9.0092    0.0000 H   0  0  0  0  0  0  0  0  0  0  0  0
   19.6725    9.0092    0.0000 H   0  0  0  0  0  0  0  0  0  0  0  0
   20.3869    7.1222    0.0000 H   0  0  0  0  0  0  0  0  0  0  0  0
   21.1275    7.1222    0.0000 H   0  0  0  0  0  0  0  0  0  0  0  0
   21.8419    9.0092    0.0000 H   0  0  0  0  0  0  0  0  0  0  0  0
   21.1014    9.0092    0.0000 H   0  0  0  0  0  0  0  0  0  0  0  0
   21.8159    7.1222    0.0000 H   0  0  0  0  0  0  0  0  0  0  0  0
   22.5564    7.1222    0.0000 H   0  0  0  0  0  0  0  0  0  0  0  0
   23.2709    9.0092    0.0000 H   0  0  0  0  0  0  0  0  0  0  0  0
   22.5304    9.0092    0.0000 H   0  0  0  0  0  0  0  0  0  0  0  0
   24.6738    7.1222    0.0000 H   0  0  0  0  0  0  0  0  0  0  0  0
   25.4143    7.1222    0.0000 H   0  0  0  0  0  0  0  0  0  0  0  0
   26.1288    9.0092    0.0000 H   0  0  0  0  0  0  0  0  0  0  0  0
   25.3882    9.0092    0.0000 H   0  0  0  0  0  0  0  0  0  0  0  0
   26.1027    7.1222    0.0000 H   0  0  0  0  0  0  0  0  0  0  0  0
   26.8432    7.1222    0.0000 H   0  0  0  0  0  0  0  0  0  0  0  0
   27.5577    9.0092    0.0000 H   0  0  0  0  0  0  0  0  0  0  0  0
   26.8172    9.0092    0.0000 H   0  0  0  0  0  0  0  0  0  0  0  0
   27.5317    7.1222    0.0000 H   0  0  0  0  0  0  0  0  0  0  0  0
   28.2722    7.1222    0.0000 H   0  0  0  0  0  0  0  0  0  0  0  0
   28.9866    9.0092    0.0000 H   0  0  0  0  0  0  0  0  0  0  0  0
   28.2461    9.0092    0.0000 H   0  0  0  0  0  0  0  0  0  0  0  0
   28.9606    7.1222    0.0000 H   0  0  0  0  0  0  0  0  0  0  0  0
   29.7011    7.1222    0.0000 H   0  0  0  0  0  0  0  0  0  0  0  0
   30.4578    7.5575    0.0000 H   0  0  0  0  0  0  0  0  0  0  0  0
   30.7598    8.6844    0.0000 H   0  0  0  0  0  0  0  0  0  0  0  0
   29.6328    8.9864    0.0000 H   0  0  0  0  0  0  0  0  0  0  0  0
  1  2  1  0  0  0  0
  2  3  1  0  0  0  0
  3  4  1  0  0  0  0
  4  5  1  0  0  0  0
  5  6  1  0  0  0  0
  6  7  1  0  0  0  0
  7  8  1  0  0  0  0
  8  9  1  0  0  0  0
  9 10  1  0  0  0  0
 10 11  1  0  0  0  0
 11 12  1  0  0  0  0
 12 13  1  0  0  0  0
 13 14  1  0  0  0  0
 14 15  1  0  0  0  0
 15 16  1  0  0  0  0
 16 17  2  0  0  0  0
 16 18  1  0  0  0  0
 18 19  1  0  0  0  0
 19 20  1  0  0  0  0
 20 21  1  0  0  0  0
 21 22  1  0  0  0  0
 22 23  1  0  0  0  0
 23 24  1  0  0  0  0
 24 25  1  0  0  0  0
 25 26  1  0  0  0  0
  1 27  1  0  0  0  0
  1 28  1  0  0  0  0
  1 29  1  0  0  0  0
  2 30  1  0  0  0  0
  2 31  1  0  0  0  0
  3 32  1  0  0  0  0
  3 33  1  0  0  0  0
  4 34  1  0  0  0  0
  4 35  1  0  0  0  0
  5 36  1  0  0  0  0
  5 37  1  0  0  0  0
  6 38  1  0  0  0  0
  6 39  1  0  0  0  0
  7 40  1  0  0  0  0
  7 41  1  0  0  0  0
  8 42  1  0  0  0  0
  8 43  1  0  0  0  0
  9 44  1  0  0  0  0
  9 45  1  0  0  0  0
 10 46  1  0  0  0  0
 10 47  1  0  0  0  0
 11 48  1  0  0  0  0
 11 49  1  0  0  0  0
 12 50  1  0  0  0  0
 12 51  1  0  0  0  0
 13 52  1  0  0  0  0
 13 53  1  0  0  0  0
 14 54  1  0  0  0  0
 14 55  1  0  0  0  0
 15 56  1  0  0  0  0
 15 57  1  0  0  0  0
 19 58  1  0  0  0  0
 19 59  1  0  0  0  0
 20 60  1  0  0  0  0
 20 61  1  0  0  0  0
 21 62  1  0  0  0  0
 21 63  1  0  0  0  0
 22 64  1  0  0  0  0
 22 65  1  0  0  0  0
 23 66  1  0  0  0  0
 23 67  1  0  0  0  0
 24 68  1  0  0  0  0
 24 69  1  0  0  0  0
 25 70  1  0  0  0  0
 25 71  1  0  0  0  0
 26 72  1  0  0  0  0
 26 73  1  0  0  0  0
 26 74  1  0  0  0  0
M  END
>  <InChIKey>
InChI=1S/C24H48O2/c1-3-5-7-9-11-12-13-14-15-16-17-18-20-22-24(25)26-23-21-19-10-8-6-4-2/h3-23H2,1-2H3

>  <CASRN>
16958-85-3

> <Outcome>
0

>  <Index>
2413

>  <StandardizerResult>
Clear Stereo (ID: ClearStereo)
Wedge Clean (ID: WedgeClean)
Mesomerize (ID: Mesomerize)
Tautomerize (ID: Tautomerize)
Add Explicit Hydrogens (ID: AddExplicitH)
Neutralize (ID: Neutralize)
Clean 2D (ID: Clean2D)

> <knn Distance>
2.0

> <CpId>
2413

$$$$
2459
  Mrv1532301301811342D          

 14 14  0  0  0  0            999 V2000
    0.7145    2.0625    0.0000 N   0  0  0  0  0  0  0  0  0  0  0  0
    0.7145    1.2375    0.0000 C   0  0  0  0  0  0  0  0  0  0  0  0
    1.4289    0.8250    0.0000 C   0  0  0  0  0  0  0  0  0  0  0  0
    1.4289    0.0000    0.0000 C   0  0  0  0  0  0  0  0  0  0  0  0
    0.7145   -0.4125    0.0000 C   0  0  0  0  0  0  0  0  0  0  0  0
    0.0000    0.0000    0.0000 C   0  0  0  0  0  0  0  0  0  0  0  0
    0.0000    0.8250    0.0000 C   0  0  0  0  0  0  0  0  0  0  0  0
    1.4289    2.4750    0.0000 H   0  0  0  0  0  0  0  0  0  0  0  0
    0.0000    2.4750    0.0000 H   0  0  0  0  0  0  0  0  0  0  0  0
    2.1434    1.2375    0.0000 H   0  0  0  0  0  0  0  0  0  0  0  0
    2.1434   -0.4125    0.0000 H   0  0  0  0  0  0  0  0  0  0  0  0
    0.7145   -1.2375    0.0000 H   0  0  0  0  0  0  0  0  0  0  0  0
   -0.7145   -0.4125    0.0000 H   0  0  0  0  0  0  0  0  0  0  0  0
   -0.7145    1.2375    0.0000 H   0  0  0  0  0  0  0  0  0  0  0  0
  1  2  1  0  0  0  0
  2  3  4  0  0  0  0
  3  4  4  0  0  0  0
  4  5  4  0  0  0  0
  5  6  4  0  0  0  0
  6  7  4  0  0  0  0
  2  7  4  0  0  0  0
  1  8  1  0  0  0  0
  1  9  1  0  0  0  0
  3 10  1  0  0  0  0
  4 11  1  0  0  0  0
  5 12  1  0  0  0  0
  6 13  1  0  0  0  0
  7 14  1  0  0  0  0
M  END
>  <InChIKey>
InChI=1S/C6H7N/c7-6-4-2-1-3-5-6/h1-5H,7H2

>  <CASRN>
62-53-3

> <Outcome>
0

>  <Index>
2459

>  <StandardizerResult>
Dearomatize (ID: Dearomatize)
Clear Stereo (ID: ClearStereo)
Wedge Clean (ID: WedgeClean)
Mesomerize (ID: Mesomerize)
Tautomerize (ID: Tautomerize)
Aromatize (ID: Aromatize)
Add Explicit Hydrogens (ID: AddExplicitH)
Neutralize (ID: Neutralize)
Clean 2D (ID: Clean2D)

> <knn Distance>
2.0

> <CpId>
2459

$$$$
2556
  Mrv1532301301811342D          

  5  4  0  0  0  0            999 V2000
    0.8250   -0.8250    0.0000 F   0  0  0  0  0  0  0  0  0  0  0  0
    0.8250    0.0000    0.0000 C   0  0  0  0  0  0  0  0  0  0  0  0
    0.8250    0.8250    0.0000 F   0  0  0  0  0  0  0  0  0  0  0  0
    1.6500   -0.0000    0.0000 Cl  0  0  0  0  0  0  0  0  0  0  0  0
    0.0000    0.0000    0.0000 Cl  0  0  0  0  0  0  0  0  0  0  0  0
  1  2  1  0  0  0  0
  2  3  1  0  0  0  0
  2  4  1  0  0  0  0
  2  5  1  0  0  0  0
M  END
>  <InChIKey>
InChI=1S/CCl2F2/c2-1(3,4)5

>  <CASRN>
75-71-8

> <Outcome>
0

>  <Index>
2556

>  <StandardizerResult>
Clear Stereo (ID: ClearStereo)
Wedge Clean (ID: WedgeClean)
Mesomerize (ID: Mesomerize)
Tautomerize (ID: Tautomerize)
Clean 2D (ID: Clean2D)

> <knn Distance>
2.0

> <CpId>
2556

$$$$
2781
  Mrv1532301301811342D          

 84 83  0  0  0  0            999 V2000
    8.4709    5.7159    0.0000 C   0  0  0  0  0  0  0  0  0  0  0  0
    9.1853    6.1284    0.0000 C   0  0  0  0  0  0  0  0  0  0  0  0
    9.8998    5.7159    0.0000 C   0  0  0  0  0  0  0  0  0  0  0  0
   10.6143    6.1284    0.0000 C   0  0  0  0  0  0  0  0  0  0  0  0
   11.3288    5.7159    0.0000 C   0  0  0  0  0  0  0  0  0  0  0  0
   12.0432    6.1284    0.0000 C   0  0  0  0  0  0  0  0  0  0  0  0
   12.7577    5.7159    0.0000 C   0  0  0  0  0  0  0  0  0  0  0  0
   13.4722    6.1284    0.0000 C   0  0  0  0  0  0  0  0  0  0  0  0
   14.1866    5.7159    0.0000 C   0  0  0  0  0  0  0  0  0  0  0  0
   14.9011    6.1284    0.0000 C   0  0  0  0  0  0  0  0  0  0  0  0
   15.6156    5.7159    0.0000 O   0  0  0  0  0  0  0  0  0  0  0  0
   16.3301    6.1284    0.0000 C   0  0  0  0  0  0  0  0  0  0  0  0
   16.3301    6.9534    0.0000 O   0  0  0  0  0  0  0  0  0  0  0  0
   17.0445    5.7159    0.0000 C   0  0  0  0  0  0  0  0  0  0  0  0
   17.7590    6.1284    0.0000 C   0  0  0  0  0  0  0  0  0  0  0  0
   18.4735    5.7159    0.0000 C   0  0  0  0  0  0  0  0  0  0  0  0
   19.1879    6.1284    0.0000 C   0  0  0  0  0  0  0  0  0  0  0  0
   19.9024    5.7159    0.0000 C   0  0  0  0  0  0  0  0  0  0  0  0
   20.6169    6.1284    0.0000 C   0  0  0  0  0  0  0  0  0  0  0  0
   21.3314    5.7159    0.0000 C   0  0  0  0  0  0  0  0  0  0  0  0
   22.0458    6.1284    0.0000 C   0  0  0  0  0  0  0  0  0  0  0  0
   22.7603    5.7159    0.0000 C   0  0  0  0  0  0  0  0  0  0  0  0
   23.4748    6.1284    0.0000 C   0  0  0  0  0  0  0  0  0  0  0  0
   23.4748    6.9534    0.0000 C   0  0  0  0  0  0  0  0  0  0  0  0
   24.1892    7.3659    0.0000 C   0  0  0  0  0  0  0  0  0  0  0  0
   24.1892    8.1909    0.0000 C   0  0  0  0  0  0  0  0  0  0  0  0
   24.9037    8.6034    0.0000 C   0  0  0  0  0  0  0  0  0  0  0  0
   24.9037    9.4284    0.0000 C   0  0  0  0  0  0  0  0  0  0  0  0
   25.6182    9.8409    0.0000 C   0  0  0  0  0  0  0  0  0  0  0  0
   25.6182   10.6659    0.0000 C   0  0  0  0  0  0  0  0  0  0  0  0
    8.0584    6.4304    0.0000 H   0  0  0  0  0  0  0  0  0  0  0  0
    7.7564    5.3034    0.0000 H   0  0  0  0  0  0  0  0  0  0  0  0
    8.8834    5.0014    0.0000 H   0  0  0  0  0  0  0  0  0  0  0  0
    9.5556    6.8657    0.0000 H   0  0  0  0  0  0  0  0  0  0  0  0
    8.8151    6.8657    0.0000 H   0  0  0  0  0  0  0  0  0  0  0  0
    9.5296    4.9787    0.0000 H   0  0  0  0  0  0  0  0  0  0  0  0
   10.2701    4.9787    0.0000 H   0  0  0  0  0  0  0  0  0  0  0  0
   10.9846    6.8657    0.0000 H   0  0  0  0  0  0  0  0  0  0  0  0
   10.2440    6.8657    0.0000 H   0  0  0  0  0  0  0  0  0  0  0  0
   10.9585    4.9787    0.0000 H   0  0  0  0  0  0  0  0  0  0  0  0
   11.6990    4.9787    0.0000 H   0  0  0  0  0  0  0  0  0  0  0  0
   12.4135    6.8657    0.0000 H   0  0  0  0  0  0  0  0  0  0  0  0
   11.6730    6.8657    0.0000 H   0  0  0  0  0  0  0  0  0  0  0  0
   12.3874    4.9787    0.0000 H   0  0  0  0  0  0  0  0  0  0  0  0
   13.1280    4.9787    0.0000 H   0  0  0  0  0  0  0  0  0  0  0  0
   13.8424    6.8657    0.0000 H   0  0  0  0  0  0  0  0  0  0  0  0
   13.1019    6.8657    0.0000 H   0  0  0  0  0  0  0  0  0  0  0  0
   13.8164    4.9787    0.0000 H   0  0  0  0  0  0  0  0  0  0  0  0
   14.5569    4.9787    0.0000 H   0  0  0  0  0  0  0  0  0  0  0  0
   15.2714    6.8657    0.0000 H   0  0  0  0  0  0  0  0  0  0  0  0
   14.5309    6.8657    0.0000 H   0  0  0  0  0  0  0  0  0  0  0  0
   16.6743    4.9787    0.0000 H   0  0  0  0  0  0  0  0  0  0  0  0
   17.4148    4.9787    0.0000 H   0  0  0  0  0  0  0  0  0  0  0  0
   18.1293    6.8657    0.0000 H   0  0  0  0  0  0  0  0  0  0  0  0
   17.3887    6.8657    0.0000 H   0  0  0  0  0  0  0  0  0  0  0  0
   18.1032    4.9787    0.0000 H   0  0  0  0  0  0  0  0  0  0  0  0
   18.8437    4.9787    0.0000 H   0  0  0  0  0  0  0  0  0  0  0  0
   19.5582    6.8657    0.0000 H   0  0  0  0  0  0  0  0  0  0  0  0
   18.8177    6.8657    0.0000 H   0  0  0  0  0  0  0  0  0  0  0  0
   19.5322    4.9787    0.0000 H   0  0  0  0  0  0  0  0  0  0  0  0
   20.2727    4.9787    0.0000 H   0  0  0  0  0  0  0  0  0  0  0  0
   20.9871    6.8657    0.0000 H   0  0  0  0  0  0  0  0  0  0  0  0
   20.2466    6.8657    0.0000 H   0  0  0  0  0  0  0  0  0  0  0  0
   20.9611    4.9787    0.0000 H   0  0  0  0  0  0  0  0  0  0  0  0
   21.7016    4.9787    0.0000 H   0  0  0  0  0  0  0  0  0  0  0  0
   22.0458    6.9534    0.0000 H   0  0  0  0  0  0  0  0  0  0  0  0
   22.7603    4.8909    0.0000 H   0  0  0  0  0  0  0  0  0  0  0  0
   23.9281    5.4391    0.0000 H   0  0  0  0  0  0  0  0  0  0  0  0
   24.2984    6.0804    0.0000 H   0  0  0  0  0  0  0  0  0  0  0  0
   23.0214    7.6427    0.0000 H   0  0  0  0  0  0  0  0  0  0  0  0
   22.6512    7.0014    0.0000 H   0  0  0  0  0  0  0  0  0  0  0  0
   24.6426    6.6766    0.0000 H   0  0  0  0  0  0  0  0  0  0  0  0
   25.0128    7.3179    0.0000 H   0  0  0  0  0  0  0  0  0  0  0  0
   23.7359    8.8802    0.0000 H   0  0  0  0  0  0  0  0  0  0  0  0
   23.3656    8.2389    0.0000 H   0  0  0  0  0  0  0  0  0  0  0  0
   25.3571    7.9141    0.0000 H   0  0  0  0  0  0  0  0  0  0  0  0
   25.7273    8.5554    0.0000 H   0  0  0  0  0  0  0  0  0  0  0  0
   24.4504   10.1177    0.0000 H   0  0  0  0  0  0  0  0  0  0  0  0
   24.0801    9.4764    0.0000 H   0  0  0  0  0  0  0  0  0  0  0  0
   26.0715    9.1516    0.0000 H   0  0  0  0  0  0  0  0  0  0  0  0
   26.4418    9.7929    0.0000 H   0  0  0  0  0  0  0  0  0  0  0  0
   26.4432   10.6659    0.0000 H   0  0  0  0  0  0  0  0  0  0  0  0
   25.6182   11.4909    0.0000 H   0  0  0  0  0  0  0  0  0  0  0  0
   24.7932   10.6659    0.0000 H   0  0  0  0  0  0  0  0  0  0  0  0
  1  2  1  0  0  0  0
  2  3  1  0  0  0  0
  3  4  1  0  0  0  0
  4  5  1  0  0  0  0
  5  6  1  0  0  0  0
  6  7  1  0  0  0  0
  7  8  1  0  0  0  0
  8  9  1  0  0  0  0
  9 10  1  0  0  0  0
 10 11  1  0  0  0  0
 11 12  1  0  0  0  0
 12 13  2  0  0  0  0
 12 14  1  0  0  0  0
 14 15  1  0  0  0  0
 15 16  1  0  0  0  0
 16 17  1  0  0  0  0
 17 18  1  0  0  0  0
 18 19  1  0  0  0  0
 19 20  1  0  0  0  0
 21 20  1  4  0  0  0
 21 22  2  0  0  0  0
 22 23  1  0  0  0  0
 23 24  1  0  0  0  0
 24 25  1  0  0  0  0
 25 26  1  0  0  0  0
 26 27  1  0  0  0  0
 27 28  1  0  0  0  0
 28 29  1  0  0  0  0
 29 30  1  0  0  0  0
  1 31  1  0  0  0  0
  1 32  1  0  0  0  0
  1 33  1  0  0  0  0
  2 34  1  0  0  0  0
  2 35  1  0  0  0  0
  3 36  1  0  0  0  0
  3 37  1  0  0  0  0
  4 38  1  0  0  0  0
  4 39  1  0  0  0  0
  5 40  1  0  0  0  0
  5 41  1  0  0  0  0
  6 42  1  0  0  0  0
  6 43  1  0  0  0  0
  7 44  1  0  0  0  0
  7 45  1  0  0  0  0
  8 46  1  0  0  0  0
  8 47  1  0  0  0  0
  9 48  1  0  0  0  0
  9 49  1  0  0  0  0
 10 50  1  0  0  0  0
 10 51  1  0  0  0  0
 14 52  1  0  0  0  0
 14 53  1  0  0  0  0
 15 54  1  0  0  0  0
 15 55  1  0  0  0  0
 16 56  1  0  0  0  0
 16 57  1  0  0  0  0
 17 58  1  0  0  0  0
 17 59  1  0  0  0  0
 18 60  1  0  0  0  0
 18 61  1  0  0  0  0
 19 62  1  0  0  0  0
 19 63  1  0  0  0  0
 20 64  1  0  0  0  0
 20 65  1  0  0  0  0
 21 66  1  0  0  0  0
 22 67  1  0  0  0  0
 23 68  1  0  0  0  0
 23 69  1  0  0  0  0
 24 70  1  0  0  0  0
 24 71  1  0  0  0  0
 25 72  1  0  0  0  0
 25 73  1  0  0  0  0
 26 74  1  0  0  0  0
 26 75  1  0  0  0  0
 27 76  1  0  0  0  0
 27 77  1  0  0  0  0
 28 78  1  0  0  0  0
 28 79  1  0  0  0  0
 29 80  1  0  0  0  0
 29 81  1  0  0  0  0
 30 82  1  0  0  0  0
 30 83  1  0  0  0  0
 30 84  1  0  0  0  0
M  END
>  <InChIKey>
InChI=1S/C28H54O2/c1-3-5-7-9-11-13-14-15-16-17-18-19-20-22-24-26-28(29)30-27-25-23-21-12-10-8-6-4-2/h15-16H,3-14,17-27H2,1-2H3

>  <CASRN>
3687-46-5

> <Outcome>
0

>  <Index>
2781

>  <StandardizerResult>
Clear Stereo (ID: ClearStereo)
Wedge Clean (ID: WedgeClean)
Mesomerize (ID: Mesomerize)
Tautomerize (ID: Tautomerize)
Add Explicit Hydrogens (ID: AddExplicitH)
Neutralize (ID: Neutralize)
Clean 2D (ID: Clean2D)

> <knn Distance>
2.0

> <CpId>
2781

$$$$
3075
  Mrv1532301301811342D          

  5  4  0  0  0  0            999 V2000
    1.2375    0.7145    0.0000 F   0  0  0  0  0  0  0  0  0  0  0  0
    0.8250    0.0000    0.0000 C   0  0  0  0  0  0  0  0  0  0  0  0
    1.2375   -0.7145    0.0000 F   0  0  0  0  0  0  0  0  0  0  0  0
    0.0000    0.0000    0.0000 Cl  0  0  0  0  0  0  0  0  0  0  0  0
    1.6500   -0.0000    0.0000 H   0  0  0  0  0  0  0  0  0  0  0  0
  1  2  1  0  0  0  0
  2  3  1  0  0  0  0
  2  4  1  0  0  0  0
  2  5  1  0  0  0  0
M  END
>  <InChIKey>
InChI=1S/CHClF2/c2-1(3)4/h1H

>  <CASRN>
75-45-6

> <Outcome>
0

>  <Index>
3075

>  <StandardizerResult>
Clear Stereo (ID: ClearStereo)
Wedge Clean (ID: WedgeClean)
Mesomerize (ID: Mesomerize)
Tautomerize (ID: Tautomerize)
Add Explicit Hydrogens (ID: AddExplicitH)
Neutralize (ID: Neutralize)
Clean 2D (ID: Clean2D)

> <knn Distance>
2.0

> <CpId>
3075

$$$$
3127
  Mrv1532301301811342D          

 44 43  0  0  0  0            999 V2000
   -1.3727   -5.4480    0.0000 C   0  0  0  0  0  0  0  0  0  0  0  0
   -1.3727   -4.6230    0.0000 N   0  3  0  0  0  0  0  0  0  0  0  0
   -0.5477   -4.6230    0.0000 C   0  0  0  0  0  0  0  0  0  0  0  0
   -2.1977   -4.6230    0.0000 C   0  0  0  0  0  0  0  0  0  0  0  0
   -1.3727   -3.7980    0.0000 C   0  0  0  0  0  0  0  0  0  0  0  0
   -0.6582   -3.3855    0.0000 C   0  0  0  0  0  0  0  0  0  0  0  0
   -0.6582   -2.5605    0.0000 C   0  0  0  0  0  0  0  0  0  0  0  0
    0.0563   -2.1480    0.0000 C   0  0  0  0  0  0  0  0  0  0  0  0
    0.0563   -1.3230    0.0000 C   0  0  0  0  0  0  0  0  0  0  0  0
    0.7707   -0.9105    0.0000 C   0  0  0  0  0  0  0  0  0  0  0  0
    0.7707   -0.0855    0.0000 N   0  3  0  0  0  0  0  0  0  0  0  0
    0.7707    0.7395    0.0000 C   0  0  0  0  0  0  0  0  0  0  0  0
    1.5957   -0.0855    0.0000 C   0  0  0  0  0  0  0  0  0  0  0  0
   -0.0543   -0.0855    0.0000 C   0  0  0  0  0  0  0  0  0  0  0  0
   -2.1977   -5.4480    0.0000 H   0  0  0  0  0  0  0  0  0  0  0  0
   -1.3727   -6.2730    0.0000 H   0  0  0  0  0  0  0  0  0  0  0  0
   -0.5477   -5.4480    0.0000 H   0  0  0  0  0  0  0  0  0  0  0  0
    0.2145   -4.9387    0.0000 H   0  0  0  0  0  0  0  0  0  0  0  0
    0.0357   -4.0397    0.0000 H   0  0  0  0  0  0  0  0  0  0  0  0
   -0.8634   -3.8608    0.0000 H   0  0  0  0  0  0  0  0  0  0  0  0
   -1.8820   -3.8608    0.0000 H   0  0  0  0  0  0  0  0  0  0  0  0
   -2.7811   -4.0397    0.0000 H   0  0  0  0  0  0  0  0  0  0  0  0
   -2.9599   -4.9387    0.0000 H   0  0  0  0  0  0  0  0  0  0  0  0
   -1.2628   -2.9804    0.0000 H   0  0  0  0  0  0  0  0  0  0  0  0
   -1.9529   -3.2115    0.0000 H   0  0  0  0  0  0  0  0  0  0  0  0
    0.1666   -3.3693    0.0000 H   0  0  0  0  0  0  0  0  0  0  0  0
   -0.0806   -2.7965    0.0000 H   0  0  0  0  0  0  0  0  0  0  0  0
   -0.8278   -1.7531    0.0000 H   0  0  0  0  0  0  0  0  0  0  0  0
   -1.3164   -2.0631    0.0000 H   0  0  0  0  0  0  0  0  0  0  0  0
    0.7895   -2.5262    0.0000 H   0  0  0  0  0  0  0  0  0  0  0  0
    0.8518   -1.9294    0.0000 H   0  0  0  0  0  0  0  0  0  0  0  0
   -0.3971   -0.6337    0.0000 H   0  0  0  0  0  0  0  0  0  0  0  0
   -0.7674   -1.2751    0.0000 H   0  0  0  0  0  0  0  0  0  0  0  0
    1.2241   -1.5998    0.0000 H   0  0  0  0  0  0  0  0  0  0  0  0
    1.5943   -0.9585    0.0000 H   0  0  0  0  0  0  0  0  0  0  0  0
    1.5957    0.7395    0.0000 H   0  0  0  0  0  0  0  0  0  0  0  0
    0.7707    1.5645    0.0000 H   0  0  0  0  0  0  0  0  0  0  0  0
   -0.0543    0.7395    0.0000 H   0  0  0  0  0  0  0  0  0  0  0  0
    2.1784   -0.6696    0.0000 H   0  0  0  0  0  0  0  0  0  0  0  0
    2.4207   -0.0862    0.0000 H   0  0  0  0  0  0  0  0  0  0  0  0
    2.1793    0.4976    0.0000 H   0  0  0  0  0  0  0  0  0  0  0  0
   -0.6800    0.4522    0.0000 H   0  0  0  0  0  0  0  0  0  0  0  0
   -0.8699   -0.2097    0.0000 H   0  0  0  0  0  0  0  0  0  0  0  0
    0.3456   -0.8072    0.0000 H   0  0  0  0  0  0  0  0  0  0  0  0
  1  2  1  0  0  0  0
  2  3  1  0  0  0  0
  2  4  1  0  0  0  0
  2  5  1  0  0  0  0
  5  6  1  0  0  0  0
  6  7  1  0  0  0  0
  7  8  1  0  0  0  0
  8  9  1  0  0  0  0
  9 10  1  0  0  0  0
 10 11  1  0  0  0  0
 11 12  1  0  0  0  0
 11 13  1  0  0  0  0
 11 14  1  0  0  0  0
  1 15  1  0  0  0  0
  1 16  1  0  0  0  0
  1 17  1  0  0  0  0
  3 18  1  0  0  0  0
  3 19  1  0  0  0  0
  3 20  1  0  0  0  0
  4 21  1  0  0  0  0
  4 22  1  0  0  0  0
  4 23  1  0  0  0  0
  5 24  1  0  0  0  0
  5 25  1  0  0  0  0
  6 26  1  0  0  0  0
  6 27  1  0  0  0  0
  7 28  1  0  0  0  0
  7 29  1  0  0  0  0
  8 30  1  0  0  0  0
  8 31  1  0  0  0  0
  9 32  1  0  0  0  0
  9 33  1  0  0  0  0
 10 34  1  0  0  0  0
 10 35  1  0  0  0  0
 12 36  1  0  0  0  0
 12 37  1  0  0  0  0
 12 38  1  0  0  0  0
 13 39  1  0  0  0  0
 13 40  1  0  0  0  0
 13 41  1  0  0  0  0
 14 42  1  0  0  0  0
 14 43  1  0  0  0  0
 14 44  1  0  0  0  0
M  CHG  2   2   1  11   1
M  END
>  <InChIKey>
InChI=1S/C12H30N2/c1-13(2,3)11-9-7-8-10-12-14(4,5)6/h7-12H2,1-6H3/q+2

>  <CASRN>
60-26-4

> <Outcome>
0

>  <Index>
3127

>  <StandardizerResult>
Clear Stereo (ID: ClearStereo)
Wedge Clean (ID: WedgeClean)
Mesomerize (ID: Mesomerize)
Tautomerize (ID: Tautomerize)
Add Explicit Hydrogens (ID: AddExplicitH)
Clean 2D (ID: Clean2D)

> <knn Distance>
2.0

> <CpId>
3127

$$$$
64
  Mrv1532301301811342D          

 28 29  0  0  0  0            999 V2000
    1.4757    0.0056    0.0000 C   0  0  0  0  0  0  0  0  0  0  0  0
    2.1902   -0.4069    0.0000 C   0  0  0  0  0  0  0  0  0  0  0  0
    2.1902   -1.2319    0.0000 C   0  0  0  0  0  0  0  0  0  0  0  0
    2.9047   -1.6444    0.0000 C   0  0  0  0  0  0  0  0  0  0  0  0
    2.9047   -2.4694    0.0000 C   0  0  0  0  0  0  0  0  0  0  0  0
    2.1902   -2.8819    0.0000 C   0  0  0  0  0  0  0  0  0  0  0  0
    1.4757   -2.4694    0.0000 C   0  0  0  0  0  0  0  0  0  0  0  0
    1.4757   -1.6444    0.0000 C   0  0  0  0  0  0  0  0  0  0  0  0
    2.9047    0.0056    0.0000 C   0  0  0  0  0  0  0  0  0  0  0  0
    2.9047    0.8306    0.0000 C   0  0  0  0  0  0  0  0  0  0  0  0
    3.6191    1.2431    0.0000 C   0  0  0  0  0  0  0  0  0  0  0  0
    4.3336    0.8306    0.0000 C   0  0  0  0  0  0  0  0  0  0  0  0
    4.3336    0.0056    0.0000 C   0  0  0  0  0  0  0  0  0  0  0  0
    3.6191   -0.4069    0.0000 C   0  0  0  0  0  0  0  0  0  0  0  0
    1.8882    0.7201    0.0000 H   0  0  0  0  0  0  0  0  0  0  0  0
    0.7612    0.4181    0.0000 H   0  0  0  0  0  0  0  0  0  0  0  0
    1.0632   -0.7088    0.0000 H   0  0  0  0  0  0  0  0  0  0  0  0
    1.4757   -0.8194    0.0000 H   0  0  0  0  0  0  0  0  0  0  0  0
    3.6191   -1.2319    0.0000 H   0  0  0  0  0  0  0  0  0  0  0  0
    3.6191   -2.8819    0.0000 H   0  0  0  0  0  0  0  0  0  0  0  0
    2.1902   -3.7069    0.0000 H   0  0  0  0  0  0  0  0  0  0  0  0
    0.7612   -2.8819    0.0000 H   0  0  0  0  0  0  0  0  0  0  0  0
    0.6507   -1.6444    0.0000 H   0  0  0  0  0  0  0  0  0  0  0  0
    2.1902    1.2431    0.0000 H   0  0  0  0  0  0  0  0  0  0  0  0
    3.6191    2.0681    0.0000 H   0  0  0  0  0  0  0  0  0  0  0  0
    5.0481    1.2431    0.0000 H   0  0  0  0  0  0  0  0  0  0  0  0
    5.0481   -0.4069    0.0000 H   0  0  0  0  0  0  0  0  0  0  0  0
    2.9047   -0.8194    0.0000 H   0  0  0  0  0  0  0  0  0  0  0  0
  1  2  1  0  0  0  0
  2  3  1  0  0  0  0
  3  4  4  0  0  0  0
  4  5  4  0  0  0  0
  5  6  4  0  0  0  0
  6  7  4  0  0  0  0
  7  8  4  0  0  0  0
  3  8  4  0  0  0  0
  2  9  1  0  0  0  0
  9 10  4  0  0  0  0
 10 11  4  0  0  0  0
 11 12  4  0  0  0  0
 12 13  4  0  0  0  0
 13 14  4  0  0  0  0
  9 14  4  0  0  0  0
  1 15  1  0  0  0  0
  1 16  1  0  0  0  0
  1 17  1  0  0  0  0
  2 18  1  0  0  0  0
  4 19  1  0  0  0  0
  5 20  1  0  0  0  0
  6 21  1  0  0  0  0
  7 22  1  0  0  0  0
  8 23  1  0  0  0  0
 10 24  1  0  0  0  0
 11 25  1  0  0  0  0
 12 26  1  0  0  0  0
 13 27  1  0  0  0  0
 14 28  1  0  0  0  0
M  END
>  <InChIKey>
BSZXAFXFTLXUFV-UHFFFAOYSA-N

>  <UN GHS>
Non-irritant

>  <CASRN>
38888-98-1

> <Outcome>
0

>  <Index>
64

>  <StandardizerResult>
Dearomatize (ID: Dearomatize)
Clear Stereo (ID: ClearStereo)
Wedge Clean (ID: WedgeClean)
Mesomerize (ID: Mesomerize)
Tautomerize (ID: Tautomerize)
Aromatize (ID: Aromatize)
Add Explicit Hydrogens (ID: AddExplicitH)
Neutralize (ID: Neutralize)
Clean 2D (ID: Clean2D)

> <knn Distance>
2.2360680103302

> <CpId>
64

$$$$
66
  Mrv1532301301811342D          

 63 62  0  0  0  0            999 V2000
   10.4230    6.8430    0.0000 C   0  0  0  0  0  0  0  0  0  0  0  0
   11.1375    6.4305    0.0000 C   0  0  0  0  0  0  0  0  0  0  0  0
   11.8520    6.8430    0.0000 C   0  0  0  0  0  0  0  0  0  0  0  0
   12.5664    6.4305    0.0000 C   0  0  0  0  0  0  0  0  0  0  0  0
   13.2809    6.8430    0.0000 C   0  0  0  0  0  0  0  0  0  0  0  0
   13.9954    6.4305    0.0000 C   0  0  0  0  0  0  0  0  0  0  0  0
   14.7099    6.8430    0.0000 C   0  0  0  0  0  0  0  0  0  0  0  0
   15.4243    6.4305    0.0000 C   0  0  0  0  0  0  0  0  0  0  0  0
   16.1388    6.8430    0.0000 C   0  0  0  0  0  0  0  0  0  0  0  0
   16.8533    6.4305    0.0000 C   0  0  0  0  0  0  0  0  0  0  0  0
   17.5677    6.8430    0.0000 C   0  0  0  0  0  0  0  0  0  0  0  0
   18.2822    6.4305    0.0000 C   0  0  0  0  0  0  0  0  0  0  0  0
   18.9967    6.8430    0.0000 C   0  0  0  0  0  0  0  0  0  0  0  0
   19.7112    6.4305    0.0000 C   0  0  0  0  0  0  0  0  0  0  0  0
   20.4256    6.8430    0.0000 C   0  0  0  0  0  0  0  0  0  0  0  0
   21.1401    6.4305    0.0000 C   0  0  0  0  0  0  0  0  0  0  0  0
   21.8546    6.8430    0.0000 C   0  0  0  0  0  0  0  0  0  0  0  0
   22.5690    6.4305    0.0000 C   0  0  0  0  0  0  0  0  0  0  0  0
   23.2835    6.8430    0.0000 C   0  0  0  0  0  0  0  0  0  0  0  0
   23.9980    6.4305    0.0000 C   0  0  0  0  0  0  0  0  0  0  0  0
   24.7124    6.8430    0.0000 O   0  0  0  0  0  0  0  0  0  0  0  0
   10.8355    7.5575    0.0000 H   0  0  0  0  0  0  0  0  0  0  0  0
    9.7086    7.2555    0.0000 H   0  0  0  0  0  0  0  0  0  0  0  0
   10.0105    6.1285    0.0000 H   0  0  0  0  0  0  0  0  0  0  0  0
   10.7672    5.6932    0.0000 H   0  0  0  0  0  0  0  0  0  0  0  0
   11.5078    5.6932    0.0000 H   0  0  0  0  0  0  0  0  0  0  0  0
   12.2222    7.5802    0.0000 H   0  0  0  0  0  0  0  0  0  0  0  0
   11.4817    7.5802    0.0000 H   0  0  0  0  0  0  0  0  0  0  0  0
   12.1962    5.6932    0.0000 H   0  0  0  0  0  0  0  0  0  0  0  0
   12.9367    5.6932    0.0000 H   0  0  0  0  0  0  0  0  0  0  0  0
   13.6512    7.5802    0.0000 H   0  0  0  0  0  0  0  0  0  0  0  0
   12.9107    7.5802    0.0000 H   0  0  0  0  0  0  0  0  0  0  0  0
   13.6251    5.6932    0.0000 H   0  0  0  0  0  0  0  0  0  0  0  0
   14.3656    5.6932    0.0000 H   0  0  0  0  0  0  0  0  0  0  0  0
   15.0801    7.5802    0.0000 H   0  0  0  0  0  0  0  0  0  0  0  0
   14.3396    7.5802    0.0000 H   0  0  0  0  0  0  0  0  0  0  0  0
   15.0541    5.6932    0.0000 H   0  0  0  0  0  0  0  0  0  0  0  0
   15.7946    5.6932    0.0000 H   0  0  0  0  0  0  0  0  0  0  0  0
   16.5091    7.5802    0.0000 H   0  0  0  0  0  0  0  0  0  0  0  0
   15.7685    7.5802    0.0000 H   0  0  0  0  0  0  0  0  0  0  0  0
   16.4830    5.6932    0.0000 H   0  0  0  0  0  0  0  0  0  0  0  0
   17.2235    5.6932    0.0000 H   0  0  0  0  0  0  0  0  0  0  0  0
   17.9380    7.5802    0.0000 H   0  0  0  0  0  0  0  0  0  0  0  0
   17.1975    7.5802    0.0000 H   0  0  0  0  0  0  0  0  0  0  0  0
   17.9120    5.6932    0.0000 H   0  0  0  0  0  0  0  0  0  0  0  0
   18.6525    5.6932    0.0000 H   0  0  0  0  0  0  0  0  0  0  0  0
   19.3669    7.5802    0.0000 H   0  0  0  0  0  0  0  0  0  0  0  0
   18.6264    7.5802    0.0000 H   0  0  0  0  0  0  0  0  0  0  0  0
   19.3409    5.6932    0.0000 H   0  0  0  0  0  0  0  0  0  0  0  0
   20.0814    5.6932    0.0000 H   0  0  0  0  0  0  0  0  0  0  0  0
   20.7959    7.5802    0.0000 H   0  0  0  0  0  0  0  0  0  0  0  0
   20.0554    7.5802    0.0000 H   0  0  0  0  0  0  0  0  0  0  0  0
   20.7698    5.6932    0.0000 H   0  0  0  0  0  0  0  0  0  0  0  0
   21.5104    5.6932    0.0000 H   0  0  0  0  0  0  0  0  0  0  0  0
   22.2248    7.5802    0.0000 H   0  0  0  0  0  0  0  0  0  0  0  0
   21.4843    7.5802    0.0000 H   0  0  0  0  0  0  0  0  0  0  0  0
   22.1988    5.6932    0.0000 H   0  0  0  0  0  0  0  0  0  0  0  0
   22.9393    5.6932    0.0000 H   0  0  0  0  0  0  0  0  0  0  0  0
   23.6538    7.5802    0.0000 H   0  0  0  0  0  0  0  0  0  0  0  0
   22.9132    7.5802    0.0000 H   0  0  0  0  0  0  0  0  0  0  0  0
   23.6277    5.6932    0.0000 H   0  0  0  0  0  0  0  0  0  0  0  0
   24.3682    5.6932    0.0000 H   0  0  0  0  0  0  0  0  0  0  0  0
   25.4269    6.4305    0.0000 H   0  0  0  0  0  0  0  0  0  0  0  0
  1  2  1  0  0  0  0
  2  3  1  0  0  0  0
  3  4  1  0  0  0  0
  4  5  1  0  0  0  0
  5  6  1  0  0  0  0
  6  7  1  0  0  0  0
  7  8  1  0  0  0  0
  8  9  1  0  0  0  0
  9 10  1  0  0  0  0
 10 11  1  0  0  0  0
 11 12  1  0  0  0  0
 12 13  1  0  0  0  0
 13 14  1  0  0  0  0
 14 15  1  0  0  0  0
 15 16  1  0  0  0  0
 16 17  1  0  0  0  0
 17 18  1  0  0  0  0
 18 19  1  0  0  0  0
 19 20  1  0  0  0  0
 20 21  1  0  0  0  0
  1 22  1  0  0  0  0
  1 23  1  0  0  0  0
  1 24  1  0  0  0  0
  2 25  1  0  0  0  0
  2 26  1  0  0  0  0
  3 27  1  0  0  0  0
  3 28  1  0  0  0  0
  4 29  1  0  0  0  0
  4 30  1  0  0  0  0
  5 31  1  0  0  0  0
  5 32  1  0  0  0  0
  6 33  1  0  0  0  0
  6 34  1  0  0  0  0
  7 35  1  0  0  0  0
  7 36  1  0  0  0  0
  8 37  1  0  0  0  0
  8 38  1  0  0  0  0
  9 39  1  0  0  0  0
  9 40  1  0  0  0  0
 10 41  1  0  0  0  0
 10 42  1  0  0  0  0
 11 43  1  0  0  0  0
 11 44  1  0  0  0  0
 12 45  1  0  0  0  0
 12 46  1  0  0  0  0
 13 47  1  0  0  0  0
 13 48  1  0  0  0  0
 14 49  1  0  0  0  0
 14 50  1  0  0  0  0
 15 51  1  0  0  0  0
 15 52  1  0  0  0  0
 16 53  1  0  0  0  0
 16 54  1  0  0  0  0
 17 55  1  0  0  0  0
 17 56  1  0  0  0  0
 18 57  1  0  0  0  0
 18 58  1  0  0  0  0
 19 59  1  0  0  0  0
 19 60  1  0  0  0  0
 20 61  1  0  0  0  0
 20 62  1  0  0  0  0
 21 63  1  0  0  0  0
M  END
>  <InChIKey>
BTFJIXJJCSYFAL-UHFFFAOYSA-N

>  <UN GHS>
Non-irritant

>  <CASRN>
629-96-9

> <Outcome>
0

>  <Index>
66

>  <StandardizerResult>
Clear Stereo (ID: ClearStereo)
Wedge Clean (ID: WedgeClean)
Mesomerize (ID: Mesomerize)
Tautomerize (ID: Tautomerize)
Add Explicit Hydrogens (ID: AddExplicitH)
Neutralize (ID: Neutralize)
Clean 2D (ID: Clean2D)

> <knn Distance>
2.2360680103302

> <CpId>
66

$$$$
73
  Mrv1532301301811342D          

 51 50  0  0  0  0            999 V2000
    7.9480    5.4141    0.0000 C   0  0  0  0  0  0  0  0  0  0  0  0
    8.6625    5.0016    0.0000 C   0  0  0  0  0  0  0  0  0  0  0  0
    9.3770    5.4141    0.0000 C   0  0  0  0  0  0  0  0  0  0  0  0
   10.0914    5.0016    0.0000 C   0  0  0  0  0  0  0  0  0  0  0  0
   10.8059    5.4141    0.0000 C   0  0  0  0  0  0  0  0  0  0  0  0
   11.5204    5.0016    0.0000 C   0  0  0  0  0  0  0  0  0  0  0  0
   12.2349    5.4141    0.0000 C   0  0  0  0  0  0  0  0  0  0  0  0
   12.9493    5.0016    0.0000 C   0  0  0  0  0  0  0  0  0  0  0  0
   13.6638    5.4141    0.0000 C   0  0  0  0  0  0  0  0  0  0  0  0
   14.3783    5.0016    0.0000 C   0  0  0  0  0  0  0  0  0  0  0  0
   15.0927    5.4141    0.0000 C   0  0  0  0  0  0  0  0  0  0  0  0
   15.8072    5.0016    0.0000 C   0  0  0  0  0  0  0  0  0  0  0  0
   16.5217    5.4141    0.0000 C   0  0  0  0  0  0  0  0  0  0  0  0
   17.2362    5.0016    0.0000 C   0  0  0  0  0  0  0  0  0  0  0  0
   17.9506    5.4141    0.0000 C   0  0  0  0  0  0  0  0  0  0  0  0
   18.6651    5.0016    0.0000 C   0  0  0  0  0  0  0  0  0  0  0  0
   19.3796    5.4141    0.0000 O   0  0  0  0  0  0  0  0  0  0  0  0
    8.3605    6.1286    0.0000 H   0  0  0  0  0  0  0  0  0  0  0  0
    7.2336    5.8266    0.0000 H   0  0  0  0  0  0  0  0  0  0  0  0
    7.5355    4.6997    0.0000 H   0  0  0  0  0  0  0  0  0  0  0  0
    8.2922    4.2644    0.0000 H   0  0  0  0  0  0  0  0  0  0  0  0
    9.0328    4.2644    0.0000 H   0  0  0  0  0  0  0  0  0  0  0  0
    9.7472    6.1514    0.0000 H   0  0  0  0  0  0  0  0  0  0  0  0
    9.0067    6.1514    0.0000 H   0  0  0  0  0  0  0  0  0  0  0  0
    9.7212    4.2644    0.0000 H   0  0  0  0  0  0  0  0  0  0  0  0
   10.4617    4.2644    0.0000 H   0  0  0  0  0  0  0  0  0  0  0  0
   11.1762    6.1514    0.0000 H   0  0  0  0  0  0  0  0  0  0  0  0
   10.4357    6.1514    0.0000 H   0  0  0  0  0  0  0  0  0  0  0  0
   11.1501    4.2644    0.0000 H   0  0  0  0  0  0  0  0  0  0  0  0
   11.8906    4.2644    0.0000 H   0  0  0  0  0  0  0  0  0  0  0  0
   12.6051    6.1514    0.0000 H   0  0  0  0  0  0  0  0  0  0  0  0
   11.8646    6.1514    0.0000 H   0  0  0  0  0  0  0  0  0  0  0  0
   12.5791    4.2644    0.0000 H   0  0  0  0  0  0  0  0  0  0  0  0
   13.3196    4.2644    0.0000 H   0  0  0  0  0  0  0  0  0  0  0  0
   14.0341    6.1514    0.0000 H   0  0  0  0  0  0  0  0  0  0  0  0
   13.2935    6.1514    0.0000 H   0  0  0  0  0  0  0  0  0  0  0  0
   14.0080    4.2644    0.0000 H   0  0  0  0  0  0  0  0  0  0  0  0
   14.7485    4.2644    0.0000 H   0  0  0  0  0  0  0  0  0  0  0  0
   15.4630    6.1514    0.0000 H   0  0  0  0  0  0  0  0  0  0  0  0
   14.7225    6.1514    0.0000 H   0  0  0  0  0  0  0  0  0  0  0  0
   15.4370    4.2644    0.0000 H   0  0  0  0  0  0  0  0  0  0  0  0
   16.1775    4.2644    0.0000 H   0  0  0  0  0  0  0  0  0  0  0  0
   16.8919    6.1514    0.0000 H   0  0  0  0  0  0  0  0  0  0  0  0
   16.1514    6.1514    0.0000 H   0  0  0  0  0  0  0  0  0  0  0  0
   16.8659    4.2644    0.0000 H   0  0  0  0  0  0  0  0  0  0  0  0
   17.6064    4.2644    0.0000 H   0  0  0  0  0  0  0  0  0  0  0  0
   18.3209    6.1514    0.0000 H   0  0  0  0  0  0  0  0  0  0  0  0
   17.5804    6.1514    0.0000 H   0  0  0  0  0  0  0  0  0  0  0  0
   18.2948    4.2644    0.0000 H   0  0  0  0  0  0  0  0  0  0  0  0
   19.0354    4.2644    0.0000 H   0  0  0  0  0  0  0  0  0  0  0  0
   20.0940    5.0016    0.0000 H   0  0  0  0  0  0  0  0  0  0  0  0
  1  2  1  0  0  0  0
  2  3  1  0  0  0  0
  3  4  1  0  0  0  0
  4  5  1  0  0  0  0
  5  6  1  0  0  0  0
  6  7  1  0  0  0  0
  7  8  1  0  0  0  0
  8  9  1  0  0  0  0
  9 10  1  0  0  0  0
 10 11  1  0  0  0  0
 11 12  1  0  0  0  0
 12 13  1  0  0  0  0
 13 14  1  0  0  0  0
 14 15  1  0  0  0  0
 15 16  1  0  0  0  0
 16 17  1  0  0  0  0
  1 18  1  0  0  0  0
  1 19  1  0  0  0  0
  1 20  1  0  0  0  0
  2 21  1  0  0  0  0
  2 22  1  0  0  0  0
  3 23  1  0  0  0  0
  3 24  1  0  0  0  0
  4 25  1  0  0  0  0
  4 26  1  0  0  0  0
  5 27  1  0  0  0  0
  5 28  1  0  0  0  0
  6 29  1  0  0  0  0
  6 30  1  0  0  0  0
  7 31  1  0  0  0  0
  7 32  1  0  0  0  0
  8 33  1  0  0  0  0
  8 34  1  0  0  0  0
  9 35  1  0  0  0  0
  9 36  1  0  0  0  0
 10 37  1  0  0  0  0
 10 38  1  0  0  0  0
 11 39  1  0  0  0  0
 11 40  1  0  0  0  0
 12 41  1  0  0  0  0
 12 42  1  0  0  0  0
 13 43  1  0  0  0  0
 13 44  1  0  0  0  0
 14 45  1  0  0  0  0
 14 46  1  0  0  0  0
 15 47  1  0  0  0  0
 15 48  1  0  0  0  0
 16 49  1  0  0  0  0
 16 50  1  0  0  0  0
 17 51  1  0  0  0  0
M  END
>  <InChIKey>
BXWNKGSJHAJOGX-UHFFFAOYSA-N

>  <UN GHS>
Non-irritant

>  <CASRN>
36653-82-4

> <Outcome>
0

>  <Index>
73

>  <StandardizerResult>
Clear Stereo (ID: ClearStereo)
Wedge Clean (ID: WedgeClean)
Mesomerize (ID: Mesomerize)
Tautomerize (ID: Tautomerize)
Add Explicit Hydrogens (ID: AddExplicitH)
Neutralize (ID: Neutralize)
Clean 2D (ID: Clean2D)

> <knn Distance>
2.2360680103302

> <CpId>
73

$$$$
140
  Mrv1532301301811342D          

 20 19  0  0  0  0            999 V2000
    1.7605    1.8423    0.0000 C   0  0  0  0  0  0  0  0  0  0  0  0
    2.4750    1.4298    0.0000 C   0  0  0  0  0  0  0  0  0  0  0  0
    3.1895    1.8423    0.0000 C   0  0  0  0  0  0  0  0  0  0  0  0
    3.9039    1.4298    0.0000 C   0  0  0  0  0  0  0  0  0  0  0  0
    4.6184    1.8423    0.0000 O   0  0  0  0  0  0  0  0  0  0  0  0
    5.3329    1.4298    0.0000 C   0  0  0  0  0  0  0  0  0  0  0  0
    6.0474    1.8423    0.0000 C   0  0  0  0  0  0  0  0  0  0  0  0
    5.3329    0.6048    0.0000 O   0  0  0  0  0  0  0  0  0  0  0  0
    2.1730    2.5568    0.0000 H   0  0  0  0  0  0  0  0  0  0  0  0
    1.0461    2.2548    0.0000 H   0  0  0  0  0  0  0  0  0  0  0  0
    1.3480    1.1278    0.0000 H   0  0  0  0  0  0  0  0  0  0  0  0
    2.1047    0.6925    0.0000 H   0  0  0  0  0  0  0  0  0  0  0  0
    2.8453    0.6925    0.0000 H   0  0  0  0  0  0  0  0  0  0  0  0
    3.5597    2.5795    0.0000 H   0  0  0  0  0  0  0  0  0  0  0  0
    2.8192    2.5795    0.0000 H   0  0  0  0  0  0  0  0  0  0  0  0
    3.5337    0.6925    0.0000 H   0  0  0  0  0  0  0  0  0  0  0  0
    4.2742    0.6925    0.0000 H   0  0  0  0  0  0  0  0  0  0  0  0
    6.4599    1.1278    0.0000 H   0  0  0  0  0  0  0  0  0  0  0  0
    6.7618    2.2548    0.0000 H   0  0  0  0  0  0  0  0  0  0  0  0
    5.6349    2.5568    0.0000 H   0  0  0  0  0  0  0  0  0  0  0  0
  1  2  1  0  0  0  0
  2  3  1  0  0  0  0
  3  4  1  0  0  0  0
  4  5  1  0  0  0  0
  5  6  1  0  0  0  0
  6  7  1  0  0  0  0
  6  8  2  0  0  0  0
  1  9  1  0  0  0  0
  1 10  1  0  0  0  0
  1 11  1  0  0  0  0
  2 12  1  0  0  0  0
  2 13  1  0  0  0  0
  3 14  1  0  0  0  0
  3 15  1  0  0  0  0
  4 16  1  0  0  0  0
  4 17  1  0  0  0  0
  7 18  1  0  0  0  0
  7 19  1  0  0  0  0
  7 20  1  0  0  0  0
M  END
>  <InChIKey>
DKPFZGUDAPQIHT-UHFFFAOYSA-N

>  <UN GHS>
Non-irritant

>  <CASRN>
123-86-4

> <Outcome>
0

>  <Index>
140

>  <StandardizerResult>
Clear Stereo (ID: ClearStereo)
Wedge Clean (ID: WedgeClean)
Mesomerize (ID: Mesomerize)
Tautomerize (ID: Tautomerize)
Add Explicit Hydrogens (ID: AddExplicitH)
Neutralize (ID: Neutralize)
Clean 2D (ID: Clean2D)

> <knn Distance>
2.2360680103302

> <CpId>
140

$$$$
183
  Mrv1532301301811342D          

 16 16  0  0  0  0            999 V2000
   -0.0000    2.4750    0.0000 O   0  0  0  0  0  0  0  0  0  0  0  0
    0.7145    2.0625    0.0000 C   0  0  0  0  0  0  0  0  0  0  0  0
    1.4289    2.4750    0.0000 O   0  0  0  0  0  0  0  0  0  0  0  0
    0.7145    1.2375    0.0000 C   0  0  0  0  0  0  0  0  0  0  0  0
    1.4289    0.8250    0.0000 C   0  0  0  0  0  0  0  0  0  0  0  0
    1.4289   -0.0000    0.0000 C   0  0  0  0  0  0  0  0  0  0  0  0
    0.7145   -0.4125    0.0000 C   0  0  0  0  0  0  0  0  0  0  0  0
    0.7145   -1.2375    0.0000 O   0  0  0  0  0  0  0  0  0  0  0  0
   -0.0000   -0.0000    0.0000 C   0  0  0  0  0  0  0  0  0  0  0  0
   -0.0000    0.8250    0.0000 C   0  0  0  0  0  0  0  0  0  0  0  0
   -0.0000    3.3000    0.0000 H   0  0  0  0  0  0  0  0  0  0  0  0
    2.1434    1.2375    0.0000 H   0  0  0  0  0  0  0  0  0  0  0  0
    2.1434   -0.4125    0.0000 H   0  0  0  0  0  0  0  0  0  0  0  0
   -0.0000   -1.6500    0.0000 H   0  0  0  0  0  0  0  0  0  0  0  0
   -0.7145   -0.4125    0.0000 H   0  0  0  0  0  0  0  0  0  0  0  0
   -0.7145    1.2375    0.0000 H   0  0  0  0  0  0  0  0  0  0  0  0
  1  2  1  0  0  0  0
  2  3  2  0  0  0  0
  2  4  1  0  0  0  0
  4  5  4  0  0  0  0
  5  6  4  0  0  0  0
  6  7  4  0  0  0  0
  7  8  1  0  0  0  0
  7  9  4  0  0  0  0
  9 10  4  0  0  0  0
  4 10  4  0  0  0  0
  1 11  1  0  0  0  0
  5 12  1  0  0  0  0
  6 13  1  0  0  0  0
  8 14  1  0  0  0  0
  9 15  1  0  0  0  0
 10 16  1  0  0  0  0
M  END
>  <InChIKey>
FJKROLUGYXJWQN-UHFFFAOYSA-N

>  <UN GHS>
Non-irritant

>  <CASRN>
99-96-7

> <Outcome>
0

>  <Index>
183

>  <StandardizerResult>
Dearomatize (ID: Dearomatize)
Clear Stereo (ID: ClearStereo)
Wedge Clean (ID: WedgeClean)
Mesomerize (ID: Mesomerize)
Tautomerize (ID: Tautomerize)
Aromatize (ID: Aromatize)
Add Explicit Hydrogens (ID: AddExplicitH)
Neutralize (ID: Neutralize)
Clean 2D (ID: Clean2D)

> <knn Distance>
2.2360680103302

> <CpId>
183

$$$$
193
  Mrv1532301301811342D          

116115  0  0  0  0            999 V2000
   20.8461   12.8605    0.0000 C   0  0  0  0  0  0  0  0  0  0  0  0
   21.5605   13.2730    0.0000 C   0  0  0  0  0  0  0  0  0  0  0  0
   22.2750   12.8605    0.0000 C   0  0  0  0  0  0  0  0  0  0  0  0
   22.9895   13.2730    0.0000 C   0  0  0  0  0  0  0  0  0  0  0  0
   23.7039   12.8605    0.0000 C   0  0  0  0  0  0  0  0  0  0  0  0
   24.4184   13.2730    0.0000 C   0  0  0  0  0  0  0  0  0  0  0  0
   25.1329   12.8605    0.0000 C   0  0  0  0  0  0  0  0  0  0  0  0
   25.8474   13.2730    0.0000 C   0  0  0  0  0  0  0  0  0  0  0  0
   26.5618   12.8605    0.0000 C   0  0  0  0  0  0  0  0  0  0  0  0
   27.2763   13.2730    0.0000 C   0  0  0  0  0  0  0  0  0  0  0  0
   27.9908   12.8605    0.0000 C   0  0  0  0  0  0  0  0  0  0  0  0
   28.7052   13.2730    0.0000 C   0  0  0  0  0  0  0  0  0  0  0  0
   29.4197   12.8605    0.0000 C   0  0  0  0  0  0  0  0  0  0  0  0
   30.1342   13.2730    0.0000 C   0  0  0  0  0  0  0  0  0  0  0  0
   30.8487   12.8605    0.0000 C   0  0  0  0  0  0  0  0  0  0  0  0
   31.5631   13.2730    0.0000 C   0  0  0  0  0  0  0  0  0  0  0  0
   32.2776   12.8605    0.0000 C   0  0  0  0  0  0  0  0  0  0  0  0
   32.9921   13.2730    0.0000 C   0  0  0  0  0  0  0  0  0  0  0  0
   32.9921   14.0980    0.0000 O   0  0  0  0  0  0  0  0  0  0  0  0
   33.7065   12.8605    0.0000 O   0  0  0  0  0  0  0  0  0  0  0  0
   34.4210   13.2730    0.0000 C   0  0  0  0  0  0  0  0  0  0  0  0
   35.1355   12.8605    0.0000 C   0  0  0  0  0  0  0  0  0  0  0  0
   35.8500   13.2730    0.0000 O   0  0  0  0  0  0  0  0  0  0  0  0
   36.5644   12.8605    0.0000 C   0  0  0  0  0  0  0  0  0  0  0  0
   36.5644   12.0355    0.0000 O   0  0  0  0  0  0  0  0  0  0  0  0
   37.2789   13.2730    0.0000 C   0  0  0  0  0  0  0  0  0  0  0  0
   37.9934   12.8605    0.0000 C   0  0  0  0  0  0  0  0  0  0  0  0
   38.7078   13.2730    0.0000 C   0  0  0  0  0  0  0  0  0  0  0  0
   39.4223   12.8605    0.0000 C   0  0  0  0  0  0  0  0  0  0  0  0
   40.1368   13.2730    0.0000 C   0  0  0  0  0  0  0  0  0  0  0  0
   40.8512   12.8605    0.0000 C   0  0  0  0  0  0  0  0  0  0  0  0
   41.5657   13.2730    0.0000 C   0  0  0  0  0  0  0  0  0  0  0  0
   42.2802   12.8605    0.0000 C   0  0  0  0  0  0  0  0  0  0  0  0
   42.9947   13.2730    0.0000 C   0  0  0  0  0  0  0  0  0  0  0  0
   43.7091   12.8605    0.0000 C   0  0  0  0  0  0  0  0  0  0  0  0
   44.4236   13.2730    0.0000 C   0  0  0  0  0  0  0  0  0  0  0  0
   45.1381   12.8605    0.0000 C   0  0  0  0  0  0  0  0  0  0  0  0
   45.8525   13.2730    0.0000 C   0  0  0  0  0  0  0  0  0  0  0  0
   46.5670   12.8605    0.0000 C   0  0  0  0  0  0  0  0  0  0  0  0
   47.2815   13.2730    0.0000 C   0  0  0  0  0  0  0  0  0  0  0  0
   47.9960   12.8605    0.0000 C   0  0  0  0  0  0  0  0  0  0  0  0
   48.7104   13.2730    0.0000 C   0  0  0  0  0  0  0  0  0  0  0  0
   20.4336   13.5750    0.0000 H   0  0  0  0  0  0  0  0  0  0  0  0
   20.1316   12.4480    0.0000 H   0  0  0  0  0  0  0  0  0  0  0  0
   21.2586   12.1460    0.0000 H   0  0  0  0  0  0  0  0  0  0  0  0
   21.9308   14.0102    0.0000 H   0  0  0  0  0  0  0  0  0  0  0  0
   21.1903   14.0102    0.0000 H   0  0  0  0  0  0  0  0  0  0  0  0
   21.9047   12.1233    0.0000 H   0  0  0  0  0  0  0  0  0  0  0  0
   22.6453   12.1233    0.0000 H   0  0  0  0  0  0  0  0  0  0  0  0
   23.3597   14.0102    0.0000 H   0  0  0  0  0  0  0  0  0  0  0  0
   22.6192   14.0102    0.0000 H   0  0  0  0  0  0  0  0  0  0  0  0
   23.3337   12.1233    0.0000 H   0  0  0  0  0  0  0  0  0  0  0  0
   24.0742   12.1233    0.0000 H   0  0  0  0  0  0  0  0  0  0  0  0
   24.7887   14.0102    0.0000 H   0  0  0  0  0  0  0  0  0  0  0  0
   24.0482   14.0102    0.0000 H   0  0  0  0  0  0  0  0  0  0  0  0
   24.7626   12.1233    0.0000 H   0  0  0  0  0  0  0  0  0  0  0  0
   25.5031   12.1233    0.0000 H   0  0  0  0  0  0  0  0  0  0  0  0
   26.2176   14.0102    0.0000 H   0  0  0  0  0  0  0  0  0  0  0  0
   25.4771   14.0102    0.0000 H   0  0  0  0  0  0  0  0  0  0  0  0
   26.1916   12.1233    0.0000 H   0  0  0  0  0  0  0  0  0  0  0  0
   26.9321   12.1233    0.0000 H   0  0  0  0  0  0  0  0  0  0  0  0
   27.6466   14.0102    0.0000 H   0  0  0  0  0  0  0  0  0  0  0  0
   26.9060   14.0102    0.0000 H   0  0  0  0  0  0  0  0  0  0  0  0
   27.6205   12.1233    0.0000 H   0  0  0  0  0  0  0  0  0  0  0  0
   28.3610   12.1233    0.0000 H   0  0  0  0  0  0  0  0  0  0  0  0
   29.0755   14.0102    0.0000 H   0  0  0  0  0  0  0  0  0  0  0  0
   28.3350   14.0102    0.0000 H   0  0  0  0  0  0  0  0  0  0  0  0
   29.0495   12.1233    0.0000 H   0  0  0  0  0  0  0  0  0  0  0  0
   29.7900   12.1233    0.0000 H   0  0  0  0  0  0  0  0  0  0  0  0
   30.5044   14.0102    0.0000 H   0  0  0  0  0  0  0  0  0  0  0  0
   29.7639   14.0102    0.0000 H   0  0  0  0  0  0  0  0  0  0  0  0
   30.4784   12.1233    0.0000 H   0  0  0  0  0  0  0  0  0  0  0  0
   31.2189   12.1233    0.0000 H   0  0  0  0  0  0  0  0  0  0  0  0
   31.9334   14.0102    0.0000 H   0  0  0  0  0  0  0  0  0  0  0  0
   31.1929   14.0102    0.0000 H   0  0  0  0  0  0  0  0  0  0  0  0
   31.9073   12.1233    0.0000 H   0  0  0  0  0  0  0  0  0  0  0  0
   32.6479   12.1233    0.0000 H   0  0  0  0  0  0  0  0  0  0  0  0
   34.7913   14.0102    0.0000 H   0  0  0  0  0  0  0  0  0  0  0  0
   34.0507   14.0102    0.0000 H   0  0  0  0  0  0  0  0  0  0  0  0
   34.7652   12.1233    0.0000 H   0  0  0  0  0  0  0  0  0  0  0  0
   35.5057   12.1233    0.0000 H   0  0  0  0  0  0  0  0  0  0  0  0
   37.6492   14.0102    0.0000 H   0  0  0  0  0  0  0  0  0  0  0  0
   36.9086   14.0102    0.0000 H   0  0  0  0  0  0  0  0  0  0  0  0
   37.6231   12.1233    0.0000 H   0  0  0  0  0  0  0  0  0  0  0  0
   38.3636   12.1233    0.0000 H   0  0  0  0  0  0  0  0  0  0  0  0
   39.0781   14.0102    0.0000 H   0  0  0  0  0  0  0  0  0  0  0  0
   38.3376   14.0102    0.0000 H   0  0  0  0  0  0  0  0  0  0  0  0
   39.0520   12.1233    0.0000 H   0  0  0  0  0  0  0  0  0  0  0  0
   39.7926   12.1233    0.0000 H   0  0  0  0  0  0  0  0  0  0  0  0
   40.5070   14.0102    0.0000 H   0  0  0  0  0  0  0  0  0  0  0  0
   39.7665   14.0102    0.0000 H   0  0  0  0  0  0  0  0  0  0  0  0
   40.4810   12.1233    0.0000 H   0  0  0  0  0  0  0  0  0  0  0  0
   41.2215   12.1233    0.0000 H   0  0  0  0  0  0  0  0  0  0  0  0
   41.9360   14.0102    0.0000 H   0  0  0  0  0  0  0  0  0  0  0  0
   41.1955   14.0102    0.0000 H   0  0  0  0  0  0  0  0  0  0  0  0
   41.9099   12.1233    0.0000 H   0  0  0  0  0  0  0  0  0  0  0  0
   42.6504   12.1233    0.0000 H   0  0  0  0  0  0  0  0  0  0  0  0
   43.3649   14.0102    0.0000 H   0  0  0  0  0  0  0  0  0  0  0  0
   42.6244   14.0102    0.0000 H   0  0  0  0  0  0  0  0  0  0  0  0
   43.3389   12.1233    0.0000 H   0  0  0  0  0  0  0  0  0  0  0  0
   44.0794   12.1233    0.0000 H   0  0  0  0  0  0  0  0  0  0  0  0
   44.7939   14.0102    0.0000 H   0  0  0  0  0  0  0  0  0  0  0  0
   44.0533   14.0102    0.0000 H   0  0  0  0  0  0  0  0  0  0  0  0
   44.7678   12.1233    0.0000 H   0  0  0  0  0  0  0  0  0  0  0  0
   45.5083   12.1233    0.0000 H   0  0  0  0  0  0  0  0  0  0  0  0
   46.2228   14.0102    0.0000 H   0  0  0  0  0  0  0  0  0  0  0  0
   45.4823   14.0102    0.0000 H   0  0  0  0  0  0  0  0  0  0  0  0
   46.1968   12.1233    0.0000 H   0  0  0  0  0  0  0  0  0  0  0  0
   46.9373   12.1233    0.0000 H   0  0  0  0  0  0  0  0  0  0  0  0
   47.6517   14.0102    0.0000 H   0  0  0  0  0  0  0  0  0  0  0  0
   46.9112   14.0102    0.0000 H   0  0  0  0  0  0  0  0  0  0  0  0
   47.6257   12.1233    0.0000 H   0  0  0  0  0  0  0  0  0  0  0  0
   48.3662   12.1233    0.0000 H   0  0  0  0  0  0  0  0  0  0  0  0
   49.1229   12.5585    0.0000 H   0  0  0  0  0  0  0  0  0  0  0  0
   49.4249   13.6855    0.0000 H   0  0  0  0  0  0  0  0  0  0  0  0
   48.2979   13.9875    0.0000 H   0  0  0  0  0  0  0  0  0  0  0  0
  1  2  1  0  0  0  0
  2  3  1  0  0  0  0
  3  4  1  0  0  0  0
  4  5  1  0  0  0  0
  5  6  1  0  0  0  0
  6  7  1  0  0  0  0
  7  8  1  0  0  0  0
  8  9  1  0  0  0  0
  9 10  1  0  0  0  0
 10 11  1  0  0  0  0
 11 12  1  0  0  0  0
 12 13  1  0  0  0  0
 13 14  1  0  0  0  0
 14 15  1  0  0  0  0
 15 16  1  0  0  0  0
 16 17  1  0  0  0  0
 17 18  1  0  0  0  0
 18 19  2  0  0  0  0
 18 20  1  0  0  0  0
 20 21  1  0  0  0  0
 21 22  1  0  0  0  0
 22 23  1  0  0  0  0
 23 24  1  0  0  0  0
 24 25  2  0  0  0  0
 24 26  1  0  0  0  0
 26 27  1  0  0  0  0
 27 28  1  0  0  0  0
 28 29  1  0  0  0  0
 29 30  1  0  0  0  0
 30 31  1  0  0  0  0
 31 32  1  0  0  0  0
 32 33  1  0  0  0  0
 33 34  1  0  0  0  0
 34 35  1  0  0  0  0
 35 36  1  0  0  0  0
 36 37  1  0  0  0  0
 37 38  1  0  0  0  0
 38 39  1  0  0  0  0
 39 40  1  0  0  0  0
 40 41  1  0  0  0  0
 41 42  1  0  0  0  0
  1 43  1  0  0  0  0
  1 44  1  0  0  0  0
  1 45  1  0  0  0  0
  2 46  1  0  0  0  0
  2 47  1  0  0  0  0
  3 48  1  0  0  0  0
  3 49  1  0  0  0  0
  4 50  1  0  0  0  0
  4 51  1  0  0  0  0
  5 52  1  0  0  0  0
  5 53  1  0  0  0  0
  6 54  1  0  0  0  0
  6 55  1  0  0  0  0
  7 56  1  0  0  0  0
  7 57  1  0  0  0  0
  8 58  1  0  0  0  0
  8 59  1  0  0  0  0
  9 60  1  0  0  0  0
  9 61  1  0  0  0  0
 10 62  1  0  0  0  0
 10 63  1  0  0  0  0
 11 64  1  0  0  0  0
 11 65  1  0  0  0  0
 12 66  1  0  0  0  0
 12 67  1  0  0  0  0
 13 68  1  0  0  0  0
 13 69  1  0  0  0  0
 14 70  1  0  0  0  0
 14 71  1  0  0  0  0
 15 72  1  0  0  0  0
 15 73  1  0  0  0  0
 16 74  1  0  0  0  0
 16 75  1  0  0  0  0
 17 76  1  0  0  0  0
 17 77  1  0  0  0  0
 21 78  1  0  0  0  0
 21 79  1  0  0  0  0
 22 80  1  0  0  0  0
 22 81  1  0  0  0  0
 26 82  1  0  0  0  0
 26 83  1  0  0  0  0
 27 84  1  0  0  0  0
 27 85  1  0  0  0  0
 28 86  1  0  0  0  0
 28 87  1  0  0  0  0
 29 88  1  0  0  0  0
 29 89  1  0  0  0  0
 30 90  1  0  0  0  0
 30 91  1  0  0  0  0
 31 92  1  0  0  0  0
 31 93  1  0  0  0  0
 32 94  1  0  0  0  0
 32 95  1  0  0  0  0
 33 96  1  0  0  0  0
 33 97  1  0  0  0  0
 34 98  1  0  0  0  0
 34 99  1  0  0  0  0
 35100  1  0  0  0  0
 35101  1  0  0  0  0
 36102  1  0  0  0  0
 36103  1  0  0  0  0
 37104  1  0  0  0  0
 37105  1  0  0  0  0
 38106  1  0  0  0  0
 38107  1  0  0  0  0
 39108  1  0  0  0  0
 39109  1  0  0  0  0
 40110  1  0  0  0  0
 40111  1  0  0  0  0
 41112  1  0  0  0  0
 41113  1  0  0  0  0
 42114  1  0  0  0  0
 42115  1  0  0  0  0
 42116  1  0  0  0  0
M  END
>  <InChIKey>
FPVVYTCTZKCSOJ-UHFFFAOYSA-N

>  <UN GHS>
Non-irritant

>  <CASRN>
627-83-8

> <Outcome>
0

>  <Index>
193

>  <StandardizerResult>
Clear Stereo (ID: ClearStereo)
Wedge Clean (ID: WedgeClean)
Mesomerize (ID: Mesomerize)
Tautomerize (ID: Tautomerize)
Add Explicit Hydrogens (ID: AddExplicitH)
Neutralize (ID: Neutralize)
Clean 2D (ID: Clean2D)

> <knn Distance>
2.2360680103302

> <CpId>
193

$$$$
199
  Mrv1532301301811342D          

 63 62  0  0  0  0            999 V2000
    9.7086    6.4299    0.0000 C   0  0  0  0  0  0  0  0  0  0  0  0
   10.4230    6.8424    0.0000 C   0  0  0  0  0  0  0  0  0  0  0  0
   11.1375    6.4299    0.0000 C   0  0  0  0  0  0  0  0  0  0  0  0
   11.8520    6.8424    0.0000 C   0  0  0  0  0  0  0  0  0  0  0  0
   12.5664    6.4299    0.0000 C   0  0  0  0  0  0  0  0  0  0  0  0
   13.2809    6.8424    0.0000 C   0  0  0  0  0  0  0  0  0  0  0  0
   13.9954    6.4299    0.0000 C   0  0  0  0  0  0  0  0  0  0  0  0
   14.7099    6.8424    0.0000 C   0  0  0  0  0  0  0  0  0  0  0  0
   15.4243    6.4299    0.0000 C   0  0  0  0  0  0  0  0  0  0  0  0
   16.1388    6.8424    0.0000 C   0  0  0  0  0  0  0  0  0  0  0  0
   16.8533    6.4299    0.0000 C   0  0  0  0  0  0  0  0  0  0  0  0
   17.5677    6.8424    0.0000 C   0  0  0  0  0  0  0  0  0  0  0  0
   18.2822    6.4299    0.0000 C   0  0  0  0  0  0  0  0  0  0  0  0
   18.9967    6.8424    0.0000 C   0  0  0  0  0  0  0  0  0  0  0  0
   19.7112    6.4299    0.0000 C   0  0  0  0  0  0  0  0  0  0  0  0
   20.4256    6.8424    0.0000 C   0  0  0  0  0  0  0  0  0  0  0  0
   21.1401    6.4299    0.0000 C   0  0  0  0  0  0  0  0  0  0  0  0
   21.8546    6.8424    0.0000 C   0  0  0  0  0  0  0  0  0  0  0  0
   22.5690    6.4299    0.0000 O   0  0  0  0  0  0  0  0  0  0  0  0
   23.2835    6.8424    0.0000 C   0  0  0  0  0  0  0  0  0  0  0  0
   23.2835    7.6674    0.0000 O   0  0  0  0  0  0  0  0  0  0  0  0
   23.9980    6.4299    0.0000 C   0  0  0  0  0  0  0  0  0  0  0  0
   24.7125    6.8424    0.0000 C   0  0  0  0  0  0  0  0  0  0  0  0
    9.2961    7.1444    0.0000 H   0  0  0  0  0  0  0  0  0  0  0  0
    8.9941    6.0174    0.0000 H   0  0  0  0  0  0  0  0  0  0  0  0
   10.1211    5.7154    0.0000 H   0  0  0  0  0  0  0  0  0  0  0  0
   10.7933    7.5797    0.0000 H   0  0  0  0  0  0  0  0  0  0  0  0
   10.0528    7.5797    0.0000 H   0  0  0  0  0  0  0  0  0  0  0  0
   10.7672    5.6927    0.0000 H   0  0  0  0  0  0  0  0  0  0  0  0
   11.5078    5.6927    0.0000 H   0  0  0  0  0  0  0  0  0  0  0  0
   12.2222    7.5797    0.0000 H   0  0  0  0  0  0  0  0  0  0  0  0
   11.4817    7.5797    0.0000 H   0  0  0  0  0  0  0  0  0  0  0  0
   12.1962    5.6927    0.0000 H   0  0  0  0  0  0  0  0  0  0  0  0
   12.9367    5.6927    0.0000 H   0  0  0  0  0  0  0  0  0  0  0  0
   13.6512    7.5797    0.0000 H   0  0  0  0  0  0  0  0  0  0  0  0
   12.9107    7.5797    0.0000 H   0  0  0  0  0  0  0  0  0  0  0  0
   13.6251    5.6927    0.0000 H   0  0  0  0  0  0  0  0  0  0  0  0
   14.3656    5.6927    0.0000 H   0  0  0  0  0  0  0  0  0  0  0  0
   15.0801    7.5797    0.0000 H   0  0  0  0  0  0  0  0  0  0  0  0
   14.3396    7.5797    0.0000 H   0  0  0  0  0  0  0  0  0  0  0  0
   15.0541    5.6927    0.0000 H   0  0  0  0  0  0  0  0  0  0  0  0
   15.7946    5.6927    0.0000 H   0  0  0  0  0  0  0  0  0  0  0  0
   16.5091    7.5797    0.0000 H   0  0  0  0  0  0  0  0  0  0  0  0
   15.7685    7.5797    0.0000 H   0  0  0  0  0  0  0  0  0  0  0  0
   16.4830    5.6927    0.0000 H   0  0  0  0  0  0  0  0  0  0  0  0
   17.2235    5.6927    0.0000 H   0  0  0  0  0  0  0  0  0  0  0  0
   17.9380    7.5797    0.0000 H   0  0  0  0  0  0  0  0  0  0  0  0
   17.1975    7.5797    0.0000 H   0  0  0  0  0  0  0  0  0  0  0  0
   17.9120    5.6927    0.0000 H   0  0  0  0  0  0  0  0  0  0  0  0
   18.6525    5.6927    0.0000 H   0  0  0  0  0  0  0  0  0  0  0  0
   19.3669    7.5797    0.0000 H   0  0  0  0  0  0  0  0  0  0  0  0
   18.6264    7.5797    0.0000 H   0  0  0  0  0  0  0  0  0  0  0  0
   19.3409    5.6927    0.0000 H   0  0  0  0  0  0  0  0  0  0  0  0
   20.0814    5.6927    0.0000 H   0  0  0  0  0  0  0  0  0  0  0  0
   20.7959    7.5797    0.0000 H   0  0  0  0  0  0  0  0  0  0  0  0
   20.0554    7.5797    0.0000 H   0  0  0  0  0  0  0  0  0  0  0  0
   20.7698    5.6927    0.0000 H   0  0  0  0  0  0  0  0  0  0  0  0
   21.5104    5.6927    0.0000 H   0  0  0  0  0  0  0  0  0  0  0  0
   22.2248    7.5797    0.0000 H   0  0  0  0  0  0  0  0  0  0  0  0
   21.4843    7.5797    0.0000 H   0  0  0  0  0  0  0  0  0  0  0  0
   23.9980    5.6049    0.0000 H   0  0  0  0  0  0  0  0  0  0  0  0
   25.4269    6.4299    0.0000 H   0  0  0  0  0  0  0  0  0  0  0  0
   24.7125    7.6674    0.0000 H   0  0  0  0  0  0  0  0  0  0  0  0
  1  2  1  0  0  0  0
  2  3  1  0  0  0  0
  3  4  1  0  0  0  0
  4  5  1  0  0  0  0
  5  6  1  0  0  0  0
  6  7  1  0  0  0  0
  7  8  1  0  0  0  0
  8  9  1  0  0  0  0
  9 10  1  0  0  0  0
 10 11  1  0  0  0  0
 11 12  1  0  0  0  0
 12 13  1  0  0  0  0
 13 14  1  0  0  0  0
 14 15  1  0  0  0  0
 15 16  1  0  0  0  0
 16 17  1  0  0  0  0
 17 18  1  0  0  0  0
 18 19  1  0  0  0  0
 19 20  1  0  0  0  0
 20 21  2  0  0  0  0
 20 22  1  0  0  0  0
 22 23  2  0  0  0  0
  1 24  1  0  0  0  0
  1 25  1  0  0  0  0
  1 26  1  0  0  0  0
  2 27  1  0  0  0  0
  2 28  1  0  0  0  0
  3 29  1  0  0  0  0
  3 30  1  0  0  0  0
  4 31  1  0  0  0  0
  4 32  1  0  0  0  0
  5 33  1  0  0  0  0
  5 34  1  0  0  0  0
  6 35  1  0  0  0  0
  6 36  1  0  0  0  0
  7 37  1  0  0  0  0
  7 38  1  0  0  0  0
  8 39  1  0  0  0  0
  8 40  1  0  0  0  0
  9 41  1  0  0  0  0
  9 42  1  0  0  0  0
 10 43  1  0  0  0  0
 10 44  1  0  0  0  0
 11 45  1  0  0  0  0
 11 46  1  0  0  0  0
 12 47  1  0  0  0  0
 12 48  1  0  0  0  0
 13 49  1  0  0  0  0
 13 50  1  0  0  0  0
 14 51  1  0  0  0  0
 14 52  1  0  0  0  0
 15 53  1  0  0  0  0
 15 54  1  0  0  0  0
 16 55  1  0  0  0  0
 16 56  1  0  0  0  0
 17 57  1  0  0  0  0
 17 58  1  0  0  0  0
 18 59  1  0  0  0  0
 18 60  1  0  0  0  0
 22 61  1  0  0  0  0
 23 62  1  0  0  0  0
 23 63  1  0  0  0  0
M  END
>  <InChIKey>
FSAJWMJJORKPKS-UHFFFAOYSA-N

>  <UN GHS>
Non-irritant

>  <CASRN>
4813-57-4

> <Outcome>
0

>  <Index>
199

>  <StandardizerResult>
Clear Stereo (ID: ClearStereo)
Wedge Clean (ID: WedgeClean)
Mesomerize (ID: Mesomerize)
Tautomerize (ID: Tautomerize)
Add Explicit Hydrogens (ID: AddExplicitH)
Neutralize (ID: Neutralize)
Clean 2D (ID: Clean2D)

> <knn Distance>
2.2360680103302

> <CpId>
199

$$$$
228
  Mrv1532301301811342D          

 57 56  0  0  0  0            999 V2000
    9.1855    6.1286    0.0000 C   0  0  0  0  0  0  0  0  0  0  0  0
    9.9000    5.7161    0.0000 C   0  0  0  0  0  0  0  0  0  0  0  0
   10.6145    6.1286    0.0000 C   0  0  0  0  0  0  0  0  0  0  0  0
   11.3289    5.7161    0.0000 C   0  0  0  0  0  0  0  0  0  0  0  0
   12.0434    6.1286    0.0000 C   0  0  0  0  0  0  0  0  0  0  0  0
   12.7579    5.7161    0.0000 C   0  0  0  0  0  0  0  0  0  0  0  0
   13.4724    6.1286    0.0000 C   0  0  0  0  0  0  0  0  0  0  0  0
   14.1868    5.7161    0.0000 C   0  0  0  0  0  0  0  0  0  0  0  0
   14.9013    6.1286    0.0000 C   0  0  0  0  0  0  0  0  0  0  0  0
   15.6158    5.7161    0.0000 C   0  0  0  0  0  0  0  0  0  0  0  0
   16.3302    6.1286    0.0000 C   0  0  0  0  0  0  0  0  0  0  0  0
   17.0447    5.7161    0.0000 C   0  0  0  0  0  0  0  0  0  0  0  0
   17.7592    6.1286    0.0000 C   0  0  0  0  0  0  0  0  0  0  0  0
   18.4737    5.7161    0.0000 C   0  0  0  0  0  0  0  0  0  0  0  0
   19.1881    6.1286    0.0000 C   0  0  0  0  0  0  0  0  0  0  0  0
   19.9026    5.7161    0.0000 C   0  0  0  0  0  0  0  0  0  0  0  0
   20.6171    6.1286    0.0000 C   0  0  0  0  0  0  0  0  0  0  0  0
   21.3315    5.7161    0.0000 C   0  0  0  0  0  0  0  0  0  0  0  0
   22.0460    6.1286    0.0000 O   0  0  0  0  0  0  0  0  0  0  0  0
    9.5980    6.8431    0.0000 H   0  0  0  0  0  0  0  0  0  0  0  0
    8.4711    6.5411    0.0000 H   0  0  0  0  0  0  0  0  0  0  0  0
    8.7730    5.4141    0.0000 H   0  0  0  0  0  0  0  0  0  0  0  0
    9.5297    4.9789    0.0000 H   0  0  0  0  0  0  0  0  0  0  0  0
   10.2703    4.9789    0.0000 H   0  0  0  0  0  0  0  0  0  0  0  0
   10.9847    6.8659    0.0000 H   0  0  0  0  0  0  0  0  0  0  0  0
   10.2442    6.8659    0.0000 H   0  0  0  0  0  0  0  0  0  0  0  0
   10.9587    4.9789    0.0000 H   0  0  0  0  0  0  0  0  0  0  0  0
   11.6992    4.9789    0.0000 H   0  0  0  0  0  0  0  0  0  0  0  0
   12.4137    6.8659    0.0000 H   0  0  0  0  0  0  0  0  0  0  0  0
   11.6732    6.8659    0.0000 H   0  0  0  0  0  0  0  0  0  0  0  0
   12.3876    4.9789    0.0000 H   0  0  0  0  0  0  0  0  0  0  0  0
   13.1281    4.9789    0.0000 H   0  0  0  0  0  0  0  0  0  0  0  0
   13.8426    6.8659    0.0000 H   0  0  0  0  0  0  0  0  0  0  0  0
   13.1021    6.8659    0.0000 H   0  0  0  0  0  0  0  0  0  0  0  0
   13.8166    4.9789    0.0000 H   0  0  0  0  0  0  0  0  0  0  0  0
   14.5571    4.9789    0.0000 H   0  0  0  0  0  0  0  0  0  0  0  0
   15.2716    6.8659    0.0000 H   0  0  0  0  0  0  0  0  0  0  0  0
   14.5310    6.8659    0.0000 H   0  0  0  0  0  0  0  0  0  0  0  0
   15.2455    4.9789    0.0000 H   0  0  0  0  0  0  0  0  0  0  0  0
   15.9860    4.9789    0.0000 H   0  0  0  0  0  0  0  0  0  0  0  0
   16.7005    6.8659    0.0000 H   0  0  0  0  0  0  0  0  0  0  0  0
   15.9600    6.8659    0.0000 H   0  0  0  0  0  0  0  0  0  0  0  0
   16.6745    4.9789    0.0000 H   0  0  0  0  0  0  0  0  0  0  0  0
   17.4150    4.9789    0.0000 H   0  0  0  0  0  0  0  0  0  0  0  0
   18.1294    6.8659    0.0000 H   0  0  0  0  0  0  0  0  0  0  0  0
   17.3889    6.8659    0.0000 H   0  0  0  0  0  0  0  0  0  0  0  0
   18.1034    4.9789    0.0000 H   0  0  0  0  0  0  0  0  0  0  0  0
   18.8439    4.9789    0.0000 H   0  0  0  0  0  0  0  0  0  0  0  0
   19.5584    6.8659    0.0000 H   0  0  0  0  0  0  0  0  0  0  0  0
   18.8179    6.8659    0.0000 H   0  0  0  0  0  0  0  0  0  0  0  0
   19.5323    4.9789    0.0000 H   0  0  0  0  0  0  0  0  0  0  0  0
   20.2729    4.9789    0.0000 H   0  0  0  0  0  0  0  0  0  0  0  0
   20.9873    6.8659    0.0000 H   0  0  0  0  0  0  0  0  0  0  0  0
   20.2468    6.8659    0.0000 H   0  0  0  0  0  0  0  0  0  0  0  0
   20.9613    4.9789    0.0000 H   0  0  0  0  0  0  0  0  0  0  0  0
   21.7018    4.9789    0.0000 H   0  0  0  0  0  0  0  0  0  0  0  0
   22.7605    5.7161    0.0000 H   0  0  0  0  0  0  0  0  0  0  0  0
  1  2  1  0  0  0  0
  2  3  1  0  0  0  0
  3  4  1  0  0  0  0
  4  5  1  0  0  0  0
  5  6  1  0  0  0  0
  6  7  1  0  0  0  0
  7  8  1  0  0  0  0
  8  9  1  0  0  0  0
  9 10  1  0  0  0  0
 10 11  1  0  0  0  0
 11 12  1  0  0  0  0
 12 13  1  0  0  0  0
 13 14  1  0  0  0  0
 14 15  1  0  0  0  0
 15 16  1  0  0  0  0
 16 17  1  0  0  0  0
 17 18  1  0  0  0  0
 18 19  1  0  0  0  0
  1 20  1  0  0  0  0
  1 21  1  0  0  0  0
  1 22  1  0  0  0  0
  2 23  1  0  0  0  0
  2 24  1  0  0  0  0
  3 25  1  0  0  0  0
  3 26  1  0  0  0  0
  4 27  1  0  0  0  0
  4 28  1  0  0  0  0
  5 29  1  0  0  0  0
  5 30  1  0  0  0  0
  6 31  1  0  0  0  0
  6 32  1  0  0  0  0
  7 33  1  0  0  0  0
  7 34  1  0  0  0  0
  8 35  1  0  0  0  0
  8 36  1  0  0  0  0
  9 37  1  0  0  0  0
  9 38  1  0  0  0  0
 10 39  1  0  0  0  0
 10 40  1  0  0  0  0
 11 41  1  0  0  0  0
 11 42  1  0  0  0  0
 12 43  1  0  0  0  0
 12 44  1  0  0  0  0
 13 45  1  0  0  0  0
 13 46  1  0  0  0  0
 14 47  1  0  0  0  0
 14 48  1  0  0  0  0
 15 49  1  0  0  0  0
 15 50  1  0  0  0  0
 16 51  1  0  0  0  0
 16 52  1  0  0  0  0
 17 53  1  0  0  0  0
 17 54  1  0  0  0  0
 18 55  1  0  0  0  0
 18 56  1  0  0  0  0
 19 57  1  0  0  0  0
M  END
>  <InChIKey>
GLDOVTGHNKAZLK-UHFFFAOYSA-N

>  <UN GHS>
Non-irritant

>  <CASRN>
112-92-5

> <Outcome>
0

>  <Index>
228

>  <StandardizerResult>
Clear Stereo (ID: ClearStereo)
Wedge Clean (ID: WedgeClean)
Mesomerize (ID: Mesomerize)
Tautomerize (ID: Tautomerize)
Add Explicit Hydrogens (ID: AddExplicitH)
Neutralize (ID: Neutralize)
Clean 2D (ID: Clean2D)

> <knn Distance>
2.2360680103302

> <CpId>
228

$$$$
253
  Mrv1532301301811342D          

 56 55  0  0  0  0            999 V2000
    8.4711    5.7158    0.0000 C   0  0  0  0  0  0  0  0  0  0  0  0
    9.1855    6.1283    0.0000 C   0  0  0  0  0  0  0  0  0  0  0  0
    9.9000    5.7158    0.0000 C   0  0  0  0  0  0  0  0  0  0  0  0
   10.6145    6.1283    0.0000 C   0  0  0  0  0  0  0  0  0  0  0  0
   11.3289    5.7158    0.0000 C   0  0  0  0  0  0  0  0  0  0  0  0
   12.0434    6.1283    0.0000 C   0  0  0  0  0  0  0  0  0  0  0  0
   12.7579    5.7158    0.0000 O   0  0  0  0  0  0  0  0  0  0  0  0
   13.4724    6.1283    0.0000 C   0  0  0  0  0  0  0  0  0  0  0  0
   13.4724    6.9533    0.0000 O   0  0  0  0  0  0  0  0  0  0  0  0
   14.1868    5.7158    0.0000 C   0  0  0  0  0  0  0  0  0  0  0  0
   14.9013    6.1283    0.0000 C   0  0  0  0  0  0  0  0  0  0  0  0
   15.6158    5.7158    0.0000 C   0  0  0  0  0  0  0  0  0  0  0  0
   16.3302    6.1283    0.0000 C   0  0  0  0  0  0  0  0  0  0  0  0
   17.0447    5.7158    0.0000 C   0  0  0  0  0  0  0  0  0  0  0  0
   17.0447    4.8908    0.0000 O   0  0  0  0  0  0  0  0  0  0  0  0
   17.7592    6.1283    0.0000 O   0  0  0  0  0  0  0  0  0  0  0  0
   18.4737    5.7158    0.0000 C   0  0  0  0  0  0  0  0  0  0  0  0
   19.1881    6.1283    0.0000 C   0  0  0  0  0  0  0  0  0  0  0  0
   19.9026    5.7158    0.0000 C   0  0  0  0  0  0  0  0  0  0  0  0
   20.6171    6.1283    0.0000 C   0  0  0  0  0  0  0  0  0  0  0  0
   21.3315    5.7158    0.0000 C   0  0  0  0  0  0  0  0  0  0  0  0
   22.0460    6.1283    0.0000 C   0  0  0  0  0  0  0  0  0  0  0  0
    8.0586    6.4303    0.0000 H   0  0  0  0  0  0  0  0  0  0  0  0
    7.7566    5.3033    0.0000 H   0  0  0  0  0  0  0  0  0  0  0  0
    8.8836    5.0013    0.0000 H   0  0  0  0  0  0  0  0  0  0  0  0
    9.5558    6.8655    0.0000 H   0  0  0  0  0  0  0  0  0  0  0  0
    8.8153    6.8655    0.0000 H   0  0  0  0  0  0  0  0  0  0  0  0
    9.5297    4.9786    0.0000 H   0  0  0  0  0  0  0  0  0  0  0  0
   10.2703    4.9786    0.0000 H   0  0  0  0  0  0  0  0  0  0  0  0
   10.9847    6.8655    0.0000 H   0  0  0  0  0  0  0  0  0  0  0  0
   10.2442    6.8655    0.0000 H   0  0  0  0  0  0  0  0  0  0  0  0
   10.9587    4.9786    0.0000 H   0  0  0  0  0  0  0  0  0  0  0  0
   11.6992    4.9786    0.0000 H   0  0  0  0  0  0  0  0  0  0  0  0
   12.4137    6.8655    0.0000 H   0  0  0  0  0  0  0  0  0  0  0  0
   11.6732    6.8655    0.0000 H   0  0  0  0  0  0  0  0  0  0  0  0
   13.8166    4.9786    0.0000 H   0  0  0  0  0  0  0  0  0  0  0  0
   14.5571    4.9786    0.0000 H   0  0  0  0  0  0  0  0  0  0  0  0
   15.2716    6.8655    0.0000 H   0  0  0  0  0  0  0  0  0  0  0  0
   14.5310    6.8655    0.0000 H   0  0  0  0  0  0  0  0  0  0  0  0
   15.2455    4.9786    0.0000 H   0  0  0  0  0  0  0  0  0  0  0  0
   15.9860    4.9786    0.0000 H   0  0  0  0  0  0  0  0  0  0  0  0
   16.7005    6.8655    0.0000 H   0  0  0  0  0  0  0  0  0  0  0  0
   15.9600    6.8655    0.0000 H   0  0  0  0  0  0  0  0  0  0  0  0
   18.1034    4.9786    0.0000 H   0  0  0  0  0  0  0  0  0  0  0  0
   18.8439    4.9786    0.0000 H   0  0  0  0  0  0  0  0  0  0  0  0
   19.5584    6.8655    0.0000 H   0  0  0  0  0  0  0  0  0  0  0  0
   18.8179    6.8655    0.0000 H   0  0  0  0  0  0  0  0  0  0  0  0
   19.5323    4.9786    0.0000 H   0  0  0  0  0  0  0  0  0  0  0  0
   20.2729    4.9786    0.0000 H   0  0  0  0  0  0  0  0  0  0  0  0
   20.9873    6.8655    0.0000 H   0  0  0  0  0  0  0  0  0  0  0  0
   20.2468    6.8655    0.0000 H   0  0  0  0  0  0  0  0  0  0  0  0
   20.9613    4.9786    0.0000 H   0  0  0  0  0  0  0  0  0  0  0  0
   21.7018    4.9786    0.0000 H   0  0  0  0  0  0  0  0  0  0  0  0
   22.4585    5.4138    0.0000 H   0  0  0  0  0  0  0  0  0  0  0  0
   22.7605    6.5408    0.0000 H   0  0  0  0  0  0  0  0  0  0  0  0
   21.6335    6.8428    0.0000 H   0  0  0  0  0  0  0  0  0  0  0  0
  1  2  1  0  0  0  0
  2  3  1  0  0  0  0
  3  4  1  0  0  0  0
  4  5  1  0  0  0  0
  5  6  1  0  0  0  0
  6  7  1  0  0  0  0
  7  8  1  0  0  0  0
  8  9  2  0  0  0  0
  8 10  1  0  0  0  0
 10 11  1  0  0  0  0
 11 12  1  0  0  0  0
 12 13  1  0  0  0  0
 13 14  1  0  0  0  0
 14 15  2  0  0  0  0
 14 16  1  0  0  0  0
 16 17  1  0  0  0  0
 17 18  1  0  0  0  0
 18 19  1  0  0  0  0
 19 20  1  0  0  0  0
 20 21  1  0  0  0  0
 21 22  1  0  0  0  0
  1 23  1  0  0  0  0
  1 24  1  0  0  0  0
  1 25  1  0  0  0  0
  2 26  1  0  0  0  0
  2 27  1  0  0  0  0
  3 28  1  0  0  0  0
  3 29  1  0  0  0  0
  4 30  1  0  0  0  0
  4 31  1  0  0  0  0
  5 32  1  0  0  0  0
  5 33  1  0  0  0  0
  6 34  1  0  0  0  0
  6 35  1  0  0  0  0
 10 36  1  0  0  0  0
 10 37  1  0  0  0  0
 11 38  1  0  0  0  0
 11 39  1  0  0  0  0
 12 40  1  0  0  0  0
 12 41  1  0  0  0  0
 13 42  1  0  0  0  0
 13 43  1  0  0  0  0
 17 44  1  0  0  0  0
 17 45  1  0  0  0  0
 18 46  1  0  0  0  0
 18 47  1  0  0  0  0
 19 48  1  0  0  0  0
 19 49  1  0  0  0  0
 20 50  1  0  0  0  0
 20 51  1  0  0  0  0
 21 52  1  0  0  0  0
 21 53  1  0  0  0  0
 22 54  1  0  0  0  0
 22 55  1  0  0  0  0
 22 56  1  0  0  0  0
M  END
>  <InChIKey>
HHECSPXBQJHZAF-UHFFFAOYSA-N

>  <UN GHS>
Non-irritant

>  <CASRN>
110-33-8

> <Outcome>
0

>  <Index>
253

>  <StandardizerResult>
Clear Stereo (ID: ClearStereo)
Wedge Clean (ID: WedgeClean)
Mesomerize (ID: Mesomerize)
Tautomerize (ID: Tautomerize)
Add Explicit Hydrogens (ID: AddExplicitH)
Neutralize (ID: Neutralize)
Clean 2D (ID: Clean2D)

> <knn Distance>
2.2360680103302

> <CpId>
253

$$$$
310
  Mrv1532301301811342D          

 14 13  0  0  0  0            999 V2000
    1.2670    0.7529    0.0000 C   0  0  0  0  0  0  0  0  0  0  0  0
    0.8545    0.0384    0.0000 C   0  0  0  0  0  0  0  0  0  0  0  0
    1.2670   -0.6761    0.0000 C   0  0  0  0  0  0  0  0  0  0  0  0
    0.0295    0.0384    0.0000 C   0  0  0  0  0  0  0  0  0  0  0  0
    1.9814    0.3404    0.0000 H   0  0  0  0  0  0  0  0  0  0  0  0
    1.6795    1.4673    0.0000 H   0  0  0  0  0  0  0  0  0  0  0  0
    0.5525    1.1654    0.0000 H   0  0  0  0  0  0  0  0  0  0  0  0
    1.6795    0.0384    0.0000 H   0  0  0  0  0  0  0  0  0  0  0  0
    0.4701   -0.8896    0.0000 H   0  0  0  0  0  0  0  0  0  0  0  0
    1.2670   -1.5011    0.0000 H   0  0  0  0  0  0  0  0  0  0  0  0
    2.0639   -0.8896    0.0000 H   0  0  0  0  0  0  0  0  0  0  0  0
    0.0295    0.8634    0.0000 H   0  0  0  0  0  0  0  0  0  0  0  0
   -0.7955    0.0384    0.0000 H   0  0  0  0  0  0  0  0  0  0  0  0
    0.0295   -0.7866    0.0000 H   0  0  0  0  0  0  0  0  0  0  0  0
  1  2  1  0  0  0  0
  2  3  1  0  0  0  0
  2  4  1  0  0  0  0
  1  5  1  0  0  0  0
  1  6  1  0  0  0  0
  1  7  1  0  0  0  0
  2  8  1  0  0  0  0
  3  9  1  0  0  0  0
  3 10  1  0  0  0  0
  3 11  1  0  0  0  0
  4 12  1  0  0  0  0
  4 13  1  0  0  0  0
  4 14  1  0  0  0  0
M  END
>  <InChIKey>
IIVWHGMLFGNMOW-UHFFFAOYSA-N

>  <UN GHS>
Non-irritant

>  <CASRN>
7756-94-7

> <Outcome>
0

>  <Index>
310

>  <StandardizerResult>
Clear Stereo (ID: ClearStereo)
Wedge Clean (ID: WedgeClean)
Mesomerize (ID: Mesomerize)
Tautomerize (ID: Tautomerize)
Add Explicit Hydrogens (ID: AddExplicitH)
Neutralize (ID: Neutralize)
Clean 2D (ID: Clean2D)

> <knn Distance>
2.2360680103302

> <CpId>
310

$$$$
448
  Mrv1532301301811342D          

 39 38  0  0  0  0            999 V2000
    5.4730    3.9854    0.0000 C   0  0  0  0  0  0  0  0  0  0  0  0
    6.1875    3.5729    0.0000 C   0  0  0  0  0  0  0  0  0  0  0  0
    6.9020    3.9854    0.0000 C   0  0  0  0  0  0  0  0  0  0  0  0
    7.6164    3.5729    0.0000 C   0  0  0  0  0  0  0  0  0  0  0  0
    8.3309    3.9854    0.0000 C   0  0  0  0  0  0  0  0  0  0  0  0
    9.0454    3.5729    0.0000 C   0  0  0  0  0  0  0  0  0  0  0  0
    9.7599    3.9854    0.0000 C   0  0  0  0  0  0  0  0  0  0  0  0
   10.4743    3.5729    0.0000 C   0  0  0  0  0  0  0  0  0  0  0  0
   11.1888    3.9854    0.0000 C   0  0  0  0  0  0  0  0  0  0  0  0
   11.9033    3.5729    0.0000 C   0  0  0  0  0  0  0  0  0  0  0  0
   12.6177    3.9854    0.0000 C   0  0  0  0  0  0  0  0  0  0  0  0
   13.3322    3.5729    0.0000 C   0  0  0  0  0  0  0  0  0  0  0  0
   14.0467    3.9854    0.0000 O   0  0  0  0  0  0  0  0  0  0  0  0
    5.8855    4.6998    0.0000 H   0  0  0  0  0  0  0  0  0  0  0  0
    4.7586    4.3979    0.0000 H   0  0  0  0  0  0  0  0  0  0  0  0
    5.0605    3.2709    0.0000 H   0  0  0  0  0  0  0  0  0  0  0  0
    5.8172    2.8356    0.0000 H   0  0  0  0  0  0  0  0  0  0  0  0
    6.5578    2.8356    0.0000 H   0  0  0  0  0  0  0  0  0  0  0  0
    7.2722    4.7226    0.0000 H   0  0  0  0  0  0  0  0  0  0  0  0
    6.5317    4.7226    0.0000 H   0  0  0  0  0  0  0  0  0  0  0  0
    7.2462    2.8356    0.0000 H   0  0  0  0  0  0  0  0  0  0  0  0
    7.9867    2.8356    0.0000 H   0  0  0  0  0  0  0  0  0  0  0  0
    8.7012    4.7226    0.0000 H   0  0  0  0  0  0  0  0  0  0  0  0
    7.9607    4.7226    0.0000 H   0  0  0  0  0  0  0  0  0  0  0  0
    8.6751    2.8356    0.0000 H   0  0  0  0  0  0  0  0  0  0  0  0
    9.4156    2.8356    0.0000 H   0  0  0  0  0  0  0  0  0  0  0  0
   10.1301    4.7226    0.0000 H   0  0  0  0  0  0  0  0  0  0  0  0
    9.3896    4.7226    0.0000 H   0  0  0  0  0  0  0  0  0  0  0  0
   10.1041    2.8356    0.0000 H   0  0  0  0  0  0  0  0  0  0  0  0
   10.8446    2.8356    0.0000 H   0  0  0  0  0  0  0  0  0  0  0  0
   11.5591    4.7226    0.0000 H   0  0  0  0  0  0  0  0  0  0  0  0
   10.8185    4.7226    0.0000 H   0  0  0  0  0  0  0  0  0  0  0  0
   11.5330    2.8356    0.0000 H   0  0  0  0  0  0  0  0  0  0  0  0
   12.2735    2.8356    0.0000 H   0  0  0  0  0  0  0  0  0  0  0  0
   12.9880    4.7226    0.0000 H   0  0  0  0  0  0  0  0  0  0  0  0
   12.2475    4.7226    0.0000 H   0  0  0  0  0  0  0  0  0  0  0  0
   12.9619    2.8356    0.0000 H   0  0  0  0  0  0  0  0  0  0  0  0
   13.7025    2.8356    0.0000 H   0  0  0  0  0  0  0  0  0  0  0  0
   14.7611    3.5729    0.0000 H   0  0  0  0  0  0  0  0  0  0  0  0
  1  2  1  0  0  0  0
  2  3  1  0  0  0  0
  3  4  1  0  0  0  0
  4  5  1  0  0  0  0
  5  6  1  0  0  0  0
  6  7  1  0  0  0  0
  7  8  1  0  0  0  0
  8  9  1  0  0  0  0
  9 10  1  0  0  0  0
 10 11  1  0  0  0  0
 11 12  1  0  0  0  0
 12 13  1  0  0  0  0
  1 14  1  0  0  0  0
  1 15  1  0  0  0  0
  1 16  1  0  0  0  0
  2 17  1  0  0  0  0
  2 18  1  0  0  0  0
  3 19  1  0  0  0  0
  3 20  1  0  0  0  0
  4 21  1  0  0  0  0
  4 22  1  0  0  0  0
  5 23  1  0  0  0  0
  5 24  1  0  0  0  0
  6 25  1  0  0  0  0
  6 26  1  0  0  0  0
  7 27  1  0  0  0  0
  7 28  1  0  0  0  0
  8 29  1  0  0  0  0
  8 30  1  0  0  0  0
  9 31  1  0  0  0  0
  9 32  1  0  0  0  0
 10 33  1  0  0  0  0
 10 34  1  0  0  0  0
 11 35  1  0  0  0  0
 11 36  1  0  0  0  0
 12 37  1  0  0  0  0
 12 38  1  0  0  0  0
 13 39  1  0  0  0  0
M  END
>  <InChIKey>
LQZZUXJYWNFBMV-UHFFFAOYSA-N

>  <UN GHS>
Non-irritant

>  <CASRN>
112-53-8

> <Outcome>
0

>  <Index>
448

>  <StandardizerResult>
Clear Stereo (ID: ClearStereo)
Wedge Clean (ID: WedgeClean)
Mesomerize (ID: Mesomerize)
Tautomerize (ID: Tautomerize)
Add Explicit Hydrogens (ID: AddExplicitH)
Neutralize (ID: Neutralize)
Clean 2D (ID: Clean2D)

> <knn Distance>
2.2360680103302

> <CpId>
448

$$$$
458
  Mrv1532301301811342D          

 62 61  0  0  0  0            999 V2000
    9.1541    6.1405    0.0000 C   0  0  0  0  0  0  0  0  0  0  0  0
    9.8686    5.7280    0.0000 C   0  0  0  0  0  0  0  0  0  0  0  0
   10.5831    6.1405    0.0000 C   0  0  0  0  0  0  0  0  0  0  0  0
   11.2975    5.7280    0.0000 C   0  0  0  0  0  0  0  0  0  0  0  0
   12.0120    6.1405    0.0000 C   0  0  0  0  0  0  0  0  0  0  0  0
   12.7265    5.7280    0.0000 C   0  0  0  0  0  0  0  0  0  0  0  0
   13.4409    6.1405    0.0000 C   0  0  0  0  0  0  0  0  0  0  0  0
   14.1554    5.7280    0.0000 C   0  0  0  0  0  0  0  0  0  0  0  0
   14.8699    6.1405    0.0000 C   0  0  0  0  0  0  0  0  0  0  0  0
   15.5844    5.7280    0.0000 C   0  0  0  0  0  0  0  0  0  0  0  0
   16.2988    6.1405    0.0000 C   0  0  0  0  0  0  0  0  0  0  0  0
   17.0133    5.7280    0.0000 C   0  0  0  0  0  0  0  0  0  0  0  0
   17.0133    4.9030    0.0000 O   0  0  0  0  0  0  0  0  0  0  0  0
   17.7278    6.1405    0.0000 O   0  0  0  0  0  0  0  0  0  0  0  0
   18.4422    5.7280    0.0000 C   0  0  0  0  0  0  0  0  0  0  0  0
   19.1567    6.1405    0.0000 C   0  0  0  0  0  0  0  0  0  0  0  0
   19.1567    6.9655    0.0000 C   0  0  0  0  0  0  0  0  0  0  0  0
   19.8712    7.3780    0.0000 C   0  0  0  0  0  0  0  0  0  0  0  0
   19.8712    5.7280    0.0000 C   0  0  0  0  0  0  0  0  0  0  0  0
   20.5857    6.1405    0.0000 C   0  0  0  0  0  0  0  0  0  0  0  0
   21.3001    5.7280    0.0000 C   0  0  0  0  0  0  0  0  0  0  0  0
   22.0146    6.1405    0.0000 C   0  0  0  0  0  0  0  0  0  0  0  0
    9.5666    6.8549    0.0000 H   0  0  0  0  0  0  0  0  0  0  0  0
    8.4396    6.5530    0.0000 H   0  0  0  0  0  0  0  0  0  0  0  0
    8.7416    5.4260    0.0000 H   0  0  0  0  0  0  0  0  0  0  0  0
    9.4983    4.9907    0.0000 H   0  0  0  0  0  0  0  0  0  0  0  0
   10.2388    4.9907    0.0000 H   0  0  0  0  0  0  0  0  0  0  0  0
   10.9533    6.8777    0.0000 H   0  0  0  0  0  0  0  0  0  0  0  0
   10.2128    6.8777    0.0000 H   0  0  0  0  0  0  0  0  0  0  0  0
   10.9273    4.9907    0.0000 H   0  0  0  0  0  0  0  0  0  0  0  0
   11.6678    4.9907    0.0000 H   0  0  0  0  0  0  0  0  0  0  0  0
   12.3823    6.8777    0.0000 H   0  0  0  0  0  0  0  0  0  0  0  0
   11.6417    6.8777    0.0000 H   0  0  0  0  0  0  0  0  0  0  0  0
   12.3562    4.9907    0.0000 H   0  0  0  0  0  0  0  0  0  0  0  0
   13.0967    4.9907    0.0000 H   0  0  0  0  0  0  0  0  0  0  0  0
   13.8112    6.8777    0.0000 H   0  0  0  0  0  0  0  0  0  0  0  0
   13.0707    6.8777    0.0000 H   0  0  0  0  0  0  0  0  0  0  0  0
   13.7852    4.9907    0.0000 H   0  0  0  0  0  0  0  0  0  0  0  0
   14.5257    4.9907    0.0000 H   0  0  0  0  0  0  0  0  0  0  0  0
   15.2401    6.8777    0.0000 H   0  0  0  0  0  0  0  0  0  0  0  0
   14.4996    6.8777    0.0000 H   0  0  0  0  0  0  0  0  0  0  0  0
   15.2141    4.9907    0.0000 H   0  0  0  0  0  0  0  0  0  0  0  0
   15.9546    4.9907    0.0000 H   0  0  0  0  0  0  0  0  0  0  0  0
   16.6691    6.8777    0.0000 H   0  0  0  0  0  0  0  0  0  0  0  0
   15.9286    6.8777    0.0000 H   0  0  0  0  0  0  0  0  0  0  0  0
   18.0720    4.9907    0.0000 H   0  0  0  0  0  0  0  0  0  0  0  0
   18.8125    4.9907    0.0000 H   0  0  0  0  0  0  0  0  0  0  0  0
   18.4422    6.5530    0.0000 H   0  0  0  0  0  0  0  0  0  0  0  0
   19.0135    7.7779    0.0000 H   0  0  0  0  0  0  0  0  0  0  0  0
   18.5247    7.4958    0.0000 H   0  0  0  0  0  0  0  0  0  0  0  0
   20.1020    6.5859    0.0000 H   0  0  0  0  0  0  0  0  0  0  0  0
   20.6954    7.4139    0.0000 H   0  0  0  0  0  0  0  0  0  0  0  0
   20.0321    8.1871    0.0000 H   0  0  0  0  0  0  0  0  0  0  0  0
   19.5009    4.9907    0.0000 H   0  0  0  0  0  0  0  0  0  0  0  0
   20.2414    4.9907    0.0000 H   0  0  0  0  0  0  0  0  0  0  0  0
   21.0743    6.8051    0.0000 H   0  0  0  0  0  0  0  0  0  0  0  0
   20.5857    5.3155    0.0000 H   0  0  0  0  0  0  0  0  0  0  0  0
   21.4434    4.9155    0.0000 H   0  0  0  0  0  0  0  0  0  0  0  0
   21.9321    5.1977    0.0000 H   0  0  0  0  0  0  0  0  0  0  0  0
   22.7958    5.8753    0.0000 H   0  0  0  0  0  0  0  0  0  0  0  0
   22.4579    6.8362    0.0000 H   0  0  0  0  0  0  0  0  0  0  0  0
   21.4441    6.7364    0.0000 H   0  0  0  0  0  0  0  0  0  0  0  0
  1  2  1  0  0  0  0
  2  3  1  0  0  0  0
  3  4  1  0  0  0  0
  4  5  1  0  0  0  0
  5  6  1  0  0  0  0
  6  7  1  0  0  0  0
  7  8  1  0  0  0  0
  8  9  1  0  0  0  0
  9 10  1  0  0  0  0
 10 11  1  0  0  0  0
 11 12  1  0  0  0  0
 12 13  2  0  0  0  0
 12 14  1  0  0  0  0
 14 15  1  0  0  0  0
 15 16  1  0  0  0  0
 16 17  1  0  0  0  0
 17 18  1  0  0  0  0
 16 19  1  0  0  0  0
 19 20  1  0  0  0  0
 20 21  1  0  0  0  0
 21 22  1  0  0  0  0
  1 23  1  0  0  0  0
  1 24  1  0  0  0  0
  1 25  1  0  0  0  0
  2 26  1  0  0  0  0
  2 27  1  0  0  0  0
  3 28  1  0  0  0  0
  3 29  1  0  0  0  0
  4 30  1  0  0  0  0
  4 31  1  0  0  0  0
  5 32  1  0  0  0  0
  5 33  1  0  0  0  0
  6 34  1  0  0  0  0
  6 35  1  0  0  0  0
  7 36  1  0  0  0  0
  7 37  1  0  0  0  0
  8 38  1  0  0  0  0
  8 39  1  0  0  0  0
  9 40  1  0  0  0  0
  9 41  1  0  0  0  0
 10 42  1  0  0  0  0
 10 43  1  0  0  0  0
 11 44  1  0  0  0  0
 11 45  1  0  0  0  0
 15 46  1  0  0  0  0
 15 47  1  0  0  0  0
 16 48  1  0  0  0  0
 17 49  1  0  0  0  0
 17 50  1  0  0  0  0
 18 51  1  0  0  0  0
 18 52  1  0  0  0  0
 18 53  1  0  0  0  0
 19 54  1  0  0  0  0
 19 55  1  0  0  0  0
 20 56  1  0  0  0  0
 20 57  1  0  0  0  0
 21 58  1  0  0  0  0
 21 59  1  0  0  0  0
 22 60  1  0  0  0  0
 22 61  1  0  0  0  0
 22 62  1  0  0  0  0
M  END
>  <InChIKey>
LWLRMRFJCCMNML-UHFFFAOYSA-N

>  <UN GHS>
Non-irritant

>  <CASRN>
20292-08-4

> <Outcome>
0

>  <Index>
458

>  <StandardizerResult>
Clear Stereo (ID: ClearStereo)
Wedge Clean (ID: WedgeClean)
Mesomerize (ID: Mesomerize)
Tautomerize (ID: Tautomerize)
Add Explicit Hydrogens (ID: AddExplicitH)
Neutralize (ID: Neutralize)
Clean 2D (ID: Clean2D)

> <knn Distance>
2.2360680103302

> <CpId>
458

$$$$
463
  Mrv1532301301811342D          

 98 97  0  0  0  0            999 V2000
   17.1336   10.7171    0.0000 C   0  0  0  0  0  0  0  0  0  0  0  0
   17.8480   11.1296    0.0000 C   0  0  0  0  0  0  0  0  0  0  0  0
   18.5625   10.7171    0.0000 C   0  0  0  0  0  0  0  0  0  0  0  0
   19.2770   11.1296    0.0000 C   0  0  0  0  0  0  0  0  0  0  0  0
   19.9914   10.7171    0.0000 C   0  0  0  0  0  0  0  0  0  0  0  0
   20.7059   11.1296    0.0000 C   0  0  0  0  0  0  0  0  0  0  0  0
   21.4204   10.7171    0.0000 C   0  0  0  0  0  0  0  0  0  0  0  0
   22.1349   11.1296    0.0000 C   0  0  0  0  0  0  0  0  0  0  0  0
   22.8493   10.7171    0.0000 C   0  0  0  0  0  0  0  0  0  0  0  0
   23.5638   11.1296    0.0000 C   0  0  0  0  0  0  0  0  0  0  0  0
   24.2783   10.7171    0.0000 C   0  0  0  0  0  0  0  0  0  0  0  0
   24.9927   11.1296    0.0000 C   0  0  0  0  0  0  0  0  0  0  0  0
   25.7072   10.7171    0.0000 C   0  0  0  0  0  0  0  0  0  0  0  0
   26.4217   11.1296    0.0000 O   0  0  0  0  0  0  0  0  0  0  0  0
   27.1362   10.7171    0.0000 C   0  0  0  0  0  0  0  0  0  0  0  0
   27.1362    9.8921    0.0000 O   0  0  0  0  0  0  0  0  0  0  0  0
   27.8506   11.1296    0.0000 C   0  0  0  0  0  0  0  0  0  0  0  0
   28.5651   10.7171    0.0000 C   0  0  0  0  0  0  0  0  0  0  0  0
   29.2796   11.1296    0.0000 C   0  0  0  0  0  0  0  0  0  0  0  0
   29.9940   10.7171    0.0000 C   0  0  0  0  0  0  0  0  0  0  0  0
   30.7085   11.1296    0.0000 C   0  0  0  0  0  0  0  0  0  0  0  0
   30.7085   11.9546    0.0000 O   0  0  0  0  0  0  0  0  0  0  0  0
   31.4230   10.7171    0.0000 O   0  0  0  0  0  0  0  0  0  0  0  0
   32.1374   11.1296    0.0000 C   0  0  0  0  0  0  0  0  0  0  0  0
   32.8519   10.7171    0.0000 C   0  0  0  0  0  0  0  0  0  0  0  0
   33.5664   11.1296    0.0000 C   0  0  0  0  0  0  0  0  0  0  0  0
   34.2809   10.7171    0.0000 C   0  0  0  0  0  0  0  0  0  0  0  0
   34.9953   11.1296    0.0000 C   0  0  0  0  0  0  0  0  0  0  0  0
   35.7098   10.7171    0.0000 C   0  0  0  0  0  0  0  0  0  0  0  0
   36.4243   11.1296    0.0000 C   0  0  0  0  0  0  0  0  0  0  0  0
   37.1387   10.7171    0.0000 C   0  0  0  0  0  0  0  0  0  0  0  0
   37.8532   11.1296    0.0000 C   0  0  0  0  0  0  0  0  0  0  0  0
   38.5677   10.7171    0.0000 C   0  0  0  0  0  0  0  0  0  0  0  0
   39.2822   11.1296    0.0000 C   0  0  0  0  0  0  0  0  0  0  0  0
   39.9966   10.7171    0.0000 C   0  0  0  0  0  0  0  0  0  0  0  0
   40.7111   11.1296    0.0000 C   0  0  0  0  0  0  0  0  0  0  0  0
   16.7211   11.4316    0.0000 H   0  0  0  0  0  0  0  0  0  0  0  0
   16.4191   10.3046    0.0000 H   0  0  0  0  0  0  0  0  0  0  0  0
   17.5461   10.0026    0.0000 H   0  0  0  0  0  0  0  0  0  0  0  0
   18.2183   11.8668    0.0000 H   0  0  0  0  0  0  0  0  0  0  0  0
   17.4778   11.8668    0.0000 H   0  0  0  0  0  0  0  0  0  0  0  0
   18.1922    9.9799    0.0000 H   0  0  0  0  0  0  0  0  0  0  0  0
   18.9328    9.9799    0.0000 H   0  0  0  0  0  0  0  0  0  0  0  0
   19.6472   11.8668    0.0000 H   0  0  0  0  0  0  0  0  0  0  0  0
   18.9067   11.8668    0.0000 H   0  0  0  0  0  0  0  0  0  0  0  0
   19.6212    9.9799    0.0000 H   0  0  0  0  0  0  0  0  0  0  0  0
   20.3617    9.9799    0.0000 H   0  0  0  0  0  0  0  0  0  0  0  0
   21.0762   11.8668    0.0000 H   0  0  0  0  0  0  0  0  0  0  0  0
   20.3357   11.8668    0.0000 H   0  0  0  0  0  0  0  0  0  0  0  0
   21.0501    9.9799    0.0000 H   0  0  0  0  0  0  0  0  0  0  0  0
   21.7906    9.9799    0.0000 H   0  0  0  0  0  0  0  0  0  0  0  0
   22.5051   11.8668    0.0000 H   0  0  0  0  0  0  0  0  0  0  0  0
   21.7646   11.8668    0.0000 H   0  0  0  0  0  0  0  0  0  0  0  0
   22.4791    9.9799    0.0000 H   0  0  0  0  0  0  0  0  0  0  0  0
   23.2196    9.9799    0.0000 H   0  0  0  0  0  0  0  0  0  0  0  0
   23.9341   11.8668    0.0000 H   0  0  0  0  0  0  0  0  0  0  0  0
   23.1935   11.8668    0.0000 H   0  0  0  0  0  0  0  0  0  0  0  0
   23.9080    9.9799    0.0000 H   0  0  0  0  0  0  0  0  0  0  0  0
   24.6485    9.9799    0.0000 H   0  0  0  0  0  0  0  0  0  0  0  0
   25.3630   11.8668    0.0000 H   0  0  0  0  0  0  0  0  0  0  0  0
   24.6225   11.8668    0.0000 H   0  0  0  0  0  0  0  0  0  0  0  0
   25.3369    9.9799    0.0000 H   0  0  0  0  0  0  0  0  0  0  0  0
   26.0775    9.9799    0.0000 H   0  0  0  0  0  0  0  0  0  0  0  0
   28.2209   11.8668    0.0000 H   0  0  0  0  0  0  0  0  0  0  0  0
   27.4804   11.8668    0.0000 H   0  0  0  0  0  0  0  0  0  0  0  0
   28.1948    9.9799    0.0000 H   0  0  0  0  0  0  0  0  0  0  0  0
   28.9354    9.9799    0.0000 H   0  0  0  0  0  0  0  0  0  0  0  0
   29.6498   11.8668    0.0000 H   0  0  0  0  0  0  0  0  0  0  0  0
   28.9093   11.8668    0.0000 H   0  0  0  0  0  0  0  0  0  0  0  0
   29.6238    9.9799    0.0000 H   0  0  0  0  0  0  0  0  0  0  0  0
   30.3643    9.9799    0.0000 H   0  0  0  0  0  0  0  0  0  0  0  0
   32.5077   11.8668    0.0000 H   0  0  0  0  0  0  0  0  0  0  0  0
   31.7672   11.8668    0.0000 H   0  0  0  0  0  0  0  0  0  0  0  0
   32.4817    9.9799    0.0000 H   0  0  0  0  0  0  0  0  0  0  0  0
   33.2222    9.9799    0.0000 H   0  0  0  0  0  0  0  0  0  0  0  0
   33.9366   11.8668    0.0000 H   0  0  0  0  0  0  0  0  0  0  0  0
   33.1961   11.8668    0.0000 H   0  0  0  0  0  0  0  0  0  0  0  0
   33.9106    9.9799    0.0000 H   0  0  0  0  0  0  0  0  0  0  0  0
   34.6511    9.9799    0.0000 H   0  0  0  0  0  0  0  0  0  0  0  0
   35.3656   11.8668    0.0000 H   0  0  0  0  0  0  0  0  0  0  0  0
   34.6251   11.8668    0.0000 H   0  0  0  0  0  0  0  0  0  0  0  0
   35.3395    9.9799    0.0000 H   0  0  0  0  0  0  0  0  0  0  0  0
   36.0801    9.9799    0.0000 H   0  0  0  0  0  0  0  0  0  0  0  0
   36.7945   11.8668    0.0000 H   0  0  0  0  0  0  0  0  0  0  0  0
   36.0540   11.8668    0.0000 H   0  0  0  0  0  0  0  0  0  0  0  0
   36.7685    9.9799    0.0000 H   0  0  0  0  0  0  0  0  0  0  0  0
   37.5090    9.9799    0.0000 H   0  0  0  0  0  0  0  0  0  0  0  0
   38.2235   11.8668    0.0000 H   0  0  0  0  0  0  0  0  0  0  0  0
   37.4830   11.8668    0.0000 H   0  0  0  0  0  0  0  0  0  0  0  0
   38.1974    9.9799    0.0000 H   0  0  0  0  0  0  0  0  0  0  0  0
   38.9379    9.9799    0.0000 H   0  0  0  0  0  0  0  0  0  0  0  0
   39.6524   11.8668    0.0000 H   0  0  0  0  0  0  0  0  0  0  0  0
   38.9119   11.8668    0.0000 H   0  0  0  0  0  0  0  0  0  0  0  0
   39.6264    9.9799    0.0000 H   0  0  0  0  0  0  0  0  0  0  0  0
   40.3669    9.9799    0.0000 H   0  0  0  0  0  0  0  0  0  0  0  0
   41.1236   10.4151    0.0000 H   0  0  0  0  0  0  0  0  0  0  0  0
   41.4256   11.5421    0.0000 H   0  0  0  0  0  0  0  0  0  0  0  0
   40.2986   11.8441    0.0000 H   0  0  0  0  0  0  0  0  0  0  0  0
  1  2  1  0  0  0  0
  2  3  1  0  0  0  0
  3  4  1  0  0  0  0
  4  5  1  0  0  0  0
  5  6  1  0  0  0  0
  6  7  1  0  0  0  0
  7  8  1  0  0  0  0
  8  9  1  0  0  0  0
  9 10  1  0  0  0  0
 10 11  1  0  0  0  0
 11 12  1  0  0  0  0
 12 13  1  0  0  0  0
 13 14  1  0  0  0  0
 14 15  1  0  0  0  0
 15 16  2  0  0  0  0
 15 17  1  0  0  0  0
 17 18  1  0  0  0  0
 18 19  1  0  0  0  0
 19 20  1  0  0  0  0
 20 21  1  0  0  0  0
 21 22  2  0  0  0  0
 21 23  1  0  0  0  0
 23 24  1  0  0  0  0
 24 25  1  0  0  0  0
 25 26  1  0  0  0  0
 26 27  1  0  0  0  0
 27 28  1  0  0  0  0
 28 29  1  0  0  0  0
 29 30  1  0  0  0  0
 30 31  1  0  0  0  0
 31 32  1  0  0  0  0
 32 33  1  0  0  0  0
 33 34  1  0  0  0  0
 34 35  1  0  0  0  0
 35 36  1  0  0  0  0
  1 37  1  0  0  0  0
  1 38  1  0  0  0  0
  1 39  1  0  0  0  0
  2 40  1  0  0  0  0
  2 41  1  0  0  0  0
  3 42  1  0  0  0  0
  3 43  1  0  0  0  0
  4 44  1  0  0  0  0
  4 45  1  0  0  0  0
  5 46  1  0  0  0  0
  5 47  1  0  0  0  0
  6 48  1  0  0  0  0
  6 49  1  0  0  0  0
  7 50  1  0  0  0  0
  7 51  1  0  0  0  0
  8 52  1  0  0  0  0
  8 53  1  0  0  0  0
  9 54  1  0  0  0  0
  9 55  1  0  0  0  0
 10 56  1  0  0  0  0
 10 57  1  0  0  0  0
 11 58  1  0  0  0  0
 11 59  1  0  0  0  0
 12 60  1  0  0  0  0
 12 61  1  0  0  0  0
 13 62  1  0  0  0  0
 13 63  1  0  0  0  0
 17 64  1  0  0  0  0
 17 65  1  0  0  0  0
 18 66  1  0  0  0  0
 18 67  1  0  0  0  0
 19 68  1  0  0  0  0
 19 69  1  0  0  0  0
 20 70  1  0  0  0  0
 20 71  1  0  0  0  0
 24 72  1  0  0  0  0
 24 73  1  0  0  0  0
 25 74  1  0  0  0  0
 25 75  1  0  0  0  0
 26 76  1  0  0  0  0
 26 77  1  0  0  0  0
 27 78  1  0  0  0  0
 27 79  1  0  0  0  0
 28 80  1  0  0  0  0
 28 81  1  0  0  0  0
 29 82  1  0  0  0  0
 29 83  1  0  0  0  0
 30 84  1  0  0  0  0
 30 85  1  0  0  0  0
 31 86  1  0  0  0  0
 31 87  1  0  0  0  0
 32 88  1  0  0  0  0
 32 89  1  0  0  0  0
 33 90  1  0  0  0  0
 33 91  1  0  0  0  0
 34 92  1  0  0  0  0
 34 93  1  0  0  0  0
 35 94  1  0  0  0  0
 35 95  1  0  0  0  0
 36 96  1  0  0  0  0
 36 97  1  0  0  0  0
 36 98  1  0  0  0  0
M  END
>  <InChIKey>
LZJUZSYHFSVIGJ-UHFFFAOYSA-N

>  <UN GHS>
Non-irritant

>  <CASRN>
16958-92-2

> <Outcome>
0

>  <Index>
463

>  <StandardizerResult>
Clear Stereo (ID: ClearStereo)
Wedge Clean (ID: WedgeClean)
Mesomerize (ID: Mesomerize)
Tautomerize (ID: Tautomerize)
Add Explicit Hydrogens (ID: AddExplicitH)
Neutralize (ID: Neutralize)
Clean 2D (ID: Clean2D)

> <knn Distance>
2.2360680103302

> <CpId>
463

$$$$
468
  Mrv1532301301811342D          

 75 76  0  0  0  0            999 V2000
    2.1407    0.4191    0.0000 C   0  0  0  0  0  0  0  0  0  0  0  0
    2.1407   -0.4059    0.0000 C   0  0  0  0  0  0  0  0  0  0  0  0
    1.3157   -0.4059    0.0000 C   0  0  0  0  0  0  0  0  0  0  0  0
    2.9657   -0.4059    0.0000 C   0  0  0  0  0  0  0  0  0  0  0  0
    2.1407   -1.2309    0.0000 C   0  0  0  0  0  0  0  0  0  0  0  0
    2.8551   -1.6434    0.0000 C   0  0  0  0  0  0  0  0  0  0  0  0
    2.8551   -2.4684    0.0000 C   0  0  0  0  0  0  0  0  0  0  0  0
    3.5696   -2.8809    0.0000 C   0  0  0  0  0  0  0  0  0  0  0  0
    3.5696   -3.7059    0.0000 C   0  0  0  0  0  0  0  0  0  0  0  0
    4.2841   -4.1184    0.0000 C   0  0  0  0  0  0  0  0  0  0  0  0
    4.2841   -4.9434    0.0000 C   0  0  0  0  0  0  0  0  0  0  0  0
    3.5696   -5.3559    0.0000 C   0  0  0  0  0  0  0  0  0  0  0  0
    3.5696   -6.1809    0.0000 O   0  0  0  0  0  0  0  0  0  0  0  0
    2.8551   -4.9434    0.0000 C   0  0  0  0  0  0  0  0  0  0  0  0
    2.8551   -4.1184    0.0000 C   0  0  0  0  0  0  0  0  0  0  0  0
    2.1407   -5.3559    0.0000 C   0  0  0  0  0  0  0  0  0  0  0  0
    1.4262   -5.7684    0.0000 C   0  0  0  0  0  0  0  0  0  0  0  0
    1.7282   -4.6414    0.0000 C   0  0  0  0  0  0  0  0  0  0  0  0
    2.5532   -6.0703    0.0000 C   0  0  0  0  0  0  0  0  0  0  0  0
    4.9986   -5.3559    0.0000 C   0  0  0  0  0  0  0  0  0  0  0  0
    5.7130   -5.7684    0.0000 C   0  0  0  0  0  0  0  0  0  0  0  0
    4.5861   -6.0703    0.0000 C   0  0  0  0  0  0  0  0  0  0  0  0
    5.4111   -4.6414    0.0000 C   0  0  0  0  0  0  0  0  0  0  0  0
    2.1407   -2.8809    0.0000 C   0  0  0  0  0  0  0  0  0  0  0  0
    1.4262   -2.4684    0.0000 C   0  0  0  0  0  0  0  0  0  0  0  0
    1.4262   -1.6434    0.0000 C   0  0  0  0  0  0  0  0  0  0  0  0
    0.7117   -1.2309    0.0000 O   0  0  0  0  0  0  0  0  0  0  0  0
    0.7117   -2.8809    0.0000 C   0  0  0  0  0  0  0  0  0  0  0  0
   -0.0027   -3.2934    0.0000 C   0  0  0  0  0  0  0  0  0  0  0  0
    0.2992   -2.1664    0.0000 C   0  0  0  0  0  0  0  0  0  0  0  0
    1.1242   -3.5953    0.0000 C   0  0  0  0  0  0  0  0  0  0  0  0
    2.9657    0.4191    0.0000 H   0  0  0  0  0  0  0  0  0  0  0  0
    2.1407    1.2441    0.0000 H   0  0  0  0  0  0  0  0  0  0  0  0
    1.3157    0.4191    0.0000 H   0  0  0  0  0  0  0  0  0  0  0  0
    0.5535   -0.0902    0.0000 H   0  0  0  0  0  0  0  0  0  0  0  0
    0.7323   -0.9892    0.0000 H   0  0  0  0  0  0  0  0  0  0  0  0
    1.6314   -1.1681    0.0000 H   0  0  0  0  0  0  0  0  0  0  0  0
    2.6500   -1.1681    0.0000 H   0  0  0  0  0  0  0  0  0  0  0  0
    3.5490   -0.9892    0.0000 H   0  0  0  0  0  0  0  0  0  0  0  0
    3.7279   -0.0902    0.0000 H   0  0  0  0  0  0  0  0  0  0  0  0
    3.6126   -1.9703    0.0000 H   0  0  0  0  0  0  0  0  0  0  0  0
    4.2775   -3.3046    0.0000 H   0  0  0  0  0  0  0  0  0  0  0  0
    4.2967   -2.4910    0.0000 H   0  0  0  0  0  0  0  0  0  0  0  0
    5.1091   -4.1150    0.0000 H   0  0  0  0  0  0  0  0  0  0  0  0
    2.8551   -6.5934    0.0000 H   0  0  0  0  0  0  0  0  0  0  0  0
    2.1407   -3.7059    0.0000 H   0  0  0  0  0  0  0  0  0  0  0  0
    1.0137   -5.0539    0.0000 H   0  0  0  0  0  0  0  0  0  0  0  0
    0.7117   -6.1809    0.0000 H   0  0  0  0  0  0  0  0  0  0  0  0
    1.8387   -6.4828    0.0000 H   0  0  0  0  0  0  0  0  0  0  0  0
    2.5461   -4.5337    0.0000 H   0  0  0  0  0  0  0  0  0  0  0  0
    1.9417   -3.8445    0.0000 H   0  0  0  0  0  0  0  0  0  0  0  0
    1.0737   -4.1392    0.0000 H   0  0  0  0  0  0  0  0  0  0  0  0
    3.3656   -5.9271    0.0000 H   0  0  0  0  0  0  0  0  0  0  0  0
    3.0835   -5.4384    0.0000 H   0  0  0  0  0  0  0  0  0  0  0  0
    2.3396   -6.8672    0.0000 H   0  0  0  0  0  0  0  0  0  0  0  0
    5.3005   -6.4828    0.0000 H   0  0  0  0  0  0  0  0  0  0  0  0
    6.4275   -6.1809    0.0000 H   0  0  0  0  0  0  0  0  0  0  0  0
    6.1255   -5.0539    0.0000 H   0  0  0  0  0  0  0  0  0  0  0  0
    4.0838   -5.4158    0.0000 H   0  0  0  0  0  0  0  0  0  0  0  0
    3.7892   -6.2839    0.0000 H   0  0  0  0  0  0  0  0  0  0  0  0
    4.4784   -6.8883    0.0000 H   0  0  0  0  0  0  0  0  0  0  0  0
    6.1866   -4.3599    0.0000 H   0  0  0  0  0  0  0  0  0  0  0  0
    5.6946   -3.8667    0.0000 H   0  0  0  0  0  0  0  0  0  0  0  0
    4.5861   -4.6403    0.0000 H   0  0  0  0  0  0  0  0  0  0  0  0
    1.4262   -3.2934    0.0000 H   0  0  0  0  0  0  0  0  0  0  0  0
   -0.0196   -1.6127    0.0000 H   0  0  0  0  0  0  0  0  0  0  0  0
   -0.4152   -2.5789    0.0000 H   0  0  0  0  0  0  0  0  0  0  0  0
   -0.7172   -3.7059    0.0000 H   0  0  0  0  0  0  0  0  0  0  0  0
    0.4098   -4.0078    0.0000 H   0  0  0  0  0  0  0  0  0  0  0  0
    1.1242   -2.1667    0.0000 H   0  0  0  0  0  0  0  0  0  0  0  0
    0.7123   -1.4522    0.0000 H   0  0  0  0  0  0  0  0  0  0  0  0
   -0.4975   -1.9524    0.0000 H   0  0  0  0  0  0  0  0  0  0  0  0
    1.5840   -4.2804    0.0000 H   0  0  0  0  0  0  0  0  0  0  0  0
    0.3273   -3.3818    0.0000 H   0  0  0  0  0  0  0  0  0  0  0  0
    1.2319   -2.7774    0.0000 H   0  0  0  0  0  0  0  0  0  0  0  0
  1  2  1  0  0  0  0
  2  3  1  0  0  0  0
  2  4  1  0  0  0  0
  2  5  1  0  0  0  0
  5  6  4  0  0  0  0
  6  7  4  0  0  0  0
  7  8  1  0  0  0  0
  8  9  1  0  0  0  0
  9 10  4  0  0  0  0
 10 11  4  0  0  0  0
 11 12  4  0  0  0  0
 12 13  1  0  0  0  0
 12 14  4  0  0  0  0
 14 15  4  0  0  0  0
  9 15  4  0  0  0  0
 14 16  1  0  0  0  0
 16 17  1  0  0  0  0
 16 18  1  0  0  0  0
 16 19  1  0  0  0  0
 11 20  1  0  0  0  0
 20 21  1  0  0  0  0
 20 22  1  0  0  0  0
 20 23  1  0  0  0  0
  7 24  4  0  0  0  0
 24 25  4  0  0  0  0
 25 26  4  0  0  0  0
  5 26  4  0  0  0  0
 26 27  1  0  0  0  0
 25 28  1  0  0  0  0
 28 29  1  0  0  0  0
 28 30  1  0  0  0  0
 28 31  1  0  0  0  0
  1 32  1  0  0  0  0
  1 33  1  0  0  0  0
  1 34  1  0  0  0  0
  3 35  1  0  0  0  0
  3 36  1  0  0  0  0
  3 37  1  0  0  0  0
  4 38  1  0  0  0  0
  4 39  1  0  0  0  0
  4 40  1  0  0  0  0
  6 41  1  0  0  0  0
  8 42  1  0  0  0  0
  8 43  1  0  0  0  0
 10 44  1  0  0  0  0
 13 45  1  0  0  0  0
 15 46  1  0  0  0  0
 17 47  1  0  0  0  0
 17 48  1  0  0  0  0
 17 49  1  0  0  0  0
 18 50  1  0  0  0  0
 18 51  1  0  0  0  0
 18 52  1  0  0  0  0
 19 53  1  0  0  0  0
 19 54  1  0  0  0  0
 19 55  1  0  0  0  0
 21 56  1  0  0  0  0
 21 57  1  0  0  0  0
 21 58  1  0  0  0  0
 22 59  1  0  0  0  0
 22 60  1  0  0  0  0
 22 61  1  0  0  0  0
 23 62  1  0  0  0  0
 23 63  1  0  0  0  0
 23 64  1  0  0  0  0
 24 65  1  0  0  0  0
 27 66  1  0  0  0  0
 29 67  1  0  0  0  0
 29 68  1  0  0  0  0
 29 69  1  0  0  0  0
 30 70  1  0  0  0  0
 30 71  1  0  0  0  0
 30 72  1  0  0  0  0
 31 73  1  0  0  0  0
 31 74  1  0  0  0  0
 31 75  1  0  0  0  0
M  END
>  <InChIKey>
MDWVSAYEQPLWMX-UHFFFAOYSA-N

>  <UN GHS>
Non-irritant

>  <CASRN>
118-82-1

> <Outcome>
0

>  <Index>
468

>  <StandardizerResult>
Dearomatize (ID: Dearomatize)
Clear Stereo (ID: ClearStereo)
Wedge Clean (ID: WedgeClean)
Mesomerize (ID: Mesomerize)
Tautomerize (ID: Tautomerize)
Aromatize (ID: Aromatize)
Add Explicit Hydrogens (ID: AddExplicitH)
Neutralize (ID: Neutralize)
Clean 2D (ID: Clean2D)

> <knn Distance>
2.2360680103302

> <CpId>
468

$$$$
528
  Mrv1532301301811342D          

 69 68  0  0  0  0            999 V2000
   11.6605    7.5575    0.0000 C   0  0  0  0  0  0  0  0  0  0  0  0
   12.3750    7.1450    0.0000 C   0  0  0  0  0  0  0  0  0  0  0  0
   13.0895    7.5575    0.0000 C   0  0  0  0  0  0  0  0  0  0  0  0
   13.8039    7.1450    0.0000 C   0  0  0  0  0  0  0  0  0  0  0  0
   14.5184    7.5575    0.0000 C   0  0  0  0  0  0  0  0  0  0  0  0
   15.2329    7.1450    0.0000 C   0  0  0  0  0  0  0  0  0  0  0  0
   15.9474    7.5575    0.0000 C   0  0  0  0  0  0  0  0  0  0  0  0
   16.6618    7.1450    0.0000 C   0  0  0  0  0  0  0  0  0  0  0  0
   17.3763    7.5575    0.0000 C   0  0  0  0  0  0  0  0  0  0  0  0
   18.0908    7.1450    0.0000 C   0  0  0  0  0  0  0  0  0  0  0  0
   18.8052    7.5575    0.0000 C   0  0  0  0  0  0  0  0  0  0  0  0
   19.5197    7.1450    0.0000 C   0  0  0  0  0  0  0  0  0  0  0  0
   20.2342    7.5575    0.0000 C   0  0  0  0  0  0  0  0  0  0  0  0
   20.9486    7.1450    0.0000 C   0  0  0  0  0  0  0  0  0  0  0  0
   21.6631    7.5575    0.0000 C   0  0  0  0  0  0  0  0  0  0  0  0
   22.3776    7.1450    0.0000 C   0  0  0  0  0  0  0  0  0  0  0  0
   23.0921    7.5575    0.0000 C   0  0  0  0  0  0  0  0  0  0  0  0
   23.8065    7.1450    0.0000 C   0  0  0  0  0  0  0  0  0  0  0  0
   24.5210    7.5575    0.0000 C   0  0  0  0  0  0  0  0  0  0  0  0
   25.2355    7.1450    0.0000 C   0  0  0  0  0  0  0  0  0  0  0  0
   25.9499    7.5575    0.0000 C   0  0  0  0  0  0  0  0  0  0  0  0
   26.6644    7.1450    0.0000 C   0  0  0  0  0  0  0  0  0  0  0  0
   27.3789    7.5575    0.0000 O   0  0  0  0  0  0  0  0  0  0  0  0
   12.0730    8.2719    0.0000 H   0  0  0  0  0  0  0  0  0  0  0  0
   10.9461    7.9700    0.0000 H   0  0  0  0  0  0  0  0  0  0  0  0
   11.2480    6.8430    0.0000 H   0  0  0  0  0  0  0  0  0  0  0  0
   12.0047    6.4077    0.0000 H   0  0  0  0  0  0  0  0  0  0  0  0
   12.7453    6.4077    0.0000 H   0  0  0  0  0  0  0  0  0  0  0  0
   13.4597    8.2947    0.0000 H   0  0  0  0  0  0  0  0  0  0  0  0
   12.7192    8.2947    0.0000 H   0  0  0  0  0  0  0  0  0  0  0  0
   13.4337    6.4077    0.0000 H   0  0  0  0  0  0  0  0  0  0  0  0
   14.1742    6.4077    0.0000 H   0  0  0  0  0  0  0  0  0  0  0  0
   14.8887    8.2947    0.0000 H   0  0  0  0  0  0  0  0  0  0  0  0
   14.1482    8.2947    0.0000 H   0  0  0  0  0  0  0  0  0  0  0  0
   14.8626    6.4077    0.0000 H   0  0  0  0  0  0  0  0  0  0  0  0
   15.6031    6.4077    0.0000 H   0  0  0  0  0  0  0  0  0  0  0  0
   16.3176    8.2947    0.0000 H   0  0  0  0  0  0  0  0  0  0  0  0
   15.5771    8.2947    0.0000 H   0  0  0  0  0  0  0  0  0  0  0  0
   16.2916    6.4077    0.0000 H   0  0  0  0  0  0  0  0  0  0  0  0
   17.0321    6.4077    0.0000 H   0  0  0  0  0  0  0  0  0  0  0  0
   17.7466    8.2947    0.0000 H   0  0  0  0  0  0  0  0  0  0  0  0
   17.0060    8.2947    0.0000 H   0  0  0  0  0  0  0  0  0  0  0  0
   17.7205    6.4077    0.0000 H   0  0  0  0  0  0  0  0  0  0  0  0
   18.4610    6.4077    0.0000 H   0  0  0  0  0  0  0  0  0  0  0  0
   19.1755    8.2947    0.0000 H   0  0  0  0  0  0  0  0  0  0  0  0
   18.4350    8.2947    0.0000 H   0  0  0  0  0  0  0  0  0  0  0  0
   19.1494    6.4077    0.0000 H   0  0  0  0  0  0  0  0  0  0  0  0
   19.8900    6.4077    0.0000 H   0  0  0  0  0  0  0  0  0  0  0  0
   20.6044    8.2947    0.0000 H   0  0  0  0  0  0  0  0  0  0  0  0
   19.8639    8.2947    0.0000 H   0  0  0  0  0  0  0  0  0  0  0  0
   20.5784    6.4077    0.0000 H   0  0  0  0  0  0  0  0  0  0  0  0
   21.3189    6.4077    0.0000 H   0  0  0  0  0  0  0  0  0  0  0  0
   22.0334    8.2947    0.0000 H   0  0  0  0  0  0  0  0  0  0  0  0
   21.2929    8.2947    0.0000 H   0  0  0  0  0  0  0  0  0  0  0  0
   22.0073    6.4077    0.0000 H   0  0  0  0  0  0  0  0  0  0  0  0
   22.7479    6.4077    0.0000 H   0  0  0  0  0  0  0  0  0  0  0  0
   23.4623    8.2947    0.0000 H   0  0  0  0  0  0  0  0  0  0  0  0
   22.7218    8.2947    0.0000 H   0  0  0  0  0  0  0  0  0  0  0  0
   23.4363    6.4077    0.0000 H   0  0  0  0  0  0  0  0  0  0  0  0
   24.1768    6.4077    0.0000 H   0  0  0  0  0  0  0  0  0  0  0  0
   24.8913    8.2947    0.0000 H   0  0  0  0  0  0  0  0  0  0  0  0
   24.1507    8.2947    0.0000 H   0  0  0  0  0  0  0  0  0  0  0  0
   24.8652    6.4077    0.0000 H   0  0  0  0  0  0  0  0  0  0  0  0
   25.6057    6.4077    0.0000 H   0  0  0  0  0  0  0  0  0  0  0  0
   26.3202    8.2947    0.0000 H   0  0  0  0  0  0  0  0  0  0  0  0
   25.5797    8.2947    0.0000 H   0  0  0  0  0  0  0  0  0  0  0  0
   26.2942    6.4077    0.0000 H   0  0  0  0  0  0  0  0  0  0  0  0
   27.0347    6.4077    0.0000 H   0  0  0  0  0  0  0  0  0  0  0  0
   28.0934    7.1450    0.0000 H   0  0  0  0  0  0  0  0  0  0  0  0
  1  2  1  0  0  0  0
  2  3  1  0  0  0  0
  3  4  1  0  0  0  0
  4  5  1  0  0  0  0
  5  6  1  0  0  0  0
  6  7  1  0  0  0  0
  7  8  1  0  0  0  0
  8  9  1  0  0  0  0
  9 10  1  0  0  0  0
 10 11  1  0  0  0  0
 11 12  1  0  0  0  0
 12 13  1  0  0  0  0
 13 14  1  0  0  0  0
 14 15  1  0  0  0  0
 15 16  1  0  0  0  0
 16 17  1  0  0  0  0
 17 18  1  0  0  0  0
 18 19  1  0  0  0  0
 19 20  1  0  0  0  0
 20 21  1  0  0  0  0
 21 22  1  0  0  0  0
 22 23  1  0  0  0  0
  1 24  1  0  0  0  0
  1 25  1  0  0  0  0
  1 26  1  0  0  0  0
  2 27  1  0  0  0  0
  2 28  1  0  0  0  0
  3 29  1  0  0  0  0
  3 30  1  0  0  0  0
  4 31  1  0  0  0  0
  4 32  1  0  0  0  0
  5 33  1  0  0  0  0
  5 34  1  0  0  0  0
  6 35  1  0  0  0  0
  6 36  1  0  0  0  0
  7 37  1  0  0  0  0
  7 38  1  0  0  0  0
  8 39  1  0  0  0  0
  8 40  1  0  0  0  0
  9 41  1  0  0  0  0
  9 42  1  0  0  0  0
 10 43  1  0  0  0  0
 10 44  1  0  0  0  0
 11 45  1  0  0  0  0
 11 46  1  0  0  0  0
 12 47  1  0  0  0  0
 12 48  1  0  0  0  0
 13 49  1  0  0  0  0
 13 50  1  0  0  0  0
 14 51  1  0  0  0  0
 14 52  1  0  0  0  0
 15 53  1  0  0  0  0
 15 54  1  0  0  0  0
 16 55  1  0  0  0  0
 16 56  1  0  0  0  0
 17 57  1  0  0  0  0
 17 58  1  0  0  0  0
 18 59  1  0  0  0  0
 18 60  1  0  0  0  0
 19 61  1  0  0  0  0
 19 62  1  0  0  0  0
 20 63  1  0  0  0  0
 20 64  1  0  0  0  0
 21 65  1  0  0  0  0
 21 66  1  0  0  0  0
 22 67  1  0  0  0  0
 22 68  1  0  0  0  0
 23 69  1  0  0  0  0
M  END
>  <InChIKey>
NOPFSRXAKWQILS-UHFFFAOYSA-N

>  <UN GHS>
Non-irritant

>  <CASRN>
661-19-8

> <Outcome>
0

>  <Index>
528

>  <StandardizerResult>
Clear Stereo (ID: ClearStereo)
Wedge Clean (ID: WedgeClean)
Mesomerize (ID: Mesomerize)
Tautomerize (ID: Tautomerize)
Add Explicit Hydrogens (ID: AddExplicitH)
Neutralize (ID: Neutralize)
Clean 2D (ID: Clean2D)

> <knn Distance>
2.2360680103302

> <CpId>
528

$$$$
530
  Mrv1532301301811342D          

 24 23  0  0  0  0            999 V2000
   -2.3349    1.1277    0.0000 C   0  0  0  0  0  0  0  0  0  0  0  0
   -1.6204    0.7152    0.0000 C   0  0  0  0  0  0  0  0  0  0  0  0
   -0.9059    1.1277    0.0000 C   0  0  0  0  0  0  0  0  0  0  0  0
   -0.1915    0.7152    0.0000 C   0  0  0  0  0  0  0  0  0  0  0  0
    0.5230    1.1277    0.0000 C   0  0  0  0  0  0  0  0  0  0  0  0
    1.2375    0.7152    0.0000 C   0  0  0  0  0  0  0  0  0  0  0  0
    1.9520    1.1277    0.0000 O   0  0  0  0  0  0  0  0  0  0  0  0
    2.6664    0.7152    0.0000 C   0  0  0  0  0  0  0  0  0  0  0  0
    3.3809    1.1277    0.0000 C   0  0  0  0  0  0  0  0  0  0  0  0
    2.6664   -0.1098    0.0000 O   0  0  0  0  0  0  0  0  0  0  0  0
   -1.9224    1.8422    0.0000 H   0  0  0  0  0  0  0  0  0  0  0  0
   -3.0493    1.5402    0.0000 H   0  0  0  0  0  0  0  0  0  0  0  0
   -2.7474    0.4133    0.0000 H   0  0  0  0  0  0  0  0  0  0  0  0
   -1.9907   -0.0220    0.0000 H   0  0  0  0  0  0  0  0  0  0  0  0
   -1.2501   -0.0220    0.0000 H   0  0  0  0  0  0  0  0  0  0  0  0
   -0.9059    1.9527    0.0000 H   0  0  0  0  0  0  0  0  0  0  0  0
   -0.1915   -0.1098    0.0000 H   0  0  0  0  0  0  0  0  0  0  0  0
    0.8933    1.8650    0.0000 H   0  0  0  0  0  0  0  0  0  0  0  0
    0.1528    1.8650    0.0000 H   0  0  0  0  0  0  0  0  0  0  0  0
    0.8672   -0.0220    0.0000 H   0  0  0  0  0  0  0  0  0  0  0  0
    1.6077   -0.0220    0.0000 H   0  0  0  0  0  0  0  0  0  0  0  0
    3.7934    0.4133    0.0000 H   0  0  0  0  0  0  0  0  0  0  0  0
    4.0954    1.5402    0.0000 H   0  0  0  0  0  0  0  0  0  0  0  0
    2.9684    1.8422    0.0000 H   0  0  0  0  0  0  0  0  0  0  0  0
  1  2  1  0  0  0  0
  3  2  1  4  0  0  0
  3  4  2  0  0  0  0
  4  5  1  0  0  0  0
  5  6  1  0  0  0  0
  6  7  1  0  0  0  0
  7  8  1  0  0  0  0
  8  9  1  0  0  0  0
  8 10  2  0  0  0  0
  1 11  1  0  0  0  0
  1 12  1  0  0  0  0
  1 13  1  0  0  0  0
  2 14  1  0  0  0  0
  2 15  1  0  0  0  0
  3 16  1  0  0  0  0
  4 17  1  0  0  0  0
  5 18  1  0  0  0  0
  5 19  1  0  0  0  0
  6 20  1  0  0  0  0
  6 21  1  0  0  0  0
  9 22  1  0  0  0  0
  9 23  1  0  0  0  0
  9 24  1  0  0  0  0
M  END
>  <InChIKey>
NPFVOOAXDOBMCE-PLNGDYQASA-N

>  <UN GHS>
Non-irritant

>  <CASRN>
3681-71-8

> <Outcome>
0

>  <Index>
530

>  <StandardizerResult>
Clear Stereo (ID: ClearStereo)
Wedge Clean (ID: WedgeClean)
Mesomerize (ID: Mesomerize)
Tautomerize (ID: Tautomerize)
Add Explicit Hydrogens (ID: AddExplicitH)
Neutralize (ID: Neutralize)
Clean 2D (ID: Clean2D)

> <knn Distance>
2.2360680103302

> <CpId>
530

$$$$
597
  Mrv1532301301811342D          

 22 23  0  0  0  0            999 V2000
    0.7145   -0.4125    0.0000 Br  0  0  0  0  0  0  0  0  0  0  0  0
    0.7145   -1.2375    0.0000 C   0  0  0  0  0  0  0  0  0  0  0  0
    1.4289   -1.6500    0.0000 C   0  0  0  0  0  0  0  0  0  0  0  0
    1.4289   -2.4750    0.0000 C   0  0  0  0  0  0  0  0  0  0  0  0
    0.7145   -2.8875    0.0000 C   0  0  0  0  0  0  0  0  0  0  0  0
   -0.0000   -2.4750    0.0000 C   0  0  0  0  0  0  0  0  0  0  0  0
   -0.0000   -1.6500    0.0000 C   0  0  0  0  0  0  0  0  0  0  0  0
    0.7145   -3.7125    0.0000 C   0  0  0  0  0  0  0  0  0  0  0  0
    1.4289   -4.1250    0.0000 C   0  0  0  0  0  0  0  0  0  0  0  0
    1.4289   -4.9500    0.0000 C   0  0  0  0  0  0  0  0  0  0  0  0
    0.7145   -5.3625    0.0000 C   0  0  0  0  0  0  0  0  0  0  0  0
   -0.0000   -4.9500    0.0000 C   0  0  0  0  0  0  0  0  0  0  0  0
   -0.0000   -4.1250    0.0000 C   0  0  0  0  0  0  0  0  0  0  0  0
    2.1434   -1.2375    0.0000 H   0  0  0  0  0  0  0  0  0  0  0  0
    2.1434   -2.8875    0.0000 H   0  0  0  0  0  0  0  0  0  0  0  0
   -0.7145   -2.8875    0.0000 H   0  0  0  0  0  0  0  0  0  0  0  0
   -0.7145   -1.2375    0.0000 H   0  0  0  0  0  0  0  0  0  0  0  0
    2.1434   -3.7125    0.0000 H   0  0  0  0  0  0  0  0  0  0  0  0
    2.1434   -5.3625    0.0000 H   0  0  0  0  0  0  0  0  0  0  0  0
    0.7145   -6.1875    0.0000 H   0  0  0  0  0  0  0  0  0  0  0  0
   -0.7145   -5.3625    0.0000 H   0  0  0  0  0  0  0  0  0  0  0  0
   -0.7145   -3.7125    0.0000 H   0  0  0  0  0  0  0  0  0  0  0  0
  1  2  1  0  0  0  0
  2  3  4  0  0  0  0
  3  4  4  0  0  0  0
  4  5  4  0  0  0  0
  5  6  4  0  0  0  0
  6  7  4  0  0  0  0
  2  7  4  0  0  0  0
  5  8  1  0  0  0  0
  8  9  4  0  0  0  0
  9 10  4  0  0  0  0
 10 11  4  0  0  0  0
 11 12  4  0  0  0  0
 12 13  4  0  0  0  0
  8 13  4  0  0  0  0
  3 14  1  0  0  0  0
  4 15  1  0  0  0  0
  6 16  1  0  0  0  0
  7 17  1  0  0  0  0
  9 18  1  0  0  0  0
 10 19  1  0  0  0  0
 11 20  1  0  0  0  0
 12 21  1  0  0  0  0
 13 22  1  0  0  0  0
M  END
>  <InChIKey>
PKJBWOWQJHHAHG-UHFFFAOYSA-N

>  <UN GHS>
Non-irritant

>  <CASRN>
9001-62-1

> <Outcome>
0

>  <Index>
597

>  <StandardizerResult>
Dearomatize (ID: Dearomatize)
Clear Stereo (ID: ClearStereo)
Wedge Clean (ID: WedgeClean)
Mesomerize (ID: Mesomerize)
Tautomerize (ID: Tautomerize)
Aromatize (ID: Aromatize)
Add Explicit Hydrogens (ID: AddExplicitH)
Neutralize (ID: Neutralize)
Clean 2D (ID: Clean2D)

> <knn Distance>
2.2360680103302

> <CpId>
597

$$$$
669
  Mrv1532301301811342D          

 27 26  0  0  0  0            999 V2000
    2.2836    2.1427    0.0000 C   0  0  0  0  0  0  0  0  0  0  0  0
    2.9980    2.5552    0.0000 C   0  0  0  0  0  0  0  0  0  0  0  0
    3.7125    2.1427    0.0000 C   0  0  0  0  0  0  0  0  0  0  0  0
    4.4270    2.5552    0.0000 C   0  0  0  0  0  0  0  0  0  0  0  0
    5.1414    2.1427    0.0000 C   0  0  0  0  0  0  0  0  0  0  0  0
    5.8559    2.5552    0.0000 C   0  0  0  0  0  0  0  0  0  0  0  0
    5.8559    3.3802    0.0000 O   0  0  0  0  0  0  0  0  0  0  0  0
    6.5704    2.1427    0.0000 O   0  0  0  0  0  0  0  0  0  0  0  0
    7.2849    2.5552    0.0000 C   0  0  0  0  0  0  0  0  0  0  0  0
    7.9993    2.1427    0.0000 C   0  0  0  0  0  0  0  0  0  0  0  0
    8.7138    2.5552    0.0000 C   0  0  0  0  0  0  0  0  0  0  0  0
    1.8711    2.8572    0.0000 H   0  0  0  0  0  0  0  0  0  0  0  0
    1.5691    1.7302    0.0000 H   0  0  0  0  0  0  0  0  0  0  0  0
    2.6961    1.4283    0.0000 H   0  0  0  0  0  0  0  0  0  0  0  0
    3.3683    3.2925    0.0000 H   0  0  0  0  0  0  0  0  0  0  0  0
    2.6278    3.2925    0.0000 H   0  0  0  0  0  0  0  0  0  0  0  0
    3.3422    1.4055    0.0000 H   0  0  0  0  0  0  0  0  0  0  0  0
    4.0828    1.4055    0.0000 H   0  0  0  0  0  0  0  0  0  0  0  0
    4.7972    3.2925    0.0000 H   0  0  0  0  0  0  0  0  0  0  0  0
    4.0567    3.2925    0.0000 H   0  0  0  0  0  0  0  0  0  0  0  0
    4.7712    1.4055    0.0000 H   0  0  0  0  0  0  0  0  0  0  0  0
    5.5117    1.4055    0.0000 H   0  0  0  0  0  0  0  0  0  0  0  0
    7.6551    3.2925    0.0000 H   0  0  0  0  0  0  0  0  0  0  0  0
    6.9146    3.2925    0.0000 H   0  0  0  0  0  0  0  0  0  0  0  0
    7.9993    1.3177    0.0000 H   0  0  0  0  0  0  0  0  0  0  0  0
    9.4283    2.1427    0.0000 H   0  0  0  0  0  0  0  0  0  0  0  0
    8.7138    3.3802    0.0000 H   0  0  0  0  0  0  0  0  0  0  0  0
  1  2  1  0  0  0  0
  2  3  1  0  0  0  0
  3  4  1  0  0  0  0
  4  5  1  0  0  0  0
  5  6  1  0  0  0  0
  6  7  2  0  0  0  0
  6  8  1  0  0  0  0
  8  9  1  0  0  0  0
  9 10  1  0  0  0  0
 10 11  2  0  0  0  0
  1 12  1  0  0  0  0
  1 13  1  0  0  0  0
  1 14  1  0  0  0  0
  2 15  1  0  0  0  0
  2 16  1  0  0  0  0
  3 17  1  0  0  0  0
  3 18  1  0  0  0  0
  4 19  1  0  0  0  0
  4 20  1  0  0  0  0
  5 21  1  0  0  0  0
  5 22  1  0  0  0  0
  9 23  1  0  0  0  0
  9 24  1  0  0  0  0
 10 25  1  0  0  0  0
 11 26  1  0  0  0  0
 11 27  1  0  0  0  0
M  END
>  <InChIKey>
RCSBILYQLVXLJG-UHFFFAOYSA-N

>  <UN GHS>
Non-irritant

>  <CASRN>
123-68-2

> <Outcome>
0

>  <Index>
669

>  <StandardizerResult>
Clear Stereo (ID: ClearStereo)
Wedge Clean (ID: WedgeClean)
Mesomerize (ID: Mesomerize)
Tautomerize (ID: Tautomerize)
Add Explicit Hydrogens (ID: AddExplicitH)
Neutralize (ID: Neutralize)
Clean 2D (ID: Clean2D)

> <knn Distance>
2.2360680103302

> <CpId>
669

$$$$
723
  Mrv1532301301811342D          

 74 73  0  0  0  0            999 V2000
   11.6342    7.5674    0.0000 C   0  0  0  0  0  0  0  0  0  0  0  0
   12.3487    7.1549    0.0000 C   0  0  0  0  0  0  0  0  0  0  0  0
   13.0632    7.5674    0.0000 C   0  0  0  0  0  0  0  0  0  0  0  0
   13.7776    7.1549    0.0000 C   0  0  0  0  0  0  0  0  0  0  0  0
   14.4921    7.5674    0.0000 C   0  0  0  0  0  0  0  0  0  0  0  0
   15.2066    7.1549    0.0000 C   0  0  0  0  0  0  0  0  0  0  0  0
   15.9210    7.5674    0.0000 C   0  0  0  0  0  0  0  0  0  0  0  0
   16.6355    7.1549    0.0000 C   0  0  0  0  0  0  0  0  0  0  0  0
   17.3500    7.5674    0.0000 C   0  0  0  0  0  0  0  0  0  0  0  0
   18.0645    7.1549    0.0000 C   0  0  0  0  0  0  0  0  0  0  0  0
   18.7789    7.5674    0.0000 C   0  0  0  0  0  0  0  0  0  0  0  0
   19.4934    7.1549    0.0000 C   0  0  0  0  0  0  0  0  0  0  0  0
   20.2079    7.5674    0.0000 C   0  0  0  0  0  0  0  0  0  0  0  0
   20.9223    7.1549    0.0000 C   0  0  0  0  0  0  0  0  0  0  0  0
   21.6368    7.5674    0.0000 C   0  0  0  0  0  0  0  0  0  0  0  0
   22.3513    7.1549    0.0000 C   0  0  0  0  0  0  0  0  0  0  0  0
   22.3513    6.3299    0.0000 O   0  0  0  0  0  0  0  0  0  0  0  0
   23.0657    7.5674    0.0000 O   0  0  0  0  0  0  0  0  0  0  0  0
   23.7802    7.1549    0.0000 C   0  0  0  0  0  0  0  0  0  0  0  0
   24.4947    7.5674    0.0000 C   0  0  0  0  0  0  0  0  0  0  0  0
   24.4947    8.3924    0.0000 C   0  0  0  0  0  0  0  0  0  0  0  0
   25.2092    8.8049    0.0000 C   0  0  0  0  0  0  0  0  0  0  0  0
   25.2092    7.1549    0.0000 C   0  0  0  0  0  0  0  0  0  0  0  0
   25.9236    7.5674    0.0000 C   0  0  0  0  0  0  0  0  0  0  0  0
   26.6381    7.1549    0.0000 C   0  0  0  0  0  0  0  0  0  0  0  0
   27.3526    7.5674    0.0000 C   0  0  0  0  0  0  0  0  0  0  0  0
   12.0467    8.2819    0.0000 H   0  0  0  0  0  0  0  0  0  0  0  0
   10.9197    7.9799    0.0000 H   0  0  0  0  0  0  0  0  0  0  0  0
   11.2217    6.8529    0.0000 H   0  0  0  0  0  0  0  0  0  0  0  0
   11.9784    6.4176    0.0000 H   0  0  0  0  0  0  0  0  0  0  0  0
   12.7189    6.4176    0.0000 H   0  0  0  0  0  0  0  0  0  0  0  0
   13.4334    8.3046    0.0000 H   0  0  0  0  0  0  0  0  0  0  0  0
   12.6929    8.3046    0.0000 H   0  0  0  0  0  0  0  0  0  0  0  0
   13.4074    6.4176    0.0000 H   0  0  0  0  0  0  0  0  0  0  0  0
   14.1479    6.4176    0.0000 H   0  0  0  0  0  0  0  0  0  0  0  0
   14.8624    8.3046    0.0000 H   0  0  0  0  0  0  0  0  0  0  0  0
   14.1218    8.3046    0.0000 H   0  0  0  0  0  0  0  0  0  0  0  0
   14.8363    6.4176    0.0000 H   0  0  0  0  0  0  0  0  0  0  0  0
   15.5768    6.4176    0.0000 H   0  0  0  0  0  0  0  0  0  0  0  0
   16.2913    8.3046    0.0000 H   0  0  0  0  0  0  0  0  0  0  0  0
   15.5508    8.3046    0.0000 H   0  0  0  0  0  0  0  0  0  0  0  0
   16.2652    6.4176    0.0000 H   0  0  0  0  0  0  0  0  0  0  0  0
   17.0058    6.4176    0.0000 H   0  0  0  0  0  0  0  0  0  0  0  0
   17.7202    8.3046    0.0000 H   0  0  0  0  0  0  0  0  0  0  0  0
   16.9797    8.3046    0.0000 H   0  0  0  0  0  0  0  0  0  0  0  0
   17.6942    6.4176    0.0000 H   0  0  0  0  0  0  0  0  0  0  0  0
   18.4347    6.4176    0.0000 H   0  0  0  0  0  0  0  0  0  0  0  0
   19.1492    8.3046    0.0000 H   0  0  0  0  0  0  0  0  0  0  0  0
   18.4087    8.3046    0.0000 H   0  0  0  0  0  0  0  0  0  0  0  0
   19.1231    6.4176    0.0000 H   0  0  0  0  0  0  0  0  0  0  0  0
   19.8637    6.4176    0.0000 H   0  0  0  0  0  0  0  0  0  0  0  0
   20.5781    8.3046    0.0000 H   0  0  0  0  0  0  0  0  0  0  0  0
   19.8376    8.3046    0.0000 H   0  0  0  0  0  0  0  0  0  0  0  0
   20.5521    6.4176    0.0000 H   0  0  0  0  0  0  0  0  0  0  0  0
   21.2926    6.4176    0.0000 H   0  0  0  0  0  0  0  0  0  0  0  0
   22.0071    8.3046    0.0000 H   0  0  0  0  0  0  0  0  0  0  0  0
   21.2665    8.3046    0.0000 H   0  0  0  0  0  0  0  0  0  0  0  0
   23.4100    6.4176    0.0000 H   0  0  0  0  0  0  0  0  0  0  0  0
   24.1505    6.4176    0.0000 H   0  0  0  0  0  0  0  0  0  0  0  0
   23.7802    7.9799    0.0000 H   0  0  0  0  0  0  0  0  0  0  0  0
   24.3514    9.2048    0.0000 H   0  0  0  0  0  0  0  0  0  0  0  0
   23.8627    8.9227    0.0000 H   0  0  0  0  0  0  0  0  0  0  0  0
   25.4400    8.0128    0.0000 H   0  0  0  0  0  0  0  0  0  0  0  0
   26.0334    8.8409    0.0000 H   0  0  0  0  0  0  0  0  0  0  0  0
   25.3701    9.6140    0.0000 H   0  0  0  0  0  0  0  0  0  0  0  0
   24.8389    6.4176    0.0000 H   0  0  0  0  0  0  0  0  0  0  0  0
   25.5794    6.4176    0.0000 H   0  0  0  0  0  0  0  0  0  0  0  0
   26.4123    8.2321    0.0000 H   0  0  0  0  0  0  0  0  0  0  0  0
   25.9236    6.7424    0.0000 H   0  0  0  0  0  0  0  0  0  0  0  0
   26.7814    6.3424    0.0000 H   0  0  0  0  0  0  0  0  0  0  0  0
   27.2701    6.6246    0.0000 H   0  0  0  0  0  0  0  0  0  0  0  0
   28.1338    7.3022    0.0000 H   0  0  0  0  0  0  0  0  0  0  0  0
   27.7958    8.2632    0.0000 H   0  0  0  0  0  0  0  0  0  0  0  0
   26.7821    8.1633    0.0000 H   0  0  0  0  0  0  0  0  0  0  0  0
  1  2  1  0  0  0  0
  2  3  1  0  0  0  0
  3  4  1  0  0  0  0
  4  5  1  0  0  0  0
  5  6  1  0  0  0  0
  6  7  1  0  0  0  0
  7  8  1  0  0  0  0
  8  9  1  0  0  0  0
  9 10  1  0  0  0  0
 10 11  1  0  0  0  0
 11 12  1  0  0  0  0
 12 13  1  0  0  0  0
 13 14  1  0  0  0  0
 14 15  1  0  0  0  0
 15 16  1  0  0  0  0
 16 17  2  0  0  0  0
 16 18  1  0  0  0  0
 18 19  1  0  0  0  0
 19 20  1  0  0  0  0
 20 21  1  0  0  0  0
 21 22  1  0  0  0  0
 20 23  1  0  0  0  0
 23 24  1  0  0  0  0
 24 25  1  0  0  0  0
 25 26  1  0  0  0  0
  1 27  1  0  0  0  0
  1 28  1  0  0  0  0
  1 29  1  0  0  0  0
  2 30  1  0  0  0  0
  2 31  1  0  0  0  0
  3 32  1  0  0  0  0
  3 33  1  0  0  0  0
  4 34  1  0  0  0  0
  4 35  1  0  0  0  0
  5 36  1  0  0  0  0
  5 37  1  0  0  0  0
  6 38  1  0  0  0  0
  6 39  1  0  0  0  0
  7 40  1  0  0  0  0
  7 41  1  0  0  0  0
  8 42  1  0  0  0  0
  8 43  1  0  0  0  0
  9 44  1  0  0  0  0
  9 45  1  0  0  0  0
 10 46  1  0  0  0  0
 10 47  1  0  0  0  0
 11 48  1  0  0  0  0
 11 49  1  0  0  0  0
 12 50  1  0  0  0  0
 12 51  1  0  0  0  0
 13 52  1  0  0  0  0
 13 53  1  0  0  0  0
 14 54  1  0  0  0  0
 14 55  1  0  0  0  0
 15 56  1  0  0  0  0
 15 57  1  0  0  0  0
 19 58  1  0  0  0  0
 19 59  1  0  0  0  0
 20 60  1  0  0  0  0
 21 61  1  0  0  0  0
 21 62  1  0  0  0  0
 22 63  1  0  0  0  0
 22 64  1  0  0  0  0
 22 65  1  0  0  0  0
 23 66  1  0  0  0  0
 23 67  1  0  0  0  0
 24 68  1  0  0  0  0
 24 69  1  0  0  0  0
 25 70  1  0  0  0  0
 25 71  1  0  0  0  0
 26 72  1  0  0  0  0
 26 73  1  0  0  0  0
 26 74  1  0  0  0  0
M  END
>  <InChIKey>
SFAAOBGYWOUHLU-UHFFFAOYSA-N

>  <UN GHS>
Non-irritant

>  <CASRN>
29806-73-3

> <Outcome>
0

>  <Index>
723

>  <StandardizerResult>
Clear Stereo (ID: ClearStereo)
Wedge Clean (ID: WedgeClean)
Mesomerize (ID: Mesomerize)
Tautomerize (ID: Tautomerize)
Add Explicit Hydrogens (ID: AddExplicitH)
Neutralize (ID: Neutralize)
Clean 2D (ID: Clean2D)

> <knn Distance>
2.2360680103302

> <CpId>
723

$$$$
731
  Mrv1532301301811342D          

 30 29  0  0  0  0            999 V2000
    4.2355    3.2704    0.0000 C   0  0  0  0  0  0  0  0  0  0  0  0
    4.9500    2.8579    0.0000 C   0  0  0  0  0  0  0  0  0  0  0  0
    5.6645    3.2704    0.0000 C   0  0  0  0  0  0  0  0  0  0  0  0
    6.3789    2.8579    0.0000 C   0  0  0  0  0  0  0  0  0  0  0  0
    7.0934    3.2704    0.0000 C   0  0  0  0  0  0  0  0  0  0  0  0
    7.8079    2.8579    0.0000 C   0  0  0  0  0  0  0  0  0  0  0  0
    8.5224    3.2704    0.0000 C   0  0  0  0  0  0  0  0  0  0  0  0
    8.5224    4.0954    0.0000 O   0  0  0  0  0  0  0  0  0  0  0  0
    9.2368    2.8579    0.0000 O   0  0  0  0  0  0  0  0  0  0  0  0
    9.9513    3.2704    0.0000 C   0  0  0  0  0  0  0  0  0  0  0  0
   10.6658    2.8579    0.0000 C   0  0  0  0  0  0  0  0  0  0  0  0
   11.3802    3.2704    0.0000 C   0  0  0  0  0  0  0  0  0  0  0  0
    4.6480    3.9849    0.0000 H   0  0  0  0  0  0  0  0  0  0  0  0
    3.5211    3.6829    0.0000 H   0  0  0  0  0  0  0  0  0  0  0  0
    3.8230    2.5559    0.0000 H   0  0  0  0  0  0  0  0  0  0  0  0
    4.5797    2.1207    0.0000 H   0  0  0  0  0  0  0  0  0  0  0  0
    5.3203    2.1207    0.0000 H   0  0  0  0  0  0  0  0  0  0  0  0
    6.0347    4.0076    0.0000 H   0  0  0  0  0  0  0  0  0  0  0  0
    5.2942    4.0076    0.0000 H   0  0  0  0  0  0  0  0  0  0  0  0
    6.0087    2.1207    0.0000 H   0  0  0  0  0  0  0  0  0  0  0  0
    6.7492    2.1207    0.0000 H   0  0  0  0  0  0  0  0  0  0  0  0
    7.4637    4.0076    0.0000 H   0  0  0  0  0  0  0  0  0  0  0  0
    6.7231    4.0076    0.0000 H   0  0  0  0  0  0  0  0  0  0  0  0
    7.4376    2.1207    0.0000 H   0  0  0  0  0  0  0  0  0  0  0  0
    8.1781    2.1207    0.0000 H   0  0  0  0  0  0  0  0  0  0  0  0
   10.3216    4.0076    0.0000 H   0  0  0  0  0  0  0  0  0  0  0  0
    9.5810    4.0076    0.0000 H   0  0  0  0  0  0  0  0  0  0  0  0
   10.6658    2.0329    0.0000 H   0  0  0  0  0  0  0  0  0  0  0  0
   12.0947    2.8579    0.0000 H   0  0  0  0  0  0  0  0  0  0  0  0
   11.3802    4.0954    0.0000 H   0  0  0  0  0  0  0  0  0  0  0  0
  1  2  1  0  0  0  0
  2  3  1  0  0  0  0
  3  4  1  0  0  0  0
  4  5  1  0  0  0  0
  5  6  1  0  0  0  0
  6  7  1  0  0  0  0
  7  8  2  0  0  0  0
  7  9  1  0  0  0  0
  9 10  1  0  0  0  0
 10 11  1  0  0  0  0
 11 12  2  0  0  0  0
  1 13  1  0  0  0  0
  1 14  1  0  0  0  0
  1 15  1  0  0  0  0
  2 16  1  0  0  0  0
  2 17  1  0  0  0  0
  3 18  1  0  0  0  0
  3 19  1  0  0  0  0
  4 20  1  0  0  0  0
  4 21  1  0  0  0  0
  5 22  1  0  0  0  0
  5 23  1  0  0  0  0
  6 24  1  0  0  0  0
  6 25  1  0  0  0  0
 10 26  1  0  0  0  0
 10 27  1  0  0  0  0
 11 28  1  0  0  0  0
 12 29  1  0  0  0  0
 12 30  1  0  0  0  0
M  END
>  <InChIKey>
SJWKGDGUQTWDRV-UHFFFAOYSA-N

>  <UN GHS>
Non-irritant

>  <CASRN>
142-19-8

> <Outcome>
0

>  <Index>
731

>  <StandardizerResult>
Clear Stereo (ID: ClearStereo)
Wedge Clean (ID: WedgeClean)
Mesomerize (ID: Mesomerize)
Tautomerize (ID: Tautomerize)
Add Explicit Hydrogens (ID: AddExplicitH)
Neutralize (ID: Neutralize)
Clean 2D (ID: Clean2D)

> <knn Distance>
2.2360680103302

> <CpId>
731

$$$$
871
  Mrv1532301301811342D          

 57 56  0  0  0  0            999 V2000
    7.1290    4.9855    0.0000 C   0  0  0  0  0  0  0  0  0  0  0  0
    7.8435    5.3980    0.0000 C   0  0  0  0  0  0  0  0  0  0  0  0
    7.8435    6.2230    0.0000 C   0  0  0  0  0  0  0  0  0  0  0  0
    8.5579    4.9855    0.0000 C   0  0  0  0  0  0  0  0  0  0  0  0
    9.2724    5.3980    0.0000 C   0  0  0  0  0  0  0  0  0  0  0  0
    9.9869    4.9855    0.0000 C   0  0  0  0  0  0  0  0  0  0  0  0
   10.7013    5.3980    0.0000 C   0  0  0  0  0  0  0  0  0  0  0  0
   11.4158    4.9855    0.0000 C   0  0  0  0  0  0  0  0  0  0  0  0
   12.1303    5.3980    0.0000 C   0  0  0  0  0  0  0  0  0  0  0  0
   12.8447    4.9855    0.0000 C   0  0  0  0  0  0  0  0  0  0  0  0
   13.5592    5.3980    0.0000 C   0  0  0  0  0  0  0  0  0  0  0  0
   14.2737    4.9855    0.0000 C   0  0  0  0  0  0  0  0  0  0  0  0
   14.9882    5.3980    0.0000 C   0  0  0  0  0  0  0  0  0  0  0  0
   15.7026    4.9855    0.0000 C   0  0  0  0  0  0  0  0  0  0  0  0
   16.4171    5.3980    0.0000 C   0  0  0  0  0  0  0  0  0  0  0  0
   17.1316    4.9855    0.0000 C   0  0  0  0  0  0  0  0  0  0  0  0
   17.8460    5.3980    0.0000 C   0  0  0  0  0  0  0  0  0  0  0  0
   18.5605    4.9855    0.0000 C   0  0  0  0  0  0  0  0  0  0  0  0
   19.2750    5.3980    0.0000 O   0  0  0  0  0  0  0  0  0  0  0  0
    6.7165    5.7000    0.0000 H   0  0  0  0  0  0  0  0  0  0  0  0
    6.4145    4.5730    0.0000 H   0  0  0  0  0  0  0  0  0  0  0  0
    7.5415    4.2710    0.0000 H   0  0  0  0  0  0  0  0  0  0  0  0
    7.1290    5.8105    0.0000 H   0  0  0  0  0  0  0  0  0  0  0  0
    8.6403    6.0095    0.0000 H   0  0  0  0  0  0  0  0  0  0  0  0
    8.2560    6.9375    0.0000 H   0  0  0  0  0  0  0  0  0  0  0  0
    7.2601    6.8064    0.0000 H   0  0  0  0  0  0  0  0  0  0  0  0
    8.1877    4.2483    0.0000 H   0  0  0  0  0  0  0  0  0  0  0  0
    8.9282    4.2483    0.0000 H   0  0  0  0  0  0  0  0  0  0  0  0
    9.7692    6.0567    0.0000 H   0  0  0  0  0  0  0  0  0  0  0  0
    9.2724    4.5730    0.0000 H   0  0  0  0  0  0  0  0  0  0  0  0
   10.1301    4.1730    0.0000 H   0  0  0  0  0  0  0  0  0  0  0  0
   10.6188    4.4552    0.0000 H   0  0  0  0  0  0  0  0  0  0  0  0
   11.0716    6.1353    0.0000 H   0  0  0  0  0  0  0  0  0  0  0  0
   10.3311    6.1353    0.0000 H   0  0  0  0  0  0  0  0  0  0  0  0
   11.4507    4.1613    0.0000 H   0  0  0  0  0  0  0  0  0  0  0  0
   12.1389    4.5882    0.0000 H   0  0  0  0  0  0  0  0  0  0  0  0
   12.5005    6.1353    0.0000 H   0  0  0  0  0  0  0  0  0  0  0  0
   11.7600    6.1353    0.0000 H   0  0  0  0  0  0  0  0  0  0  0  0
   12.9826    4.1721    0.0000 H   0  0  0  0  0  0  0  0  0  0  0  0
   13.4745    4.4525    0.0000 H   0  0  0  0  0  0  0  0  0  0  0  0
   13.9295    6.1353    0.0000 H   0  0  0  0  0  0  0  0  0  0  0  0
   13.1890    6.1353    0.0000 H   0  0  0  0  0  0  0  0  0  0  0  0
   14.3092    4.1613    0.0000 H   0  0  0  0  0  0  0  0  0  0  0  0
   14.9969    4.5885    0.0000 H   0  0  0  0  0  0  0  0  0  0  0  0
   15.3584    6.1353    0.0000 H   0  0  0  0  0  0  0  0  0  0  0  0
   14.6179    6.1353    0.0000 H   0  0  0  0  0  0  0  0  0  0  0  0
   15.8403    4.1721    0.0000 H   0  0  0  0  0  0  0  0  0  0  0  0
   16.3323    4.4525    0.0000 H   0  0  0  0  0  0  0  0  0  0  0  0
   16.7874    6.1353    0.0000 H   0  0  0  0  0  0  0  0  0  0  0  0
   16.0468    6.1353    0.0000 H   0  0  0  0  0  0  0  0  0  0  0  0
   17.1671    4.1613    0.0000 H   0  0  0  0  0  0  0  0  0  0  0  0
   17.8548    4.5885    0.0000 H   0  0  0  0  0  0  0  0  0  0  0  0
   18.2163    6.1353    0.0000 H   0  0  0  0  0  0  0  0  0  0  0  0
   17.4758    6.1353    0.0000 H   0  0  0  0  0  0  0  0  0  0  0  0
   18.6982    4.1721    0.0000 H   0  0  0  0  0  0  0  0  0  0  0  0
   19.1902    4.4525    0.0000 H   0  0  0  0  0  0  0  0  0  0  0  0
   19.7190    6.0933    0.0000 H   0  0  0  0  0  0  0  0  0  0  0  0
  1  2  1  0  0  0  0
  2  3  1  0  0  0  0
  2  4  1  0  0  0  0
  4  5  1  0  0  0  0
  5  6  1  0  0  0  0
  6  7  1  0  0  0  0
  7  8  1  0  0  0  0
  8  9  1  0  0  0  0
  9 10  1  0  0  0  0
 10 11  1  0  0  0  0
 11 12  1  0  0  0  0
 12 13  1  0  0  0  0
 13 14  1  0  0  0  0
 14 15  1  0  0  0  0
 15 16  1  0  0  0  0
 16 17  1  0  0  0  0
 17 18  1  0  0  0  0
 18 19  1  0  0  0  0
  1 20  1  0  0  0  0
  1 21  1  0  0  0  0
  1 22  1  0  0  0  0
  2 23  1  0  0  0  0
  3 24  1  0  0  0  0
  3 25  1  0  0  0  0
  3 26  1  0  0  0  0
  4 27  1  0  0  0  0
  4 28  1  0  0  0  0
  5 29  1  0  0  0  0
  5 30  1  0  0  0  0
  6 31  1  0  0  0  0
  6 32  1  0  0  0  0
  7 33  1  0  0  0  0
  7 34  1  0  0  0  0
  8 35  1  0  0  0  0
  8 36  1  0  0  0  0
  9 37  1  0  0  0  0
  9 38  1  0  0  0  0
 10 39  1  0  0  0  0
 10 40  1  0  0  0  0
 11 41  1  0  0  0  0
 11 42  1  0  0  0  0
 12 43  1  0  0  0  0
 12 44  1  0  0  0  0
 13 45  1  0  0  0  0
 13 46  1  0  0  0  0
 14 47  1  0  0  0  0
 14 48  1  0  0  0  0
 15 49  1  0  0  0  0
 15 50  1  0  0  0  0
 16 51  1  0  0  0  0
 16 52  1  0  0  0  0
 17 53  1  0  0  0  0
 17 54  1  0  0  0  0
 18 55  1  0  0  0  0
 18 56  1  0  0  0  0
 19 57  1  0  0  0  0
M  END
>  <InChIKey>
WNWHHMBRJJOGFJ-UHFFFAOYSA-N

>  <UN GHS>
Non-irritant

>  <CASRN>
27458-93-1

> <Outcome>
0

>  <Index>
871

>  <StandardizerResult>
Clear Stereo (ID: ClearStereo)
Wedge Clean (ID: WedgeClean)
Mesomerize (ID: Mesomerize)
Tautomerize (ID: Tautomerize)
Add Explicit Hydrogens (ID: AddExplicitH)
Neutralize (ID: Neutralize)
Clean 2D (ID: Clean2D)

> <knn Distance>
2.2360680103302

> <CpId>
871

$$$$
874
  Mrv1532301301811342D          

 32 31  0  0  0  0            999 V2000
    2.9687    2.5570    0.0000 C   0  0  0  0  0  0  0  0  0  0  0  0
    3.6832    2.1445    0.0000 C   0  0  0  0  0  0  0  0  0  0  0  0
    4.3976    2.5570    0.0000 C   0  0  0  0  0  0  0  0  0  0  0  0
    5.1121    2.1445    0.0000 C   0  0  0  0  0  0  0  0  0  0  0  0
    5.8266    2.5570    0.0000 C   0  0  0  0  0  0  0  0  0  0  0  0
    5.8266    3.3820    0.0000 C   0  0  0  0  0  0  0  0  0  0  0  0
    6.5410    3.7945    0.0000 C   0  0  0  0  0  0  0  0  0  0  0  0
    6.5410    2.1445    0.0000 C   0  0  0  0  0  0  0  0  0  0  0  0
    7.2555    2.5570    0.0000 O   0  0  0  0  0  0  0  0  0  0  0  0
    7.9700    2.1445    0.0000 C   0  0  0  0  0  0  0  0  0  0  0  0
    8.6845    2.5570    0.0000 C   0  0  0  0  0  0  0  0  0  0  0  0
    7.9700    1.3195    0.0000 O   0  0  0  0  0  0  0  0  0  0  0  0
    3.3812    3.2714    0.0000 H   0  0  0  0  0  0  0  0  0  0  0  0
    2.2542    2.9695    0.0000 H   0  0  0  0  0  0  0  0  0  0  0  0
    2.5562    1.8425    0.0000 H   0  0  0  0  0  0  0  0  0  0  0  0
    3.3129    1.4072    0.0000 H   0  0  0  0  0  0  0  0  0  0  0  0
    4.0534    1.4072    0.0000 H   0  0  0  0  0  0  0  0  0  0  0  0
    4.7679    3.2942    0.0000 H   0  0  0  0  0  0  0  0  0  0  0  0
    4.0274    3.2942    0.0000 H   0  0  0  0  0  0  0  0  0  0  0  0
    4.7418    1.4072    0.0000 H   0  0  0  0  0  0  0  0  0  0  0  0
    5.4824    1.4072    0.0000 H   0  0  0  0  0  0  0  0  0  0  0  0
    5.1121    2.9695    0.0000 H   0  0  0  0  0  0  0  0  0  0  0  0
    5.6833    4.1944    0.0000 H   0  0  0  0  0  0  0  0  0  0  0  0
    5.1946    3.9123    0.0000 H   0  0  0  0  0  0  0  0  0  0  0  0
    6.7719    3.0024    0.0000 H   0  0  0  0  0  0  0  0  0  0  0  0
    7.3653    3.8304    0.0000 H   0  0  0  0  0  0  0  0  0  0  0  0
    6.7020    4.6036    0.0000 H   0  0  0  0  0  0  0  0  0  0  0  0
    6.1708    1.4072    0.0000 H   0  0  0  0  0  0  0  0  0  0  0  0
    6.9113    1.4072    0.0000 H   0  0  0  0  0  0  0  0  0  0  0  0
    9.0970    1.8425    0.0000 H   0  0  0  0  0  0  0  0  0  0  0  0
    9.3989    2.9695    0.0000 H   0  0  0  0  0  0  0  0  0  0  0  0
    8.2720    3.2714    0.0000 H   0  0  0  0  0  0  0  0  0  0  0  0
  1  2  1  0  0  0  0
  2  3  1  0  0  0  0
  3  4  1  0  0  0  0
  4  5  1  0  0  0  0
  5  6  1  0  0  0  0
  6  7  1  0  0  0  0
  5  8  1  0  0  0  0
  8  9  1  0  0  0  0
  9 10  1  0  0  0  0
 10 11  1  0  0  0  0
 10 12  2  0  0  0  0
  1 13  1  0  0  0  0
  1 14  1  0  0  0  0
  1 15  1  0  0  0  0
  2 16  1  0  0  0  0
  2 17  1  0  0  0  0
  3 18  1  0  0  0  0
  3 19  1  0  0  0  0
  4 20  1  0  0  0  0
  4 21  1  0  0  0  0
  5 22  1  0  0  0  0
  6 23  1  0  0  0  0
  6 24  1  0  0  0  0
  7 25  1  0  0  0  0
  7 26  1  0  0  0  0
  7 27  1  0  0  0  0
  8 28  1  0  0  0  0
  8 29  1  0  0  0  0
 11 30  1  0  0  0  0
 11 31  1  0  0  0  0
 11 32  1  0  0  0  0
M  END
>  <InChIKey>
WOYWLLHHWAMFCB-UHFFFAOYSA-N

>  <UN GHS>
Non-irritant

>  <CASRN>
103-09-3

> <Outcome>
0

>  <Index>
874

>  <StandardizerResult>
Clear Stereo (ID: ClearStereo)
Wedge Clean (ID: WedgeClean)
Mesomerize (ID: Mesomerize)
Tautomerize (ID: Tautomerize)
Add Explicit Hydrogens (ID: AddExplicitH)
Neutralize (ID: Neutralize)
Clean 2D (ID: Clean2D)

> <knn Distance>
2.2360680103302

> <CpId>
874

$$$$
940
  Mrv1532301301811342D          

 42 41  0  0  0  0            999 V2000
    5.3766    3.9583    0.0000 C   0  0  0  0  0  0  0  0  0  0  0  0
    6.0911    3.5458    0.0000 C   0  0  0  0  0  0  0  0  0  0  0  0
    6.0911    2.7208    0.0000 C   0  0  0  0  0  0  0  0  0  0  0  0
    6.8056    3.9583    0.0000 C   0  0  0  0  0  0  0  0  0  0  0  0
    7.5200    3.5458    0.0000 C   0  0  0  0  0  0  0  0  0  0  0  0
    8.2345    3.9583    0.0000 C   0  0  0  0  0  0  0  0  0  0  0  0
    8.9490    3.5458    0.0000 C   0  0  0  0  0  0  0  0  0  0  0  0
    9.6635    3.9583    0.0000 C   0  0  0  0  0  0  0  0  0  0  0  0
   10.3779    3.5458    0.0000 C   0  0  0  0  0  0  0  0  0  0  0  0
   11.0924    3.9583    0.0000 C   0  0  0  0  0  0  0  0  0  0  0  0
   11.8069    3.5458    0.0000 C   0  0  0  0  0  0  0  0  0  0  0  0
   12.5213    3.9583    0.0000 C   0  0  0  0  0  0  0  0  0  0  0  0
   13.2358    3.5458    0.0000 C   0  0  0  0  0  0  0  0  0  0  0  0
   13.9503    3.9583    0.0000 O   0  0  0  0  0  0  0  0  0  0  0  0
    5.7891    4.6728    0.0000 H   0  0  0  0  0  0  0  0  0  0  0  0
    4.6622    4.3708    0.0000 H   0  0  0  0  0  0  0  0  0  0  0  0
    4.9641    3.2438    0.0000 H   0  0  0  0  0  0  0  0  0  0  0  0
    5.3766    3.1333    0.0000 H   0  0  0  0  0  0  0  0  0  0  0  0
    5.5077    2.1374    0.0000 H   0  0  0  0  0  0  0  0  0  0  0  0
    6.5036    2.0063    0.0000 H   0  0  0  0  0  0  0  0  0  0  0  0
    6.8880    2.9343    0.0000 H   0  0  0  0  0  0  0  0  0  0  0  0
    7.1758    4.6956    0.0000 H   0  0  0  0  0  0  0  0  0  0  0  0
    6.4353    4.6956    0.0000 H   0  0  0  0  0  0  0  0  0  0  0  0
    8.0168    2.8872    0.0000 H   0  0  0  0  0  0  0  0  0  0  0  0
    7.5200    4.3708    0.0000 H   0  0  0  0  0  0  0  0  0  0  0  0
    8.8665    4.4886    0.0000 H   0  0  0  0  0  0  0  0  0  0  0  0
    8.3778    4.7708    0.0000 H   0  0  0  0  0  0  0  0  0  0  0  0
    8.5787    2.8086    0.0000 H   0  0  0  0  0  0  0  0  0  0  0  0
    9.3192    2.8086    0.0000 H   0  0  0  0  0  0  0  0  0  0  0  0
   10.3865    4.3556    0.0000 H   0  0  0  0  0  0  0  0  0  0  0  0
    9.6984    4.7826    0.0000 H   0  0  0  0  0  0  0  0  0  0  0  0
   10.0077    2.8086    0.0000 H   0  0  0  0  0  0  0  0  0  0  0  0
   10.7482    2.8086    0.0000 H   0  0  0  0  0  0  0  0  0  0  0  0
   11.7221    4.4913    0.0000 H   0  0  0  0  0  0  0  0  0  0  0  0
   11.2302    4.7717    0.0000 H   0  0  0  0  0  0  0  0  0  0  0  0
   11.4366    2.8086    0.0000 H   0  0  0  0  0  0  0  0  0  0  0  0
   12.1771    2.8086    0.0000 H   0  0  0  0  0  0  0  0  0  0  0  0
   13.2445    4.3553    0.0000 H   0  0  0  0  0  0  0  0  0  0  0  0
   12.5568    4.7825    0.0000 H   0  0  0  0  0  0  0  0  0  0  0  0
   12.8656    2.8086    0.0000 H   0  0  0  0  0  0  0  0  0  0  0  0
   13.6061    2.8086    0.0000 H   0  0  0  0  0  0  0  0  0  0  0  0
   14.7753    3.9629    0.0000 H   0  0  0  0  0  0  0  0  0  0  0  0
  1  2  1  0  0  0  0
  2  3  1  0  0  0  0
  2  4  1  0  0  0  0
  4  5  1  0  0  0  0
  5  6  1  0  0  0  0
  6  7  1  0  0  0  0
  7  8  1  0  0  0  0
  8  9  1  0  0  0  0
  9 10  1  0  0  0  0
 10 11  1  0  0  0  0
 11 12  1  0  0  0  0
 12 13  1  0  0  0  0
 13 14  1  0  0  0  0
  1 15  1  0  0  0  0
  1 16  1  0  0  0  0
  1 17  1  0  0  0  0
  2 18  1  0  0  0  0
  3 19  1  0  0  0  0
  3 20  1  0  0  0  0
  3 21  1  0  0  0  0
  4 22  1  0  0  0  0
  4 23  1  0  0  0  0
  5 24  1  0  0  0  0
  5 25  1  0  0  0  0
  6 26  1  0  0  0  0
  6 27  1  0  0  0  0
  7 28  1  0  0  0  0
  7 29  1  0  0  0  0
  8 30  1  0  0  0  0
  8 31  1  0  0  0  0
  9 32  1  0  0  0  0
  9 33  1  0  0  0  0
 10 34  1  0  0  0  0
 10 35  1  0  0  0  0
 11 36  1  0  0  0  0
 11 37  1  0  0  0  0
 12 38  1  0  0  0  0
 12 39  1  0  0  0  0
 13 40  1  0  0  0  0
 13 41  1  0  0  0  0
 14 42  1  0  0  0  0
M  END
>  <InChIKey>
XUJLWPFSUCHPQL-UHFFFAOYSA-N

>  <UN GHS>
Non-irritant

>  <CASRN>
27458-92-0

> <Outcome>
0

>  <Index>
940

>  <StandardizerResult>
Clear Stereo (ID: ClearStereo)
Wedge Clean (ID: WedgeClean)
Mesomerize (ID: Mesomerize)
Tautomerize (ID: Tautomerize)
Add Explicit Hydrogens (ID: AddExplicitH)
Neutralize (ID: Neutralize)
Clean 2D (ID: Clean2D)

> <knn Distance>
2.2360680103302

> <CpId>
940

$$$$
963
  Mrv1532301301811342D          

 16 16  0  0  0  0            999 V2000
   -0.0000    2.4750    0.0000 O   0  0  0  0  0  0  0  0  0  0  0  0
    0.7145    2.0625    0.0000 C   0  0  0  0  0  0  0  0  0  0  0  0
    1.4289    2.4750    0.0000 O   0  0  0  0  0  0  0  0  0  0  0  0
    0.7145    1.2375    0.0000 C   0  0  0  0  0  0  0  0  0  0  0  0
    1.4289    0.8250    0.0000 C   0  0  0  0  0  0  0  0  0  0  0  0
    1.4289   -0.0000    0.0000 C   0  0  0  0  0  0  0  0  0  0  0  0
    0.7145   -0.4125    0.0000 C   0  0  0  0  0  0  0  0  0  0  0  0
   -0.0000   -0.0000    0.0000 C   0  0  0  0  0  0  0  0  0  0  0  0
   -0.0000    0.8250    0.0000 C   0  0  0  0  0  0  0  0  0  0  0  0
   -0.7145    1.2375    0.0000 O   0  0  0  0  0  0  0  0  0  0  0  0
   -0.0000    3.3000    0.0000 H   0  0  0  0  0  0  0  0  0  0  0  0
    2.1434    1.2375    0.0000 H   0  0  0  0  0  0  0  0  0  0  0  0
    2.1434   -0.4125    0.0000 H   0  0  0  0  0  0  0  0  0  0  0  0
    0.7145   -1.2375    0.0000 H   0  0  0  0  0  0  0  0  0  0  0  0
   -0.7145   -0.4125    0.0000 H   0  0  0  0  0  0  0  0  0  0  0  0
   -0.7145    2.0625    0.0000 H   0  0  0  0  0  0  0  0  0  0  0  0
  1  2  1  0  0  0  0
  2  3  2  0  0  0  0
  2  4  1  0  0  0  0
  4  5  4  0  0  0  0
  5  6  4  0  0  0  0
  6  7  4  0  0  0  0
  7  8  4  0  0  0  0
  8  9  4  0  0  0  0
  4  9  4  0  0  0  0
  9 10  1  0  0  0  0
  1 11  1  0  0  0  0
  5 12  1  0  0  0  0
  6 13  1  0  0  0  0
  7 14  1  0  0  0  0
  8 15  1  0  0  0  0
 10 16  1  0  0  0  0
M  END
>  <InChIKey>
YGSDEFSMJLZEOE-UHFFFAOYSA-M

>  <UN GHS>
Non-irritant

>  <CASRN>
54-21-7

> <Outcome>
0

>  <Index>
963

>  <StandardizerResult>
Dearomatize (ID: Dearomatize)
Clear Stereo (ID: ClearStereo)
Wedge Clean (ID: WedgeClean)
Mesomerize (ID: Mesomerize)
Tautomerize (ID: Tautomerize)
Aromatize (ID: Aromatize)
Add Explicit Hydrogens (ID: AddExplicitH)
Neutralize (ID: Neutralize)
Clean 2D (ID: Clean2D)

> <knn Distance>
2.2360680103302

> <CpId>
963

$$$$
1094
  Mrv1532301301811342D          

 18 17  0  0  0  0            999 V2000
   -0.1914    0.7145    0.0000 C   0  0  0  0  0  0  0  0  0  0  0  0
    0.5230    1.1270    0.0000 C   0  0  0  0  0  0  0  0  0  0  0  0
    1.2375    0.7145    0.0000 C   0  0  0  0  0  0  0  0  0  0  0  0
    1.9520    1.1270    0.0000 C   0  0  0  0  0  0  0  0  0  0  0  0
    2.6664    0.7145    0.0000 C   0  0  0  0  0  0  0  0  0  0  0  0
    3.3809    1.1270    0.0000 O   0  0  0  0  0  0  0  0  0  0  0  0
   -0.6039    1.4290    0.0000 H   0  0  0  0  0  0  0  0  0  0  0  0
   -0.9059    0.3020    0.0000 H   0  0  0  0  0  0  0  0  0  0  0  0
    0.2211    0.0000    0.0000 H   0  0  0  0  0  0  0  0  0  0  0  0
    0.8933    1.8642    0.0000 H   0  0  0  0  0  0  0  0  0  0  0  0
    0.1528    1.8642    0.0000 H   0  0  0  0  0  0  0  0  0  0  0  0
    0.8672   -0.0227    0.0000 H   0  0  0  0  0  0  0  0  0  0  0  0
    1.6078   -0.0227    0.0000 H   0  0  0  0  0  0  0  0  0  0  0  0
    2.3222    1.8642    0.0000 H   0  0  0  0  0  0  0  0  0  0  0  0
    1.5817    1.8642    0.0000 H   0  0  0  0  0  0  0  0  0  0  0  0
    2.2962   -0.0227    0.0000 H   0  0  0  0  0  0  0  0  0  0  0  0
    3.0367   -0.0227    0.0000 H   0  0  0  0  0  0  0  0  0  0  0  0
    4.0954    0.7145    0.0000 H   0  0  0  0  0  0  0  0  0  0  0  0
  1  2  1  0  0  0  0
  2  3  1  0  0  0  0
  3  4  1  0  0  0  0
  4  5  1  0  0  0  0
  5  6  1  0  0  0  0
  1  7  1  0  0  0  0
  1  8  1  0  0  0  0
  1  9  1  0  0  0  0
  2 10  1  0  0  0  0
  2 11  1  0  0  0  0
  3 12  1  0  0  0  0
  3 13  1  0  0  0  0
  4 14  1  0  0  0  0
  4 15  1  0  0  0  0
  5 16  1  0  0  0  0
  5 17  1  0  0  0  0
  6 18  1  0  0  0  0
M  END
>  <InChIKey>
InChI=1S/C5H12O/c1-2-3-4-5-6/h6H,2-5H2,1H3

>  <CASRN>
71-41-0

> <Outcome>
0

>  <Index>
1094

>  <StandardizerResult>
Clear Stereo (ID: ClearStereo)
Wedge Clean (ID: WedgeClean)
Mesomerize (ID: Mesomerize)
Tautomerize (ID: Tautomerize)
Add Explicit Hydrogens (ID: AddExplicitH)
Neutralize (ID: Neutralize)
Clean 2D (ID: Clean2D)

> <knn Distance>
2.2360680103302

> <CpId>
1094

$$$$
1115
  Mrv1532301301811342D          

 22 23  0  0  0  0            999 V2000
    0.7145   -0.4125    0.0000 Br  0  0  0  0  0  0  0  0  0  0  0  0
    0.7145   -1.2375    0.0000 C   0  0  0  0  0  0  0  0  0  0  0  0
    1.4289   -1.6500    0.0000 C   0  0  0  0  0  0  0  0  0  0  0  0
    2.1434   -1.2375    0.0000 Br  0  0  0  0  0  0  0  0  0  0  0  0
    1.4289   -2.4750    0.0000 C   0  0  0  0  0  0  0  0  0  0  0  0
    2.1434   -2.8875    0.0000 Br  0  0  0  0  0  0  0  0  0  0  0  0
    0.7145   -2.8875    0.0000 C   0  0  0  0  0  0  0  0  0  0  0  0
   -0.0000   -2.4750    0.0000 C   0  0  0  0  0  0  0  0  0  0  0  0
   -0.7145   -2.8875    0.0000 Br  0  0  0  0  0  0  0  0  0  0  0  0
   -0.0000   -1.6500    0.0000 C   0  0  0  0  0  0  0  0  0  0  0  0
   -0.7145   -1.2375    0.0000 Br  0  0  0  0  0  0  0  0  0  0  0  0
    0.7145   -3.7125    0.0000 C   0  0  0  0  0  0  0  0  0  0  0  0
    1.4289   -4.1250    0.0000 C   0  0  0  0  0  0  0  0  0  0  0  0
    2.1434   -3.7125    0.0000 Br  0  0  0  0  0  0  0  0  0  0  0  0
    1.4289   -4.9500    0.0000 C   0  0  0  0  0  0  0  0  0  0  0  0
    2.1434   -5.3625    0.0000 Br  0  0  0  0  0  0  0  0  0  0  0  0
    0.7145   -5.3625    0.0000 C   0  0  0  0  0  0  0  0  0  0  0  0
    0.7145   -6.1875    0.0000 Br  0  0  0  0  0  0  0  0  0  0  0  0
   -0.0000   -4.9500    0.0000 C   0  0  0  0  0  0  0  0  0  0  0  0
   -0.7145   -5.3625    0.0000 Br  0  0  0  0  0  0  0  0  0  0  0  0
   -0.0000   -4.1250    0.0000 C   0  0  0  0  0  0  0  0  0  0  0  0
   -0.7145   -3.7125    0.0000 Br  0  0  0  0  0  0  0  0  0  0  0  0
  1  2  1  0  0  0  0
  2  3  4  0  0  0  0
  3  4  1  0  0  0  0
  3  5  4  0  0  0  0
  5  6  1  0  0  0  0
  5  7  4  0  0  0  0
  7  8  4  0  0  0  0
  8  9  1  0  0  0  0
  8 10  4  0  0  0  0
  2 10  4  0  0  0  0
 10 11  1  0  0  0  0
  7 12  1  0  0  0  0
 12 13  4  0  0  0  0
 13 14  1  0  0  0  0
 13 15  4  0  0  0  0
 15 16  1  0  0  0  0
 15 17  4  0  0  0  0
 17 18  1  0  0  0  0
 17 19  4  0  0  0  0
 19 20  1  0  0  0  0
 19 21  4  0  0  0  0
 12 21  4  0  0  0  0
 21 22  1  0  0  0  0
M  END
>  <InChIKey>
InChI=1S/C12Br10/c13-3-1(4(14)8(18)11(21)7(3)17)2-5(15)9(19)12(22)10(20)6(2)16

>  <CASRN>
13654-09-6

> <Outcome>
0

>  <Index>
1115

>  <StandardizerResult>
Dearomatize (ID: Dearomatize)
Clear Stereo (ID: ClearStereo)
Wedge Clean (ID: WedgeClean)
Mesomerize (ID: Mesomerize)
Tautomerize (ID: Tautomerize)
Aromatize (ID: Aromatize)
Clean 2D (ID: Clean2D)

> <knn Distance>
2.2360680103302

> <CpId>
1115

$$$$
1166
  Mrv1532301301811342D          

  8  7  0  0  0  0            999 V2000
    1.6500    1.4289    0.0000 F   0  0  0  0  0  0  0  0  0  0  0  0
    1.2375    0.7145    0.0000 C   0  0  0  0  0  0  0  0  0  0  0  0
    0.5230    1.1270    0.0000 F   0  0  0  0  0  0  0  0  0  0  0  0
    1.9520    0.3020    0.0000 F   0  0  0  0  0  0  0  0  0  0  0  0
    0.8250    0.0000    0.0000 C   0  0  0  0  0  0  0  0  0  0  0  0
    1.2375   -0.7145    0.0000 Cl  0  0  0  0  0  0  0  0  0  0  0  0
    0.0000    0.0000    0.0000 Br  0  0  0  0  0  0  0  0  0  0  0  0
    1.6500    0.0000    0.0000 H   0  0  0  0  0  0  0  0  0  0  0  0
  1  2  1  0  0  0  0
  2  3  1  0  0  0  0
  2  4  1  0  0  0  0
  2  5  1  0  0  0  0
  5  6  1  0  0  0  0
  5  7  1  0  0  0  0
  5  8  1  0  0  0  0
M  END
>  <InChIKey>
InChI=1S/C2HBrClF3/c3-1(4)2(5,6)7/h1H

>  <CASRN>
151-67-7

> <Outcome>
0

>  <Index>
1166

>  <StandardizerResult>
Clear Stereo (ID: ClearStereo)
Wedge Clean (ID: WedgeClean)
Mesomerize (ID: Mesomerize)
Tautomerize (ID: Tautomerize)
Add Explicit Hydrogens (ID: AddExplicitH)
Neutralize (ID: Neutralize)
Clean 2D (ID: Clean2D)

> <knn Distance>
2.2360680103302

> <CpId>
1166

$$$$
1264
  Mrv1532301301811342D          

 53 52  0  0  0  0            999 V2000
    5.9593    4.3007    0.0000 C   0  0  0  0  0  0  0  0  0  0  0  0
    6.6738    4.7132    0.0000 C   0  0  0  0  0  0  0  0  0  0  0  0
    7.3883    4.3007    0.0000 C   0  0  0  0  0  0  0  0  0  0  0  0
    8.1027    4.7132    0.0000 C   0  0  0  0  0  0  0  0  0  0  0  0
    8.8172    4.3007    0.0000 C   0  0  0  0  0  0  0  0  0  0  0  0
    9.5317    4.7132    0.0000 C   0  0  0  0  0  0  0  0  0  0  0  0
   10.2461    4.3007    0.0000 C   0  0  0  0  0  0  0  0  0  0  0  0
   10.9606    4.7132    0.0000 C   0  0  0  0  0  0  0  0  0  0  0  0
   11.6751    4.3007    0.0000 C   0  0  0  0  0  0  0  0  0  0  0  0
   11.6751    3.4757    0.0000 O   0  0  0  0  0  0  0  0  0  0  0  0
   12.3896    4.7132    0.0000 O   0  0  0  0  0  0  0  0  0  0  0  0
   13.1040    4.3007    0.0000 C   0  0  0  0  0  0  0  0  0  0  0  0
   13.8185    4.7132    0.0000 C   0  0  0  0  0  0  0  0  0  0  0  0
   13.8185    5.5382    0.0000 C   0  0  0  0  0  0  0  0  0  0  0  0
   14.5330    5.9507    0.0000 C   0  0  0  0  0  0  0  0  0  0  0  0
   14.5330    4.3007    0.0000 C   0  0  0  0  0  0  0  0  0  0  0  0
   15.2474    4.7132    0.0000 C   0  0  0  0  0  0  0  0  0  0  0  0
   15.9619    4.3007    0.0000 C   0  0  0  0  0  0  0  0  0  0  0  0
   16.6764    4.7132    0.0000 C   0  0  0  0  0  0  0  0  0  0  0  0
    5.5468    5.0152    0.0000 H   0  0  0  0  0  0  0  0  0  0  0  0
    5.2448    3.8882    0.0000 H   0  0  0  0  0  0  0  0  0  0  0  0
    6.3718    3.5862    0.0000 H   0  0  0  0  0  0  0  0  0  0  0  0
    7.0440    5.4504    0.0000 H   0  0  0  0  0  0  0  0  0  0  0  0
    6.3035    5.4504    0.0000 H   0  0  0  0  0  0  0  0  0  0  0  0
    7.0180    3.5634    0.0000 H   0  0  0  0  0  0  0  0  0  0  0  0
    7.7585    3.5634    0.0000 H   0  0  0  0  0  0  0  0  0  0  0  0
    8.4730    5.4504    0.0000 H   0  0  0  0  0  0  0  0  0  0  0  0
    7.7325    5.4504    0.0000 H   0  0  0  0  0  0  0  0  0  0  0  0
    8.4469    3.5634    0.0000 H   0  0  0  0  0  0  0  0  0  0  0  0
    9.1875    3.5634    0.0000 H   0  0  0  0  0  0  0  0  0  0  0  0
    9.9019    5.4504    0.0000 H   0  0  0  0  0  0  0  0  0  0  0  0
    9.1614    5.4504    0.0000 H   0  0  0  0  0  0  0  0  0  0  0  0
    9.8759    3.5634    0.0000 H   0  0  0  0  0  0  0  0  0  0  0  0
   10.6164    3.5634    0.0000 H   0  0  0  0  0  0  0  0  0  0  0  0
   11.3309    5.4504    0.0000 H   0  0  0  0  0  0  0  0  0  0  0  0
   10.5904    5.4504    0.0000 H   0  0  0  0  0  0  0  0  0  0  0  0
   12.7338    3.5634    0.0000 H   0  0  0  0  0  0  0  0  0  0  0  0
   13.4743    3.5634    0.0000 H   0  0  0  0  0  0  0  0  0  0  0  0
   13.1040    5.1257    0.0000 H   0  0  0  0  0  0  0  0  0  0  0  0
   13.6752    6.3506    0.0000 H   0  0  0  0  0  0  0  0  0  0  0  0
   13.1865    6.0685    0.0000 H   0  0  0  0  0  0  0  0  0  0  0  0
   14.7638    5.1586    0.0000 H   0  0  0  0  0  0  0  0  0  0  0  0
   15.3572    5.9867    0.0000 H   0  0  0  0  0  0  0  0  0  0  0  0
   14.6939    6.7598    0.0000 H   0  0  0  0  0  0  0  0  0  0  0  0
   14.1627    3.5634    0.0000 H   0  0  0  0  0  0  0  0  0  0  0  0
   14.9032    3.5634    0.0000 H   0  0  0  0  0  0  0  0  0  0  0  0
   15.7361    5.3779    0.0000 H   0  0  0  0  0  0  0  0  0  0  0  0
   15.2474    3.8882    0.0000 H   0  0  0  0  0  0  0  0  0  0  0  0
   16.1052    3.4882    0.0000 H   0  0  0  0  0  0  0  0  0  0  0  0
   16.5939    3.7704    0.0000 H   0  0  0  0  0  0  0  0  0  0  0  0
   17.4576    4.4480    0.0000 H   0  0  0  0  0  0  0  0  0  0  0  0
   17.1197    5.4090    0.0000 H   0  0  0  0  0  0  0  0  0  0  0  0
   16.1059    5.3091    0.0000 H   0  0  0  0  0  0  0  0  0  0  0  0
  1  2  1  0  0  0  0
  2  3  1  0  0  0  0
  3  4  1  0  0  0  0
  4  5  1  0  0  0  0
  5  6  1  0  0  0  0
  6  7  1  0  0  0  0
  7  8  1  0  0  0  0
  8  9  1  0  0  0  0
  9 10  2  0  0  0  0
  9 11  1  0  0  0  0
 11 12  1  0  0  0  0
 12 13  1  0  0  0  0
 13 14  1  0  0  0  0
 14 15  1  0  0  0  0
 13 16  1  0  0  0  0
 16 17  1  0  0  0  0
 17 18  1  0  0  0  0
 18 19  1  0  0  0  0
  1 20  1  0  0  0  0
  1 21  1  0  0  0  0
  1 22  1  0  0  0  0
  2 23  1  0  0  0  0
  2 24  1  0  0  0  0
  3 25  1  0  0  0  0
  3 26  1  0  0  0  0
  4 27  1  0  0  0  0
  4 28  1  0  0  0  0
  5 29  1  0  0  0  0
  5 30  1  0  0  0  0
  6 31  1  0  0  0  0
  6 32  1  0  0  0  0
  7 33  1  0  0  0  0
  7 34  1  0  0  0  0
  8 35  1  0  0  0  0
  8 36  1  0  0  0  0
 12 37  1  0  0  0  0
 12 38  1  0  0  0  0
 13 39  1  0  0  0  0
 14 40  1  0  0  0  0
 14 41  1  0  0  0  0
 15 42  1  0  0  0  0
 15 43  1  0  0  0  0
 15 44  1  0  0  0  0
 16 45  1  0  0  0  0
 16 46  1  0  0  0  0
 17 47  1  0  0  0  0
 17 48  1  0  0  0  0
 18 49  1  0  0  0  0
 18 50  1  0  0  0  0
 19 51  1  0  0  0  0
 19 52  1  0  0  0  0
 19 53  1  0  0  0  0
M  END
>  <InChIKey>
InChI=1S/C17H34O2/c1-4-7-9-10-11-12-14-17(18)19-15-16(6-3)13-8-5-2/h16H,4-15H2,1-3H3

>  <CASRN>
59587-44-9

> <Outcome>
0

>  <Index>
1264

>  <StandardizerResult>
Clear Stereo (ID: ClearStereo)
Wedge Clean (ID: WedgeClean)
Mesomerize (ID: Mesomerize)
Tautomerize (ID: Tautomerize)
Add Explicit Hydrogens (ID: AddExplicitH)
Neutralize (ID: Neutralize)
Clean 2D (ID: Clean2D)

> <knn Distance>
2.2360680103302

> <CpId>
1264

$$$$
1595
  Mrv1532301301811342D          

 68 67  0  0  0  0            999 V2000
   10.3944    6.8538    0.0000 C   0  0  0  0  0  0  0  0  0  0  0  0
   11.1089    6.4413    0.0000 C   0  0  0  0  0  0  0  0  0  0  0  0
   11.8233    6.8538    0.0000 C   0  0  0  0  0  0  0  0  0  0  0  0
   12.5378    6.4413    0.0000 C   0  0  0  0  0  0  0  0  0  0  0  0
   13.2523    6.8538    0.0000 C   0  0  0  0  0  0  0  0  0  0  0  0
   13.9667    6.4413    0.0000 C   0  0  0  0  0  0  0  0  0  0  0  0
   14.6812    6.8538    0.0000 C   0  0  0  0  0  0  0  0  0  0  0  0
   15.3957    6.4413    0.0000 C   0  0  0  0  0  0  0  0  0  0  0  0
   16.1102    6.8538    0.0000 C   0  0  0  0  0  0  0  0  0  0  0  0
   16.8246    6.4413    0.0000 C   0  0  0  0  0  0  0  0  0  0  0  0
   17.5391    6.8538    0.0000 C   0  0  0  0  0  0  0  0  0  0  0  0
   18.2536    6.4413    0.0000 C   0  0  0  0  0  0  0  0  0  0  0  0
   18.9680    6.8538    0.0000 C   0  0  0  0  0  0  0  0  0  0  0  0
   19.6825    6.4413    0.0000 C   0  0  0  0  0  0  0  0  0  0  0  0
   19.6825    5.6163    0.0000 O   0  0  0  0  0  0  0  0  0  0  0  0
   20.3970    6.8538    0.0000 O   0  0  0  0  0  0  0  0  0  0  0  0
   21.1115    6.4413    0.0000 C   0  0  0  0  0  0  0  0  0  0  0  0
   21.8259    6.8538    0.0000 C   0  0  0  0  0  0  0  0  0  0  0  0
   21.8259    7.6788    0.0000 C   0  0  0  0  0  0  0  0  0  0  0  0
   22.5404    8.0913    0.0000 C   0  0  0  0  0  0  0  0  0  0  0  0
   22.5404    6.4413    0.0000 C   0  0  0  0  0  0  0  0  0  0  0  0
   23.2549    6.8538    0.0000 C   0  0  0  0  0  0  0  0  0  0  0  0
   23.9693    6.4413    0.0000 C   0  0  0  0  0  0  0  0  0  0  0  0
   24.6838    6.8538    0.0000 C   0  0  0  0  0  0  0  0  0  0  0  0
   10.8069    7.5683    0.0000 H   0  0  0  0  0  0  0  0  0  0  0  0
    9.6799    7.2663    0.0000 H   0  0  0  0  0  0  0  0  0  0  0  0
    9.9819    6.1393    0.0000 H   0  0  0  0  0  0  0  0  0  0  0  0
   10.7386    5.7040    0.0000 H   0  0  0  0  0  0  0  0  0  0  0  0
   11.4791    5.7040    0.0000 H   0  0  0  0  0  0  0  0  0  0  0  0
   12.1936    7.5910    0.0000 H   0  0  0  0  0  0  0  0  0  0  0  0
   11.4531    7.5910    0.0000 H   0  0  0  0  0  0  0  0  0  0  0  0
   12.1675    5.7040    0.0000 H   0  0  0  0  0  0  0  0  0  0  0  0
   12.9081    5.7040    0.0000 H   0  0  0  0  0  0  0  0  0  0  0  0
   13.6225    7.5910    0.0000 H   0  0  0  0  0  0  0  0  0  0  0  0
   12.8820    7.5910    0.0000 H   0  0  0  0  0  0  0  0  0  0  0  0
   13.5965    5.7040    0.0000 H   0  0  0  0  0  0  0  0  0  0  0  0
   14.3370    5.7040    0.0000 H   0  0  0  0  0  0  0  0  0  0  0  0
   15.0515    7.5910    0.0000 H   0  0  0  0  0  0  0  0  0  0  0  0
   14.3110    7.5910    0.0000 H   0  0  0  0  0  0  0  0  0  0  0  0
   15.0254    5.7040    0.0000 H   0  0  0  0  0  0  0  0  0  0  0  0
   15.7659    5.7040    0.0000 H   0  0  0  0  0  0  0  0  0  0  0  0
   16.4804    7.5910    0.0000 H   0  0  0  0  0  0  0  0  0  0  0  0
   15.7399    7.5910    0.0000 H   0  0  0  0  0  0  0  0  0  0  0  0
   16.4544    5.7040    0.0000 H   0  0  0  0  0  0  0  0  0  0  0  0
   17.1949    5.7040    0.0000 H   0  0  0  0  0  0  0  0  0  0  0  0
   17.9094    7.5910    0.0000 H   0  0  0  0  0  0  0  0  0  0  0  0
   17.1688    7.5910    0.0000 H   0  0  0  0  0  0  0  0  0  0  0  0
   17.8833    5.7040    0.0000 H   0  0  0  0  0  0  0  0  0  0  0  0
   18.6238    5.7040    0.0000 H   0  0  0  0  0  0  0  0  0  0  0  0
   19.3383    7.5910    0.0000 H   0  0  0  0  0  0  0  0  0  0  0  0
   18.5978    7.5910    0.0000 H   0  0  0  0  0  0  0  0  0  0  0  0
   20.7412    5.7040    0.0000 H   0  0  0  0  0  0  0  0  0  0  0  0
   21.4817    5.7040    0.0000 H   0  0  0  0  0  0  0  0  0  0  0  0
   21.1115    7.2663    0.0000 H   0  0  0  0  0  0  0  0  0  0  0  0
   21.6827    8.4912    0.0000 H   0  0  0  0  0  0  0  0  0  0  0  0
   21.1939    8.2091    0.0000 H   0  0  0  0  0  0  0  0  0  0  0  0
   22.7713    7.2992    0.0000 H   0  0  0  0  0  0  0  0  0  0  0  0
   23.3646    8.1273    0.0000 H   0  0  0  0  0  0  0  0  0  0  0  0
   22.7013    8.9004    0.0000 H   0  0  0  0  0  0  0  0  0  0  0  0
   22.1701    5.7040    0.0000 H   0  0  0  0  0  0  0  0  0  0  0  0
   22.9107    5.7040    0.0000 H   0  0  0  0  0  0  0  0  0  0  0  0
   23.7436    7.5185    0.0000 H   0  0  0  0  0  0  0  0  0  0  0  0
   23.2549    6.0288    0.0000 H   0  0  0  0  0  0  0  0  0  0  0  0
   24.1126    5.6288    0.0000 H   0  0  0  0  0  0  0  0  0  0  0  0
   24.6013    5.9110    0.0000 H   0  0  0  0  0  0  0  0  0  0  0  0
   25.4650    6.5886    0.0000 H   0  0  0  0  0  0  0  0  0  0  0  0
   25.1271    7.5496    0.0000 H   0  0  0  0  0  0  0  0  0  0  0  0
   24.1133    7.4497    0.0000 H   0  0  0  0  0  0  0  0  0  0  0  0
  1  2  1  0  0  0  0
  2  3  1  0  0  0  0
  3  4  1  0  0  0  0
  4  5  1  0  0  0  0
  5  6  1  0  0  0  0
  6  7  1  0  0  0  0
  7  8  1  0  0  0  0
  8  9  1  0  0  0  0
  9 10  1  0  0  0  0
 10 11  1  0  0  0  0
 11 12  1  0  0  0  0
 12 13  1  0  0  0  0
 13 14  1  0  0  0  0
 14 15  2  0  0  0  0
 14 16  1  0  0  0  0
 16 17  1  0  0  0  0
 17 18  1  0  0  0  0
 18 19  1  0  0  0  0
 19 20  1  0  0  0  0
 18 21  1  0  0  0  0
 21 22  1  0  0  0  0
 22 23  1  0  0  0  0
 23 24  1  0  0  0  0
  1 25  1  0  0  0  0
  1 26  1  0  0  0  0
  1 27  1  0  0  0  0
  2 28  1  0  0  0  0
  2 29  1  0  0  0  0
  3 30  1  0  0  0  0
  3 31  1  0  0  0  0
  4 32  1  0  0  0  0
  4 33  1  0  0  0  0
  5 34  1  0  0  0  0
  5 35  1  0  0  0  0
  6 36  1  0  0  0  0
  6 37  1  0  0  0  0
  7 38  1  0  0  0  0
  7 39  1  0  0  0  0
  8 40  1  0  0  0  0
  8 41  1  0  0  0  0
  9 42  1  0  0  0  0
  9 43  1  0  0  0  0
 10 44  1  0  0  0  0
 10 45  1  0  0  0  0
 11 46  1  0  0  0  0
 11 47  1  0  0  0  0
 12 48  1  0  0  0  0
 12 49  1  0  0  0  0
 13 50  1  0  0  0  0
 13 51  1  0  0  0  0
 17 52  1  0  0  0  0
 17 53  1  0  0  0  0
 18 54  1  0  0  0  0
 19 55  1  0  0  0  0
 19 56  1  0  0  0  0
 20 57  1  0  0  0  0
 20 58  1  0  0  0  0
 20 59  1  0  0  0  0
 21 60  1  0  0  0  0
 21 61  1  0  0  0  0
 22 62  1  0  0  0  0
 22 63  1  0  0  0  0
 23 64  1  0  0  0  0
 23 65  1  0  0  0  0
 24 66  1  0  0  0  0
 24 67  1  0  0  0  0
 24 68  1  0  0  0  0
M  END
>  <InChIKey>
InChI=1S/C22H44O2/c1-4-7-9-10-11-12-13-14-15-16-17-19-22(23)24-20-21(6-3)18-8-5-2/h21H,4-20H2,1-3H3

>  <CASRN>
29806-75-5

> <Outcome>
0

>  <Index>
1595

>  <StandardizerResult>
Clear Stereo (ID: ClearStereo)
Wedge Clean (ID: WedgeClean)
Mesomerize (ID: Mesomerize)
Tautomerize (ID: Tautomerize)
Add Explicit Hydrogens (ID: AddExplicitH)
Neutralize (ID: Neutralize)
Clean 2D (ID: Clean2D)

> <knn Distance>
2.2360680103302

> <CpId>
1595

$$$$
1816
  Mrv1532301301811342D          

 18 18  0  0  0  0            999 V2000
    0.7145    2.0625    0.0000 C   0  0  0  0  0  0  0  0  0  0  0  0
    0.7145    1.2375    0.0000 C   0  0  0  0  0  0  0  0  0  0  0  0
    1.4289    0.8250    0.0000 C   0  0  0  0  0  0  0  0  0  0  0  0
    1.4289    0.0000    0.0000 C   0  0  0  0  0  0  0  0  0  0  0  0
    0.7145   -0.4125    0.0000 C   0  0  0  0  0  0  0  0  0  0  0  0
   -0.0000    0.0000    0.0000 C   0  0  0  0  0  0  0  0  0  0  0  0
   -0.7145   -0.4125    0.0000 C   0  0  0  0  0  0  0  0  0  0  0  0
   -0.0000    0.8250    0.0000 C   0  0  0  0  0  0  0  0  0  0  0  0
    1.5395    2.0625    0.0000 H   0  0  0  0  0  0  0  0  0  0  0  0
    0.7145    2.8875    0.0000 H   0  0  0  0  0  0  0  0  0  0  0  0
   -0.1105    2.0625    0.0000 H   0  0  0  0  0  0  0  0  0  0  0  0
    2.1434    1.2375    0.0000 H   0  0  0  0  0  0  0  0  0  0  0  0
    2.1434   -0.4125    0.0000 H   0  0  0  0  0  0  0  0  0  0  0  0
    0.7145   -1.2375    0.0000 H   0  0  0  0  0  0  0  0  0  0  0  0
   -1.1270    0.3020    0.0000 H   0  0  0  0  0  0  0  0  0  0  0  0
   -1.4289   -0.8250    0.0000 H   0  0  0  0  0  0  0  0  0  0  0  0
   -0.3020   -1.1270    0.0000 H   0  0  0  0  0  0  0  0  0  0  0  0
   -0.7145    1.2375    0.0000 H   0  0  0  0  0  0  0  0  0  0  0  0
  1  2  1  0  0  0  0
  2  3  4  0  0  0  0
  3  4  4  0  0  0  0
  4  5  4  0  0  0  0
  5  6  4  0  0  0  0
  6  7  1  0  0  0  0
  6  8  4  0  0  0  0
  2  8  4  0  0  0  0
  1  9  1  0  0  0  0
  1 10  1  0  0  0  0
  1 11  1  0  0  0  0
  3 12  1  0  0  0  0
  4 13  1  0  0  0  0
  5 14  1  0  0  0  0
  7 15  1  0  0  0  0
  7 16  1  0  0  0  0
  7 17  1  0  0  0  0
  8 18  1  0  0  0  0
M  END
>  <InChIKey>
InChI=1S/C8H10/c1-7-4-3-5-8(2)6-7/h3-6H,1-2H3

>  <UN GHS>
Non-irritant

>  <CASRN>
108-38-3 1330-20-7

> <Outcome>
0

>  <Index>
1816

>  <StandardizerResult>
Dearomatize (ID: Dearomatize)
Clear Stereo (ID: ClearStereo)
Wedge Clean (ID: WedgeClean)
Mesomerize (ID: Mesomerize)
Tautomerize (ID: Tautomerize)
Aromatize (ID: Aromatize)
Add Explicit Hydrogens (ID: AddExplicitH)
Neutralize (ID: Neutralize)
Clean 2D (ID: Clean2D)

> <knn Distance>
2.2360680103302

> <CpId>
1816

$$$$
1906
  Mrv1532301301811342D          

 12 11  0  0  0  0            999 V2000
    1.6500    2.8579    0.0000 F   0  0  0  0  0  0  0  0  0  0  0  0
    1.2375    2.1434    0.0000 C   0  0  0  0  0  0  0  0  0  0  0  0
    0.4125    2.1434    0.0000 F   0  0  0  0  0  0  0  0  0  0  0  0
    1.6500    1.4289    0.0000 O   0  0  0  0  0  0  0  0  0  0  0  0
    1.2375    0.7145    0.0000 C   0  0  0  0  0  0  0  0  0  0  0  0
    0.5230    1.1270    0.0000 F   0  0  0  0  0  0  0  0  0  0  0  0
    1.9520    0.3020    0.0000 F   0  0  0  0  0  0  0  0  0  0  0  0
    0.8250   -0.0000    0.0000 C   0  0  0  0  0  0  0  0  0  0  0  0
    1.2375   -0.7145    0.0000 F   0  0  0  0  0  0  0  0  0  0  0  0
   -0.0000   -0.0000    0.0000 Cl  0  0  0  0  0  0  0  0  0  0  0  0
    0.8250    2.8579    0.0000 H   0  0  0  0  0  0  0  0  0  0  0  0
    1.6500   -0.0000    0.0000 H   0  0  0  0  0  0  0  0  0  0  0  0
  1  2  1  0  0  0  0
  2  3  1  0  0  0  0
  2  4  1  0  0  0  0
  4  5  1  0  0  0  0
  5  6  1  0  0  0  0
  5  7  1  0  0  0  0
  5  8  1  0  0  0  0
  8  9  1  0  0  0  0
  8 10  1  0  0  0  0
  2 11  1  0  0  0  0
  8 12  1  0  0  0  0
M  END
>  <InChIKey>
InChI=1S/C3H2ClF5O/c4-1(5)3(8,9)10-2(6)7/h1-2H

>  <CASRN>
13838-16-9

> <Outcome>
0

>  <Index>
1906

>  <StandardizerResult>
Clear Stereo (ID: ClearStereo)
Wedge Clean (ID: WedgeClean)
Mesomerize (ID: Mesomerize)
Tautomerize (ID: Tautomerize)
Add Explicit Hydrogens (ID: AddExplicitH)
Neutralize (ID: Neutralize)
Clean 2D (ID: Clean2D)

> <knn Distance>
2.2360680103302

> <CpId>
1906

$$$$
2072
  Mrv1532301301811342D          

 39 38  0  0  0  0            999 V2000
    5.4730    3.9849    0.0000 C   0  0  0  0  0  0  0  0  0  0  0  0
    6.1875    3.5724    0.0000 C   0  0  0  0  0  0  0  0  0  0  0  0
    6.9020    3.9849    0.0000 C   0  0  0  0  0  0  0  0  0  0  0  0
    7.6164    3.5724    0.0000 C   0  0  0  0  0  0  0  0  0  0  0  0
    8.3309    3.9849    0.0000 C   0  0  0  0  0  0  0  0  0  0  0  0
    9.0454    3.5724    0.0000 C   0  0  0  0  0  0  0  0  0  0  0  0
    9.7599    3.9849    0.0000 C   0  0  0  0  0  0  0  0  0  0  0  0
   10.4743    3.5724    0.0000 C   0  0  0  0  0  0  0  0  0  0  0  0
   11.1888    3.9849    0.0000 C   0  0  0  0  0  0  0  0  0  0  0  0
   11.9033    3.5724    0.0000 O   0  0  0  0  0  0  0  0  0  0  0  0
   12.6177    3.9849    0.0000 C   0  0  0  0  0  0  0  0  0  0  0  0
   12.6177    4.8099    0.0000 O   0  0  0  0  0  0  0  0  0  0  0  0
   13.3322    3.5724    0.0000 C   0  0  0  0  0  0  0  0  0  0  0  0
   14.0467    3.9849    0.0000 C   0  0  0  0  0  0  0  0  0  0  0  0
   13.3322    2.7474    0.0000 C   0  0  0  0  0  0  0  0  0  0  0  0
    5.8855    4.6994    0.0000 H   0  0  0  0  0  0  0  0  0  0  0  0
    4.7586    4.3974    0.0000 H   0  0  0  0  0  0  0  0  0  0  0  0
    5.0605    3.2704    0.0000 H   0  0  0  0  0  0  0  0  0  0  0  0
    5.8172    2.8352    0.0000 H   0  0  0  0  0  0  0  0  0  0  0  0
    6.5578    2.8352    0.0000 H   0  0  0  0  0  0  0  0  0  0  0  0
    7.2722    4.7221    0.0000 H   0  0  0  0  0  0  0  0  0  0  0  0
    6.5317    4.7221    0.0000 H   0  0  0  0  0  0  0  0  0  0  0  0
    7.2462    2.8352    0.0000 H   0  0  0  0  0  0  0  0  0  0  0  0
    7.9867    2.8352    0.0000 H   0  0  0  0  0  0  0  0  0  0  0  0
    8.7012    4.7221    0.0000 H   0  0  0  0  0  0  0  0  0  0  0  0
    7.9607    4.7221    0.0000 H   0  0  0  0  0  0  0  0  0  0  0  0
    8.6751    2.8352    0.0000 H   0  0  0  0  0  0  0  0  0  0  0  0
    9.4156    2.8352    0.0000 H   0  0  0  0  0  0  0  0  0  0  0  0
   10.1301    4.7221    0.0000 H   0  0  0  0  0  0  0  0  0  0  0  0
    9.3896    4.7221    0.0000 H   0  0  0  0  0  0  0  0  0  0  0  0
   10.1041    2.8352    0.0000 H   0  0  0  0  0  0  0  0  0  0  0  0
   10.8446    2.8352    0.0000 H   0  0  0  0  0  0  0  0  0  0  0  0
   11.5591    4.7221    0.0000 H   0  0  0  0  0  0  0  0  0  0  0  0
   10.8185    4.7221    0.0000 H   0  0  0  0  0  0  0  0  0  0  0  0
   14.4592    3.2704    0.0000 H   0  0  0  0  0  0  0  0  0  0  0  0
   14.7611    4.3974    0.0000 H   0  0  0  0  0  0  0  0  0  0  0  0
   13.6342    4.6994    0.0000 H   0  0  0  0  0  0  0  0  0  0  0  0
   12.6177    2.3349    0.0000 H   0  0  0  0  0  0  0  0  0  0  0  0
   14.0467    2.3349    0.0000 H   0  0  0  0  0  0  0  0  0  0  0  0
  1  2  1  0  0  0  0
  2  3  1  0  0  0  0
  3  4  1  0  0  0  0
  4  5  1  0  0  0  0
  5  6  1  0  0  0  0
  6  7  1  0  0  0  0
  7  8  1  0  0  0  0
  8  9  1  0  0  0  0
  9 10  1  0  0  0  0
 10 11  1  0  0  0  0
 11 12  2  0  0  0  0
 11 13  1  0  0  0  0
 13 14  1  0  0  0  0
 13 15  2  0  0  0  0
  1 16  1  0  0  0  0
  1 17  1  0  0  0  0
  1 18  1  0  0  0  0
  2 19  1  0  0  0  0
  2 20  1  0  0  0  0
  3 21  1  0  0  0  0
  3 22  1  0  0  0  0
  4 23  1  0  0  0  0
  4 24  1  0  0  0  0
  5 25  1  0  0  0  0
  5 26  1  0  0  0  0
  6 27  1  0  0  0  0
  6 28  1  0  0  0  0
  7 29  1  0  0  0  0
  7 30  1  0  0  0  0
  8 31  1  0  0  0  0
  8 32  1  0  0  0  0
  9 33  1  0  0  0  0
  9 34  1  0  0  0  0
 14 35  1  0  0  0  0
 14 36  1  0  0  0  0
 14 37  1  0  0  0  0
 15 38  1  0  0  0  0
 15 39  1  0  0  0  0
M  END
>  <InChIKey>
InChI=1S/C13H24O2/c1-4-5-6-7-8-9-10-11-15-13(14)12(2)3/h2,4-11H2,1,3H3

> <Outcome>
0

>  <Index>
2072

>  <StandardizerResult>
Clear Stereo (ID: ClearStereo)
Wedge Clean (ID: WedgeClean)
Mesomerize (ID: Mesomerize)
Tautomerize (ID: Tautomerize)
Add Explicit Hydrogens (ID: AddExplicitH)
Neutralize (ID: Neutralize)
Clean 2D (ID: Clean2D)

> <knn Distance>
2.2360680103302

> <CpId>
2072

$$$$
2150
  Mrv1532301301811342D          

 33 32  0  0  0  0            999 V2000
    4.2355    3.2704    0.0000 C   0  0  0  0  0  0  0  0  0  0  0  0
    4.9500    2.8579    0.0000 C   0  0  0  0  0  0  0  0  0  0  0  0
    5.6645    3.2704    0.0000 C   0  0  0  0  0  0  0  0  0  0  0  0
    6.3789    2.8579    0.0000 C   0  0  0  0  0  0  0  0  0  0  0  0
    7.0934    3.2704    0.0000 C   0  0  0  0  0  0  0  0  0  0  0  0
    7.8079    2.8579    0.0000 C   0  0  0  0  0  0  0  0  0  0  0  0
    8.5224    3.2704    0.0000 C   0  0  0  0  0  0  0  0  0  0  0  0
    9.2368    2.8579    0.0000 O   0  0  0  0  0  0  0  0  0  0  0  0
    9.9513    3.2704    0.0000 C   0  0  0  0  0  0  0  0  0  0  0  0
    9.9513    4.0954    0.0000 O   0  0  0  0  0  0  0  0  0  0  0  0
   10.6658    2.8579    0.0000 C   0  0  0  0  0  0  0  0  0  0  0  0
   11.3802    3.2704    0.0000 C   0  0  0  0  0  0  0  0  0  0  0  0
   10.6658    2.0329    0.0000 C   0  0  0  0  0  0  0  0  0  0  0  0
    4.6480    3.9849    0.0000 H   0  0  0  0  0  0  0  0  0  0  0  0
    3.5211    3.6829    0.0000 H   0  0  0  0  0  0  0  0  0  0  0  0
    3.8230    2.5559    0.0000 H   0  0  0  0  0  0  0  0  0  0  0  0
    4.5797    2.1207    0.0000 H   0  0  0  0  0  0  0  0  0  0  0  0
    5.3203    2.1207    0.0000 H   0  0  0  0  0  0  0  0  0  0  0  0
    6.0347    4.0076    0.0000 H   0  0  0  0  0  0  0  0  0  0  0  0
    5.2942    4.0076    0.0000 H   0  0  0  0  0  0  0  0  0  0  0  0
    6.0087    2.1207    0.0000 H   0  0  0  0  0  0  0  0  0  0  0  0
    6.7492    2.1207    0.0000 H   0  0  0  0  0  0  0  0  0  0  0  0
    7.4637    4.0076    0.0000 H   0  0  0  0  0  0  0  0  0  0  0  0
    6.7232    4.0076    0.0000 H   0  0  0  0  0  0  0  0  0  0  0  0
    7.4376    2.1207    0.0000 H   0  0  0  0  0  0  0  0  0  0  0  0
    8.1781    2.1207    0.0000 H   0  0  0  0  0  0  0  0  0  0  0  0
    8.8926    4.0076    0.0000 H   0  0  0  0  0  0  0  0  0  0  0  0
    8.1521    4.0076    0.0000 H   0  0  0  0  0  0  0  0  0  0  0  0
   11.7927    2.5559    0.0000 H   0  0  0  0  0  0  0  0  0  0  0  0
   12.0947    3.6829    0.0000 H   0  0  0  0  0  0  0  0  0  0  0  0
   10.9677    3.9849    0.0000 H   0  0  0  0  0  0  0  0  0  0  0  0
    9.9513    1.6204    0.0000 H   0  0  0  0  0  0  0  0  0  0  0  0
   11.3802    1.6204    0.0000 H   0  0  0  0  0  0  0  0  0  0  0  0
  1  2  1  0  0  0  0
  2  3  1  0  0  0  0
  3  4  1  0  0  0  0
  4  5  1  0  0  0  0
  5  6  1  0  0  0  0
  6  7  1  0  0  0  0
  7  8  1  0  0  0  0
  8  9  1  0  0  0  0
  9 10  2  0  0  0  0
  9 11  1  0  0  0  0
 11 12  1  0  0  0  0
 11 13  2  0  0  0  0
  1 14  1  0  0  0  0
  1 15  1  0  0  0  0
  1 16  1  0  0  0  0
  2 17  1  0  0  0  0
  2 18  1  0  0  0  0
  3 19  1  0  0  0  0
  3 20  1  0  0  0  0
  4 21  1  0  0  0  0
  4 22  1  0  0  0  0
  5 23  1  0  0  0  0
  5 24  1  0  0  0  0
  6 25  1  0  0  0  0
  6 26  1  0  0  0  0
  7 27  1  0  0  0  0
  7 28  1  0  0  0  0
 12 29  1  0  0  0  0
 12 30  1  0  0  0  0
 12 31  1  0  0  0  0
 13 32  1  0  0  0  0
 13 33  1  0  0  0  0
M  END
>  <InChIKey>
InChI=1S/C11H20O2/c1-4-5-6-7-8-9-13-11(12)10(2)3/h2,4-9H2,1,3H3

>  <UN GHS>
Non-irritant

>  <CASRN>
5459-37-0

> <Outcome>
0

>  <Index>
2150

>  <StandardizerResult>
Clear Stereo (ID: ClearStereo)
Wedge Clean (ID: WedgeClean)
Mesomerize (ID: Mesomerize)
Tautomerize (ID: Tautomerize)
Add Explicit Hydrogens (ID: AddExplicitH)
Neutralize (ID: Neutralize)
Clean 2D (ID: Clean2D)

> <knn Distance>
2.2360680103302

> <CpId>
2150

$$$$
2152
  Mrv1532301301811342D          

 36 35  0  0  0  0            999 V2000
    5.4730    3.9849    0.0000 C   0  0  0  0  0  0  0  0  0  0  0  0
    6.1875    3.5724    0.0000 C   0  0  0  0  0  0  0  0  0  0  0  0
    6.9020    3.9849    0.0000 C   0  0  0  0  0  0  0  0  0  0  0  0
    7.6164    3.5724    0.0000 C   0  0  0  0  0  0  0  0  0  0  0  0
    8.3309    3.9849    0.0000 C   0  0  0  0  0  0  0  0  0  0  0  0
    9.0454    3.5724    0.0000 C   0  0  0  0  0  0  0  0  0  0  0  0
    9.7599    3.9849    0.0000 C   0  0  0  0  0  0  0  0  0  0  0  0
   10.4743    3.5724    0.0000 C   0  0  0  0  0  0  0  0  0  0  0  0
   11.1888    3.9849    0.0000 C   0  0  0  0  0  0  0  0  0  0  0  0
   11.9033    3.5724    0.0000 O   0  0  0  0  0  0  0  0  0  0  0  0
   12.6177    3.9849    0.0000 C   0  0  0  0  0  0  0  0  0  0  0  0
   12.6177    4.8099    0.0000 O   0  0  0  0  0  0  0  0  0  0  0  0
   13.3322    3.5724    0.0000 C   0  0  0  0  0  0  0  0  0  0  0  0
   14.0467    3.9849    0.0000 C   0  0  0  0  0  0  0  0  0  0  0  0
    5.8855    4.6994    0.0000 H   0  0  0  0  0  0  0  0  0  0  0  0
    4.7586    4.3974    0.0000 H   0  0  0  0  0  0  0  0  0  0  0  0
    5.0605    3.2704    0.0000 H   0  0  0  0  0  0  0  0  0  0  0  0
    5.8172    2.8352    0.0000 H   0  0  0  0  0  0  0  0  0  0  0  0
    6.5578    2.8352    0.0000 H   0  0  0  0  0  0  0  0  0  0  0  0
    7.2722    4.7221    0.0000 H   0  0  0  0  0  0  0  0  0  0  0  0
    6.5317    4.7221    0.0000 H   0  0  0  0  0  0  0  0  0  0  0  0
    7.2462    2.8352    0.0000 H   0  0  0  0  0  0  0  0  0  0  0  0
    7.9867    2.8352    0.0000 H   0  0  0  0  0  0  0  0  0  0  0  0
    8.7012    4.7221    0.0000 H   0  0  0  0  0  0  0  0  0  0  0  0
    7.9607    4.7221    0.0000 H   0  0  0  0  0  0  0  0  0  0  0  0
    8.6751    2.8352    0.0000 H   0  0  0  0  0  0  0  0  0  0  0  0
    9.4156    2.8352    0.0000 H   0  0  0  0  0  0  0  0  0  0  0  0
   10.1301    4.7221    0.0000 H   0  0  0  0  0  0  0  0  0  0  0  0
    9.3896    4.7221    0.0000 H   0  0  0  0  0  0  0  0  0  0  0  0
   10.1041    2.8352    0.0000 H   0  0  0  0  0  0  0  0  0  0  0  0
   10.8446    2.8352    0.0000 H   0  0  0  0  0  0  0  0  0  0  0  0
   11.5591    4.7221    0.0000 H   0  0  0  0  0  0  0  0  0  0  0  0
   10.8185    4.7221    0.0000 H   0  0  0  0  0  0  0  0  0  0  0  0
   13.3322    2.7474    0.0000 H   0  0  0  0  0  0  0  0  0  0  0  0
   14.7611    3.5724    0.0000 H   0  0  0  0  0  0  0  0  0  0  0  0
   14.0467    4.8099    0.0000 H   0  0  0  0  0  0  0  0  0  0  0  0
  1  2  1  0  0  0  0
  2  3  1  0  0  0  0
  3  4  1  0  0  0  0
  4  5  1  0  0  0  0
  5  6  1  0  0  0  0
  6  7  1  0  0  0  0
  7  8  1  0  0  0  0
  8  9  1  0  0  0  0
  9 10  1  0  0  0  0
 10 11  1  0  0  0  0
 11 12  2  0  0  0  0
 11 13  1  0  0  0  0
 13 14  2  0  0  0  0
  1 15  1  0  0  0  0
  1 16  1  0  0  0  0
  1 17  1  0  0  0  0
  2 18  1  0  0  0  0
  2 19  1  0  0  0  0
  3 20  1  0  0  0  0
  3 21  1  0  0  0  0
  4 22  1  0  0  0  0
  4 23  1  0  0  0  0
  5 24  1  0  0  0  0
  5 25  1  0  0  0  0
  6 26  1  0  0  0  0
  6 27  1  0  0  0  0
  7 28  1  0  0  0  0
  7 29  1  0  0  0  0
  8 30  1  0  0  0  0
  8 31  1  0  0  0  0
  9 32  1  0  0  0  0
  9 33  1  0  0  0  0
 13 34  1  0  0  0  0
 14 35  1  0  0  0  0
 14 36  1  0  0  0  0
M  END
>  <InChIKey>
InChI=1S/C12H22O2/c1-3-5-6-7-8-9-10-11-14-12(13)4-2/h4H,2-3,5-11H2,1H3

>  <UN GHS>
Non-irritant

>  <CASRN>
2664-55-3

> <Outcome>
0

>  <Index>
2152

>  <StandardizerResult>
Clear Stereo (ID: ClearStereo)
Wedge Clean (ID: WedgeClean)
Mesomerize (ID: Mesomerize)
Tautomerize (ID: Tautomerize)
Add Explicit Hydrogens (ID: AddExplicitH)
Neutralize (ID: Neutralize)
Clean 2D (ID: Clean2D)

> <knn Distance>
2.2360680103302

> <CpId>
2152

$$$$
2179
  Mrv1532301301811342D          

 65 64  0  0  0  0            999 V2000
   11.6605    7.5575    0.0000 C   0  0  0  0  0  0  0  0  0  0  0  0
   12.3750    7.1450    0.0000 C   0  0  0  0  0  0  0  0  0  0  0  0
   13.0895    7.5575    0.0000 C   0  0  0  0  0  0  0  0  0  0  0  0
   13.8039    7.1450    0.0000 C   0  0  0  0  0  0  0  0  0  0  0  0
   14.5184    7.5575    0.0000 C   0  0  0  0  0  0  0  0  0  0  0  0
   15.2329    7.1450    0.0000 C   0  0  0  0  0  0  0  0  0  0  0  0
   15.9474    7.5575    0.0000 O   0  0  0  0  0  0  0  0  0  0  0  0
   16.6618    7.1450    0.0000 C   0  0  0  0  0  0  0  0  0  0  0  0
   16.6618    6.3200    0.0000 O   0  0  0  0  0  0  0  0  0  0  0  0
   17.3763    7.5575    0.0000 C   0  0  0  0  0  0  0  0  0  0  0  0
   18.0908    7.1450    0.0000 C   0  0  0  0  0  0  0  0  0  0  0  0
   18.8052    7.5575    0.0000 C   0  0  0  0  0  0  0  0  0  0  0  0
   19.5197    7.1450    0.0000 C   0  0  0  0  0  0  0  0  0  0  0  0
   20.2342    7.5575    0.0000 C   0  0  0  0  0  0  0  0  0  0  0  0
   20.9486    7.1450    0.0000 C   0  0  0  0  0  0  0  0  0  0  0  0
   21.6631    7.5575    0.0000 C   0  0  0  0  0  0  0  0  0  0  0  0
   22.3776    7.1450    0.0000 C   0  0  0  0  0  0  0  0  0  0  0  0
   22.3776    6.3200    0.0000 O   0  0  0  0  0  0  0  0  0  0  0  0
   23.0921    7.5575    0.0000 O   0  0  0  0  0  0  0  0  0  0  0  0
   23.8065    7.1450    0.0000 C   0  0  0  0  0  0  0  0  0  0  0  0
   24.5210    7.5575    0.0000 C   0  0  0  0  0  0  0  0  0  0  0  0
   25.2355    7.1450    0.0000 C   0  0  0  0  0  0  0  0  0  0  0  0
   25.9499    7.5575    0.0000 C   0  0  0  0  0  0  0  0  0  0  0  0
   26.6644    7.1450    0.0000 C   0  0  0  0  0  0  0  0  0  0  0  0
   27.3789    7.5575    0.0000 C   0  0  0  0  0  0  0  0  0  0  0  0
   12.0730    8.2719    0.0000 H   0  0  0  0  0  0  0  0  0  0  0  0
   10.9461    7.9700    0.0000 H   0  0  0  0  0  0  0  0  0  0  0  0
   11.2480    6.8430    0.0000 H   0  0  0  0  0  0  0  0  0  0  0  0
   12.0047    6.4077    0.0000 H   0  0  0  0  0  0  0  0  0  0  0  0
   12.7453    6.4077    0.0000 H   0  0  0  0  0  0  0  0  0  0  0  0
   13.4597    8.2947    0.0000 H   0  0  0  0  0  0  0  0  0  0  0  0
   12.7192    8.2947    0.0000 H   0  0  0  0  0  0  0  0  0  0  0  0
   13.4337    6.4077    0.0000 H   0  0  0  0  0  0  0  0  0  0  0  0
   14.1742    6.4077    0.0000 H   0  0  0  0  0  0  0  0  0  0  0  0
   14.8887    8.2947    0.0000 H   0  0  0  0  0  0  0  0  0  0  0  0
   14.1481    8.2947    0.0000 H   0  0  0  0  0  0  0  0  0  0  0  0
   14.8626    6.4077    0.0000 H   0  0  0  0  0  0  0  0  0  0  0  0
   15.6031    6.4077    0.0000 H   0  0  0  0  0  0  0  0  0  0  0  0
   17.7466    8.2947    0.0000 H   0  0  0  0  0  0  0  0  0  0  0  0
   17.0060    8.2947    0.0000 H   0  0  0  0  0  0  0  0  0  0  0  0
   17.7205    6.4077    0.0000 H   0  0  0  0  0  0  0  0  0  0  0  0
   18.4610    6.4077    0.0000 H   0  0  0  0  0  0  0  0  0  0  0  0
   19.1755    8.2947    0.0000 H   0  0  0  0  0  0  0  0  0  0  0  0
   18.4350    8.2947    0.0000 H   0  0  0  0  0  0  0  0  0  0  0  0
   19.1494    6.4077    0.0000 H   0  0  0  0  0  0  0  0  0  0  0  0
   19.8900    6.4077    0.0000 H   0  0  0  0  0  0  0  0  0  0  0  0
   20.6044    8.2947    0.0000 H   0  0  0  0  0  0  0  0  0  0  0  0
   19.8639    8.2947    0.0000 H   0  0  0  0  0  0  0  0  0  0  0  0
   20.5784    6.4077    0.0000 H   0  0  0  0  0  0  0  0  0  0  0  0
   21.3189    6.4077    0.0000 H   0  0  0  0  0  0  0  0  0  0  0  0
   22.0334    8.2947    0.0000 H   0  0  0  0  0  0  0  0  0  0  0  0
   21.2929    8.2947    0.0000 H   0  0  0  0  0  0  0  0  0  0  0  0
   23.4363    6.4077    0.0000 H   0  0  0  0  0  0  0  0  0  0  0  0
   24.1768    6.4077    0.0000 H   0  0  0  0  0  0  0  0  0  0  0  0
   24.8913    8.2947    0.0000 H   0  0  0  0  0  0  0  0  0  0  0  0
   24.1507    8.2947    0.0000 H   0  0  0  0  0  0  0  0  0  0  0  0
   24.8652    6.4077    0.0000 H   0  0  0  0  0  0  0  0  0  0  0  0
   25.6057    6.4077    0.0000 H   0  0  0  0  0  0  0  0  0  0  0  0
   26.3202    8.2947    0.0000 H   0  0  0  0  0  0  0  0  0  0  0  0
   25.5797    8.2947    0.0000 H   0  0  0  0  0  0  0  0  0  0  0  0
   26.2942    6.4077    0.0000 H   0  0  0  0  0  0  0  0  0  0  0  0
   27.0347    6.4077    0.0000 H   0  0  0  0  0  0  0  0  0  0  0  0
   27.7914    6.8430    0.0000 H   0  0  0  0  0  0  0  0  0  0  0  0
   28.0934    7.9700    0.0000 H   0  0  0  0  0  0  0  0  0  0  0  0
   26.9664    8.2719    0.0000 H   0  0  0  0  0  0  0  0  0  0  0  0
  1  2  1  0  0  0  0
  2  3  1  0  0  0  0
  3  4  1  0  0  0  0
  4  5  1  0  0  0  0
  5  6  1  0  0  0  0
  6  7  1  0  0  0  0
  7  8  1  0  0  0  0
  8  9  2  0  0  0  0
  8 10  1  0  0  0  0
 10 11  1  0  0  0  0
 11 12  1  0  0  0  0
 12 13  1  0  0  0  0
 13 14  1  0  0  0  0
 14 15  1  0  0  0  0
 15 16  1  0  0  0  0
 16 17  1  0  0  0  0
 17 18  2  0  0  0  0
 17 19  1  0  0  0  0
 19 20  1  0  0  0  0
 20 21  1  0  0  0  0
 21 22  1  0  0  0  0
 22 23  1  0  0  0  0
 23 24  1  0  0  0  0
 24 25  1  0  0  0  0
  1 26  1  0  0  0  0
  1 27  1  0  0  0  0
  1 28  1  0  0  0  0
  2 29  1  0  0  0  0
  2 30  1  0  0  0  0
  3 31  1  0  0  0  0
  3 32  1  0  0  0  0
  4 33  1  0  0  0  0
  4 34  1  0  0  0  0
  5 35  1  0  0  0  0
  5 36  1  0  0  0  0
  6 37  1  0  0  0  0
  6 38  1  0  0  0  0
 10 39  1  0  0  0  0
 10 40  1  0  0  0  0
 11 41  1  0  0  0  0
 11 42  1  0  0  0  0
 12 43  1  0  0  0  0
 12 44  1  0  0  0  0
 13 45  1  0  0  0  0
 13 46  1  0  0  0  0
 14 47  1  0  0  0  0
 14 48  1  0  0  0  0
 15 49  1  0  0  0  0
 15 50  1  0  0  0  0
 16 51  1  0  0  0  0
 16 52  1  0  0  0  0
 20 53  1  0  0  0  0
 20 54  1  0  0  0  0
 21 55  1  0  0  0  0
 21 56  1  0  0  0  0
 22 57  1  0  0  0  0
 22 58  1  0  0  0  0
 23 59  1  0  0  0  0
 23 60  1  0  0  0  0
 24 61  1  0  0  0  0
 24 62  1  0  0  0  0
 25 63  1  0  0  0  0
 25 64  1  0  0  0  0
 25 65  1  0  0  0  0
M  END
>  <InChIKey>
InChI=1S/C21H40O4/c1-3-5-7-14-18-24-20(22)16-12-10-9-11-13-17-21(23)25-19-15-8-6-4-2/h3-19H2,1-2H3

>  <CASRN>
109-31-9

> <Outcome>
0

>  <Index>
2179

>  <StandardizerResult>
Clear Stereo (ID: ClearStereo)
Wedge Clean (ID: WedgeClean)
Mesomerize (ID: Mesomerize)
Tautomerize (ID: Tautomerize)
Add Explicit Hydrogens (ID: AddExplicitH)
Neutralize (ID: Neutralize)
Clean 2D (ID: Clean2D)

> <knn Distance>
2.2360680103302

> <CpId>
2179

$$$$
2280
  Mrv1532301301811342D          

 14 13  0  0  0  0            999 V2000
   -0.1915    0.7145    0.0000 Cl  0  0  0  0  0  0  0  0  0  0  0  0
    0.5230    1.1270    0.0000 C   0  0  0  0  0  0  0  0  0  0  0  0
    1.2375    0.7145    0.0000 C   0  0  0  0  0  0  0  0  0  0  0  0
    1.9520    1.1270    0.0000 C   0  0  0  0  0  0  0  0  0  0  0  0
    2.6664    0.7145    0.0000 C   0  0  0  0  0  0  0  0  0  0  0  0
    3.3809    1.1270    0.0000 Br  0  0  0  0  0  0  0  0  0  0  0  0
    0.8933    1.8642    0.0000 H   0  0  0  0  0  0  0  0  0  0  0  0
    0.1528    1.8642    0.0000 H   0  0  0  0  0  0  0  0  0  0  0  0
    0.8672   -0.0227    0.0000 H   0  0  0  0  0  0  0  0  0  0  0  0
    1.6077   -0.0227    0.0000 H   0  0  0  0  0  0  0  0  0  0  0  0
    2.3222    1.8642    0.0000 H   0  0  0  0  0  0  0  0  0  0  0  0
    1.5817    1.8642    0.0000 H   0  0  0  0  0  0  0  0  0  0  0  0
    2.2962   -0.0227    0.0000 H   0  0  0  0  0  0  0  0  0  0  0  0
    3.0367   -0.0227    0.0000 H   0  0  0  0  0  0  0  0  0  0  0  0
  1  2  1  0  0  0  0
  2  3  1  0  0  0  0
  3  4  1  0  0  0  0
  4  5  1  0  0  0  0
  5  6  1  0  0  0  0
  2  7  1  0  0  0  0
  2  8  1  0  0  0  0
  3  9  1  0  0  0  0
  3 10  1  0  0  0  0
  4 11  1  0  0  0  0
  4 12  1  0  0  0  0
  5 13  1  0  0  0  0
  5 14  1  0  0  0  0
M  END
>  <InChIKey>
InChI=1S/C4H8BrCl/c5-3-1-2-4-6/h1-4H2

>  <UN GHS>
Non-irritant

>  <CASRN>
6940-78-9

> <Outcome>
0

>  <Index>
2280

>  <StandardizerResult>
Clear Stereo (ID: ClearStereo)
Wedge Clean (ID: WedgeClean)
Mesomerize (ID: Mesomerize)
Tautomerize (ID: Tautomerize)
Add Explicit Hydrogens (ID: AddExplicitH)
Neutralize (ID: Neutralize)
Clean 2D (ID: Clean2D)

> <knn Distance>
2.2360680103302

> <CpId>
2280

$$$$
2335
  Mrv1532301301811342D          

 74 73  0  0  0  0            999 V2000
   12.1836    7.8592    0.0000 C   0  0  0  0  0  0  0  0  0  0  0  0
   12.8980    8.2717    0.0000 C   0  0  0  0  0  0  0  0  0  0  0  0
   13.6125    7.8592    0.0000 C   0  0  0  0  0  0  0  0  0  0  0  0
   14.3270    8.2717    0.0000 C   0  0  0  0  0  0  0  0  0  0  0  0
   15.0414    7.8592    0.0000 C   0  0  0  0  0  0  0  0  0  0  0  0
   15.7559    8.2717    0.0000 C   0  0  0  0  0  0  0  0  0  0  0  0
   16.4704    7.8592    0.0000 C   0  0  0  0  0  0  0  0  0  0  0  0
   17.1849    8.2717    0.0000 C   0  0  0  0  0  0  0  0  0  0  0  0
   17.8993    7.8592    0.0000 C   0  0  0  0  0  0  0  0  0  0  0  0
   18.6138    8.2717    0.0000 C   0  0  0  0  0  0  0  0  0  0  0  0
   19.3283    7.8592    0.0000 O   0  0  0  0  0  0  0  0  0  0  0  0
   20.0427    8.2717    0.0000 C   0  0  0  0  0  0  0  0  0  0  0  0
   20.0427    9.0967    0.0000 O   0  0  0  0  0  0  0  0  0  0  0  0
   20.7572    7.8592    0.0000 C   0  0  0  0  0  0  0  0  0  0  0  0
   21.4717    8.2717    0.0000 C   0  0  0  0  0  0  0  0  0  0  0  0
   22.1862    7.8592    0.0000 C   0  0  0  0  0  0  0  0  0  0  0  0
   22.9006    8.2717    0.0000 C   0  0  0  0  0  0  0  0  0  0  0  0
   23.6151    7.8592    0.0000 C   0  0  0  0  0  0  0  0  0  0  0  0
   23.6151    7.0342    0.0000 O   0  0  0  0  0  0  0  0  0  0  0  0
   24.3296    8.2717    0.0000 O   0  0  0  0  0  0  0  0  0  0  0  0
   25.0440    7.8592    0.0000 C   0  0  0  0  0  0  0  0  0  0  0  0
   25.7585    8.2717    0.0000 C   0  0  0  0  0  0  0  0  0  0  0  0
   26.4730    7.8592    0.0000 C   0  0  0  0  0  0  0  0  0  0  0  0
   27.1874    8.2717    0.0000 C   0  0  0  0  0  0  0  0  0  0  0  0
   27.9019    7.8592    0.0000 C   0  0  0  0  0  0  0  0  0  0  0  0
   28.6164    8.2717    0.0000 C   0  0  0  0  0  0  0  0  0  0  0  0
   29.3309    7.8592    0.0000 C   0  0  0  0  0  0  0  0  0  0  0  0
   30.0453    8.2717    0.0000 C   0  0  0  0  0  0  0  0  0  0  0  0
   11.7711    8.5737    0.0000 H   0  0  0  0  0  0  0  0  0  0  0  0
   11.4691    7.4467    0.0000 H   0  0  0  0  0  0  0  0  0  0  0  0
   12.5961    7.1447    0.0000 H   0  0  0  0  0  0  0  0  0  0  0  0
   13.2683    9.0089    0.0000 H   0  0  0  0  0  0  0  0  0  0  0  0
   12.5278    9.0089    0.0000 H   0  0  0  0  0  0  0  0  0  0  0  0
   13.2422    7.1220    0.0000 H   0  0  0  0  0  0  0  0  0  0  0  0
   13.9828    7.1220    0.0000 H   0  0  0  0  0  0  0  0  0  0  0  0
   14.6972    9.0089    0.0000 H   0  0  0  0  0  0  0  0  0  0  0  0
   13.9567    9.0089    0.0000 H   0  0  0  0  0  0  0  0  0  0  0  0
   14.6712    7.1220    0.0000 H   0  0  0  0  0  0  0  0  0  0  0  0
   15.4117    7.1220    0.0000 H   0  0  0  0  0  0  0  0  0  0  0  0
   16.1262    9.0089    0.0000 H   0  0  0  0  0  0  0  0  0  0  0  0
   15.3857    9.0089    0.0000 H   0  0  0  0  0  0  0  0  0  0  0  0
   16.1001    7.1220    0.0000 H   0  0  0  0  0  0  0  0  0  0  0  0
   16.8406    7.1220    0.0000 H   0  0  0  0  0  0  0  0  0  0  0  0
   17.5551    9.0089    0.0000 H   0  0  0  0  0  0  0  0  0  0  0  0
   16.8146    9.0089    0.0000 H   0  0  0  0  0  0  0  0  0  0  0  0
   17.5291    7.1220    0.0000 H   0  0  0  0  0  0  0  0  0  0  0  0
   18.2696    7.1220    0.0000 H   0  0  0  0  0  0  0  0  0  0  0  0
   18.9841    9.0089    0.0000 H   0  0  0  0  0  0  0  0  0  0  0  0
   18.2435    9.0089    0.0000 H   0  0  0  0  0  0  0  0  0  0  0  0
   20.3869    7.1220    0.0000 H   0  0  0  0  0  0  0  0  0  0  0  0
   21.1275    7.1220    0.0000 H   0  0  0  0  0  0  0  0  0  0  0  0
   21.8419    9.0089    0.0000 H   0  0  0  0  0  0  0  0  0  0  0  0
   21.1014    9.0089    0.0000 H   0  0  0  0  0  0  0  0  0  0  0  0
   21.8159    7.1220    0.0000 H   0  0  0  0  0  0  0  0  0  0  0  0
   22.5564    7.1220    0.0000 H   0  0  0  0  0  0  0  0  0  0  0  0
   23.2709    9.0089    0.0000 H   0  0  0  0  0  0  0  0  0  0  0  0
   22.5304    9.0089    0.0000 H   0  0  0  0  0  0  0  0  0  0  0  0
   24.6738    7.1220    0.0000 H   0  0  0  0  0  0  0  0  0  0  0  0
   25.4143    7.1220    0.0000 H   0  0  0  0  0  0  0  0  0  0  0  0
   26.1288    9.0089    0.0000 H   0  0  0  0  0  0  0  0  0  0  0  0
   25.3882    9.0089    0.0000 H   0  0  0  0  0  0  0  0  0  0  0  0
   26.1027    7.1220    0.0000 H   0  0  0  0  0  0  0  0  0  0  0  0
   26.8432    7.1220    0.0000 H   0  0  0  0  0  0  0  0  0  0  0  0
   27.5577    9.0089    0.0000 H   0  0  0  0  0  0  0  0  0  0  0  0
   26.8172    9.0089    0.0000 H   0  0  0  0  0  0  0  0  0  0  0  0
   27.5317    7.1220    0.0000 H   0  0  0  0  0  0  0  0  0  0  0  0
   28.2722    7.1220    0.0000 H   0  0  0  0  0  0  0  0  0  0  0  0
   28.9866    9.0089    0.0000 H   0  0  0  0  0  0  0  0  0  0  0  0
   28.2461    9.0089    0.0000 H   0  0  0  0  0  0  0  0  0  0  0  0
   28.9606    7.1220    0.0000 H   0  0  0  0  0  0  0  0  0  0  0  0
   29.7011    7.1220    0.0000 H   0  0  0  0  0  0  0  0  0  0  0  0
   30.4578    7.5572    0.0000 H   0  0  0  0  0  0  0  0  0  0  0  0
   30.7598    8.6842    0.0000 H   0  0  0  0  0  0  0  0  0  0  0  0
   29.6328    8.9862    0.0000 H   0  0  0  0  0  0  0  0  0  0  0  0
  1  2  1  0  0  0  0
  2  3  1  0  0  0  0
  3  4  1  0  0  0  0
  4  5  1  0  0  0  0
  5  6  1  0  0  0  0
  6  7  1  0  0  0  0
  7  8  1  0  0  0  0
  8  9  1  0  0  0  0
  9 10  1  0  0  0  0
 10 11  1  0  0  0  0
 11 12  1  0  0  0  0
 12 13  2  0  0  0  0
 12 14  1  0  0  0  0
 14 15  1  0  0  0  0
 15 16  1  0  0  0  0
 16 17  1  0  0  0  0
 17 18  1  0  0  0  0
 18 19  2  0  0  0  0
 18 20  1  0  0  0  0
 20 21  1  0  0  0  0
 21 22  1  0  0  0  0
 22 23  1  0  0  0  0
 23 24  1  0  0  0  0
 24 25  1  0  0  0  0
 25 26  1  0  0  0  0
 26 27  1  0  0  0  0
 27 28  1  0  0  0  0
  1 29  1  0  0  0  0
  1 30  1  0  0  0  0
  1 31  1  0  0  0  0
  2 32  1  0  0  0  0
  2 33  1  0  0  0  0
  3 34  1  0  0  0  0
  3 35  1  0  0  0  0
  4 36  1  0  0  0  0
  4 37  1  0  0  0  0
  5 38  1  0  0  0  0
  5 39  1  0  0  0  0
  6 40  1  0  0  0  0
  6 41  1  0  0  0  0
  7 42  1  0  0  0  0
  7 43  1  0  0  0  0
  8 44  1  0  0  0  0
  8 45  1  0  0  0  0
  9 46  1  0  0  0  0
  9 47  1  0  0  0  0
 10 48  1  0  0  0  0
 10 49  1  0  0  0  0
 14 50  1  0  0  0  0
 14 51  1  0  0  0  0
 15 52  1  0  0  0  0
 15 53  1  0  0  0  0
 16 54  1  0  0  0  0
 16 55  1  0  0  0  0
 17 56  1  0  0  0  0
 17 57  1  0  0  0  0
 21 58  1  0  0  0  0
 21 59  1  0  0  0  0
 22 60  1  0  0  0  0
 22 61  1  0  0  0  0
 23 62  1  0  0  0  0
 23 63  1  0  0  0  0
 24 64  1  0  0  0  0
 24 65  1  0  0  0  0
 25 66  1  0  0  0  0
 25 67  1  0  0  0  0
 26 68  1  0  0  0  0
 26 69  1  0  0  0  0
 27 70  1  0  0  0  0
 27 71  1  0  0  0  0
 28 72  1  0  0  0  0
 28 73  1  0  0  0  0
 28 74  1  0  0  0  0
M  END
>  <InChIKey>
InChI=1S/C24H46O4/c1-3-5-7-9-11-12-14-18-22-28-24(26)20-16-15-19-23(25)27-21-17-13-10-8-6-4-2/h3-22H2,1-2H3

>  <CASRN>
110-29-2

> <Outcome>
0

>  <Index>
2335

>  <StandardizerResult>
Clear Stereo (ID: ClearStereo)
Wedge Clean (ID: WedgeClean)
Mesomerize (ID: Mesomerize)
Tautomerize (ID: Tautomerize)
Add Explicit Hydrogens (ID: AddExplicitH)
Neutralize (ID: Neutralize)
Clean 2D (ID: Clean2D)

> <knn Distance>
2.2360680103302

> <CpId>
2335

$$$$
2336
  Mrv1532301301811342D          

 17 17  0  0  0  0            999 V2000
   -0.0000    2.4750    0.0000 C   0  0  0  0  0  0  0  0  0  0  0  0
    0.7145    2.0625    0.0000 O   0  0  0  0  0  0  0  0  0  0  0  0
    0.7145    1.2375    0.0000 C   0  0  0  0  0  0  0  0  0  0  0  0
    1.4289    0.8250    0.0000 C   0  0  0  0  0  0  0  0  0  0  0  0
    1.4289   -0.0000    0.0000 C   0  0  0  0  0  0  0  0  0  0  0  0
    0.7145   -0.4125    0.0000 C   0  0  0  0  0  0  0  0  0  0  0  0
    0.7145   -1.2375    0.0000 O   0  0  0  0  0  0  0  0  0  0  0  0
   -0.0000   -0.0000    0.0000 C   0  0  0  0  0  0  0  0  0  0  0  0
   -0.0000    0.8250    0.0000 C   0  0  0  0  0  0  0  0  0  0  0  0
    0.4125    3.1895    0.0000 H   0  0  0  0  0  0  0  0  0  0  0  0
   -0.7145    2.8875    0.0000 H   0  0  0  0  0  0  0  0  0  0  0  0
   -0.4125    1.7605    0.0000 H   0  0  0  0  0  0  0  0  0  0  0  0
    2.1434    1.2375    0.0000 H   0  0  0  0  0  0  0  0  0  0  0  0
    2.1434   -0.4125    0.0000 H   0  0  0  0  0  0  0  0  0  0  0  0
   -0.0000   -1.6500    0.0000 H   0  0  0  0  0  0  0  0  0  0  0  0
   -0.7145   -0.4125    0.0000 H   0  0  0  0  0  0  0  0  0  0  0  0
   -0.7145    1.2375    0.0000 H   0  0  0  0  0  0  0  0  0  0  0  0
  1  2  1  0  0  0  0
  2  3  1  0  0  0  0
  3  4  4  0  0  0  0
  4  5  4  0  0  0  0
  5  6  4  0  0  0  0
  6  7  1  0  0  0  0
  6  8  4  0  0  0  0
  8  9  4  0  0  0  0
  3  9  4  0  0  0  0
  1 10  1  0  0  0  0
  1 11  1  0  0  0  0
  1 12  1  0  0  0  0
  4 13  1  0  0  0  0
  5 14  1  0  0  0  0
  7 15  1  0  0  0  0
  8 16  1  0  0  0  0
  9 17  1  0  0  0  0
M  END
>  <InChIKey>
InChI=1S/C7H8O2/c1-9-7-4-2-6(8)3-5-7/h2-5,8H,1H3

>  <CASRN>
150-76-5

> <Outcome>
0

>  <Index>
2336

>  <StandardizerResult>
Dearomatize (ID: Dearomatize)
Clear Stereo (ID: ClearStereo)
Wedge Clean (ID: WedgeClean)
Mesomerize (ID: Mesomerize)
Tautomerize (ID: Tautomerize)
Aromatize (ID: Aromatize)
Add Explicit Hydrogens (ID: AddExplicitH)
Neutralize (ID: Neutralize)
Clean 2D (ID: Clean2D)

> <knn Distance>
2.2360680103302

> <CpId>
2336

$$$$
2360
  Mrv1532301301811342D          

 84 83  0  0  0  0            999 V2000
    6.3219   11.9053    0.0000 C   0  0  0  0  0  0  0  0  0  0  0  0
    6.3219   11.0803    0.0000 C   0  0  0  0  0  0  0  0  0  0  0  0
    7.0364   10.6678    0.0000 C   0  0  0  0  0  0  0  0  0  0  0  0
    7.0364    9.8428    0.0000 C   0  0  0  0  0  0  0  0  0  0  0  0
    7.7508    9.4303    0.0000 C   0  0  0  0  0  0  0  0  0  0  0  0
    7.7508    8.6053    0.0000 C   0  0  0  0  0  0  0  0  0  0  0  0
    8.4653    8.1928    0.0000 C   0  0  0  0  0  0  0  0  0  0  0  0
    8.4653    7.3678    0.0000 C   0  0  0  0  0  0  0  0  0  0  0  0
    9.1798    6.9553    0.0000 C   0  0  0  0  0  0  0  0  0  0  0  0
    9.1798    6.1303    0.0000 C   0  0  0  0  0  0  0  0  0  0  0  0
    9.8943    5.7178    0.0000 C   0  0  0  0  0  0  0  0  0  0  0  0
   10.6087    6.1303    0.0000 C   0  0  0  0  0  0  0  0  0  0  0  0
   11.3232    5.7178    0.0000 C   0  0  0  0  0  0  0  0  0  0  0  0
   12.0377    6.1303    0.0000 C   0  0  0  0  0  0  0  0  0  0  0  0
   12.7521    5.7178    0.0000 C   0  0  0  0  0  0  0  0  0  0  0  0
   13.4666    6.1303    0.0000 C   0  0  0  0  0  0  0  0  0  0  0  0
   14.1811    5.7178    0.0000 C   0  0  0  0  0  0  0  0  0  0  0  0
   14.8956    6.1303    0.0000 C   0  0  0  0  0  0  0  0  0  0  0  0
   14.8956    6.9553    0.0000 O   0  0  0  0  0  0  0  0  0  0  0  0
   15.6100    5.7178    0.0000 O   0  0  0  0  0  0  0  0  0  0  0  0
   16.3245    6.1303    0.0000 C   0  0  0  0  0  0  0  0  0  0  0  0
   17.0390    5.7178    0.0000 C   0  0  0  0  0  0  0  0  0  0  0  0
   17.7534    6.1303    0.0000 C   0  0  0  0  0  0  0  0  0  0  0  0
   18.4679    5.7178    0.0000 C   0  0  0  0  0  0  0  0  0  0  0  0
   19.1824    6.1303    0.0000 C   0  0  0  0  0  0  0  0  0  0  0  0
   19.8969    5.7178    0.0000 C   0  0  0  0  0  0  0  0  0  0  0  0
   20.6113    6.1303    0.0000 C   0  0  0  0  0  0  0  0  0  0  0  0
   21.3258    5.7178    0.0000 C   0  0  0  0  0  0  0  0  0  0  0  0
   22.0403    6.1303    0.0000 C   0  0  0  0  0  0  0  0  0  0  0  0
   21.3258    4.8928    0.0000 C   0  0  0  0  0  0  0  0  0  0  0  0
    7.1469   11.9053    0.0000 H   0  0  0  0  0  0  0  0  0  0  0  0
    6.3219   12.7303    0.0000 H   0  0  0  0  0  0  0  0  0  0  0  0
    5.4969   11.9053    0.0000 H   0  0  0  0  0  0  0  0  0  0  0  0
    5.4983   11.0323    0.0000 H   0  0  0  0  0  0  0  0  0  0  0  0
    5.8686   10.3910    0.0000 H   0  0  0  0  0  0  0  0  0  0  0  0
    7.8600   10.7157    0.0000 H   0  0  0  0  0  0  0  0  0  0  0  0
    7.4897   11.3571    0.0000 H   0  0  0  0  0  0  0  0  0  0  0  0
    6.2128    9.7948    0.0000 H   0  0  0  0  0  0  0  0  0  0  0  0
    6.5830    9.1535    0.0000 H   0  0  0  0  0  0  0  0  0  0  0  0
    8.5745    9.4782    0.0000 H   0  0  0  0  0  0  0  0  0  0  0  0
    8.2042   10.1196    0.0000 H   0  0  0  0  0  0  0  0  0  0  0  0
    6.9272    8.5573    0.0000 H   0  0  0  0  0  0  0  0  0  0  0  0
    7.2975    7.9160    0.0000 H   0  0  0  0  0  0  0  0  0  0  0  0
    9.2889    8.2407    0.0000 H   0  0  0  0  0  0  0  0  0  0  0  0
    8.9187    8.8821    0.0000 H   0  0  0  0  0  0  0  0  0  0  0  0
    7.6417    7.3198    0.0000 H   0  0  0  0  0  0  0  0  0  0  0  0
    8.0120    6.6785    0.0000 H   0  0  0  0  0  0  0  0  0  0  0  0
    9.8943    7.3678    0.0000 H   0  0  0  0  0  0  0  0  0  0  0  0
    8.4653    5.7178    0.0000 H   0  0  0  0  0  0  0  0  0  0  0  0
    9.5240    4.9805    0.0000 H   0  0  0  0  0  0  0  0  0  0  0  0
   10.2645    4.9805    0.0000 H   0  0  0  0  0  0  0  0  0  0  0  0
   10.9790    6.8675    0.0000 H   0  0  0  0  0  0  0  0  0  0  0  0
   10.2385    6.8675    0.0000 H   0  0  0  0  0  0  0  0  0  0  0  0
   10.9529    4.9805    0.0000 H   0  0  0  0  0  0  0  0  0  0  0  0
   11.6935    4.9805    0.0000 H   0  0  0  0  0  0  0  0  0  0  0  0
   12.4079    6.8675    0.0000 H   0  0  0  0  0  0  0  0  0  0  0  0
   11.6674    6.8675    0.0000 H   0  0  0  0  0  0  0  0  0  0  0  0
   12.3819    4.9805    0.0000 H   0  0  0  0  0  0  0  0  0  0  0  0
   13.1224    4.9805    0.0000 H   0  0  0  0  0  0  0  0  0  0  0  0
   13.8369    6.8675    0.0000 H   0  0  0  0  0  0  0  0  0  0  0  0
   13.0964    6.8675    0.0000 H   0  0  0  0  0  0  0  0  0  0  0  0
   13.8108    4.9805    0.0000 H   0  0  0  0  0  0  0  0  0  0  0  0
   14.5513    4.9805    0.0000 H   0  0  0  0  0  0  0  0  0  0  0  0
   16.6948    6.8675    0.0000 H   0  0  0  0  0  0  0  0  0  0  0  0
   15.9542    6.8675    0.0000 H   0  0  0  0  0  0  0  0  0  0  0  0
   16.6687    4.9805    0.0000 H   0  0  0  0  0  0  0  0  0  0  0  0
   17.4092    4.9805    0.0000 H   0  0  0  0  0  0  0  0  0  0  0  0
   18.1237    6.8675    0.0000 H   0  0  0  0  0  0  0  0  0  0  0  0
   17.3832    6.8675    0.0000 H   0  0  0  0  0  0  0  0  0  0  0  0
   18.0977    4.9805    0.0000 H   0  0  0  0  0  0  0  0  0  0  0  0
   18.8382    4.9805    0.0000 H   0  0  0  0  0  0  0  0  0  0  0  0
   19.5526    6.8675    0.0000 H   0  0  0  0  0  0  0  0  0  0  0  0
   18.8121    6.8675    0.0000 H   0  0  0  0  0  0  0  0  0  0  0  0
   19.5266    4.9805    0.0000 H   0  0  0  0  0  0  0  0  0  0  0  0
   20.2671    4.9805    0.0000 H   0  0  0  0  0  0  0  0  0  0  0  0
   20.9816    6.8675    0.0000 H   0  0  0  0  0  0  0  0  0  0  0  0
   20.2411    6.8675    0.0000 H   0  0  0  0  0  0  0  0  0  0  0  0
   21.3258    6.5428    0.0000 H   0  0  0  0  0  0  0  0  0  0  0  0
   22.2538    5.3334    0.0000 H   0  0  0  0  0  0  0  0  0  0  0  0
   22.8653    6.1303    0.0000 H   0  0  0  0  0  0  0  0  0  0  0  0
   22.2538    6.9272    0.0000 H   0  0  0  0  0  0  0  0  0  0  0  0
   20.5008    4.8928    0.0000 H   0  0  0  0  0  0  0  0  0  0  0  0
   21.3258    4.0678    0.0000 H   0  0  0  0  0  0  0  0  0  0  0  0
   22.1508    4.8928    0.0000 H   0  0  0  0  0  0  0  0  0  0  0  0
  1  2  1  0  0  0  0
  2  3  1  0  0  0  0
  3  4  1  0  0  0  0
  4  5  1  0  0  0  0
  5  6  1  0  0  0  0
  6  7  1  0  0  0  0
  7  8  1  0  0  0  0
  9  8  1  4  0  0  0
  9 10  2  0  0  0  0
 10 11  1  0  0  0  0
 11 12  1  0  0  0  0
 12 13  1  0  0  0  0
 13 14  1  0  0  0  0
 14 15  1  0  0  0  0
 15 16  1  0  0  0  0
 16 17  1  0  0  0  0
 17 18  1  0  0  0  0
 18 19  2  0  0  0  0
 18 20  1  0  0  0  0
 20 21  1  0  0  0  0
 21 22  1  0  0  0  0
 22 23  1  0  0  0  0
 23 24  1  0  0  0  0
 24 25  1  0  0  0  0
 25 26  1  0  0  0  0
 26 27  1  0  0  0  0
 27 28  1  0  0  0  0
 28 29  1  0  0  0  0
 28 30  1  0  0  0  0
  1 31  1  0  0  0  0
  1 32  1  0  0  0  0
  1 33  1  0  0  0  0
  2 34  1  0  0  0  0
  2 35  1  0  0  0  0
  3 36  1  0  0  0  0
  3 37  1  0  0  0  0
  4 38  1  0  0  0  0
  4 39  1  0  0  0  0
  5 40  1  0  0  0  0
  5 41  1  0  0  0  0
  6 42  1  0  0  0  0
  6 43  1  0  0  0  0
  7 44  1  0  0  0  0
  7 45  1  0  0  0  0
  8 46  1  0  0  0  0
  8 47  1  0  0  0  0
  9 48  1  0  0  0  0
 10 49  1  0  0  0  0
 11 50  1  0  0  0  0
 11 51  1  0  0  0  0
 12 52  1  0  0  0  0
 12 53  1  0  0  0  0
 13 54  1  0  0  0  0
 13 55  1  0  0  0  0
 14 56  1  0  0  0  0
 14 57  1  0  0  0  0
 15 58  1  0  0  0  0
 15 59  1  0  0  0  0
 16 60  1  0  0  0  0
 16 61  1  0  0  0  0
 17 62  1  0  0  0  0
 17 63  1  0  0  0  0
 21 64  1  0  0  0  0
 21 65  1  0  0  0  0
 22 66  1  0  0  0  0
 22 67  1  0  0  0  0
 23 68  1  0  0  0  0
 23 69  1  0  0  0  0
 24 70  1  0  0  0  0
 24 71  1  0  0  0  0
 25 72  1  0  0  0  0
 25 73  1  0  0  0  0
 26 74  1  0  0  0  0
 26 75  1  0  0  0  0
 27 76  1  0  0  0  0
 27 77  1  0  0  0  0
 28 78  1  0  0  0  0
 29 79  1  0  0  0  0
 29 80  1  0  0  0  0
 29 81  1  0  0  0  0
 30 82  1  0  0  0  0
 30 83  1  0  0  0  0
 30 84  1  0  0  0  0
M  END
>  <InChIKey>
InChI=1S/C28H54O2/c1-4-5-6-7-8-9-10-11-12-13-14-15-16-19-22-25-28(29)30-26-23-20-17-18-21-24-27(2)3/h11-12,27H,4-10,13-26H2,1-3H3

>  <CASRN>
59231-34-4

> <Outcome>
0

>  <Index>
2360

>  <StandardizerResult>
Clear Stereo (ID: ClearStereo)
Wedge Clean (ID: WedgeClean)
Mesomerize (ID: Mesomerize)
Tautomerize (ID: Tautomerize)
Add Explicit Hydrogens (ID: AddExplicitH)
Neutralize (ID: Neutralize)
Clean 2D (ID: Clean2D)

> <knn Distance>
2.2360680103302

> <CpId>
2360

$$$$
2395
  Mrv1532301301811342D          

  5  4  0  0  0  0            999 V2000
    1.2375    0.7145    0.0000 I   0  0  0  0  0  0  0  0  0  0  0  0
    0.8250    0.0000    0.0000 C   0  0  0  0  0  0  0  0  0  0  0  0
    1.2375   -0.7145    0.0000 I   0  0  0  0  0  0  0  0  0  0  0  0
    0.0000    0.0000    0.0000 I   0  0  0  0  0  0  0  0  0  0  0  0
    1.6500   -0.0000    0.0000 H   0  0  0  0  0  0  0  0  0  0  0  0
  1  2  1  0  0  0  0
  2  3  1  0  0  0  0
  2  4  1  0  0  0  0
  2  5  1  0  0  0  0
M  END
>  <InChIKey>
InChI=1S/CHI3/c2-1(3)4/h1H

>  <CASRN>
75-47-8

> <Outcome>
0

>  <Index>
2395

>  <StandardizerResult>
Clear Stereo (ID: ClearStereo)
Wedge Clean (ID: WedgeClean)
Mesomerize (ID: Mesomerize)
Tautomerize (ID: Tautomerize)
Add Explicit Hydrogens (ID: AddExplicitH)
Neutralize (ID: Neutralize)
Clean 2D (ID: Clean2D)

> <knn Distance>
2.2360680103302

> <CpId>
2395

$$$$
2428
  Mrv1532301301811342D          

  8  7  0  0  0  0            999 V2000
    0.8250    0.0000    0.0000 C   0  0  0  0  0  0  0  0  0  0  0  0
   -0.0000    0.0000    0.0000 C   0  0  0  0  0  0  0  0  0  0  0  0
    0.8250   -0.8250    0.0000 H   0  0  0  0  0  0  0  0  0  0  0  0
    1.6500   -0.0000    0.0000 H   0  0  0  0  0  0  0  0  0  0  0  0
    0.8250    0.8250    0.0000 H   0  0  0  0  0  0  0  0  0  0  0  0
   -0.0000    0.8250    0.0000 H   0  0  0  0  0  0  0  0  0  0  0  0
   -0.8250    0.0000    0.0000 H   0  0  0  0  0  0  0  0  0  0  0  0
   -0.0000   -0.8250    0.0000 H   0  0  0  0  0  0  0  0  0  0  0  0
  1  2  1  0  0  0  0
  1  3  1  0  0  0  0
  1  4  1  0  0  0  0
  1  5  1  0  0  0  0
  2  6  1  0  0  0  0
  2  7  1  0  0  0  0
  2  8  1  0  0  0  0
M  END
>  <InChIKey>
InChI=1S/C2H6/c1-2/h1-2H3

>  <CASRN>
74-84-0

> <Outcome>
0

>  <Index>
2428

>  <StandardizerResult>
Mesomerize (ID: Mesomerize)
Tautomerize (ID: Tautomerize)
Add Explicit Hydrogens (ID: AddExplicitH)
Neutralize (ID: Neutralize)
Clean 2D (ID: Clean2D)

> <knn Distance>
2.2360680103302

> <CpId>
2428

$$$$
2480
  Mrv1532301301811342D          

 23 22  0  0  0  0            999 V2000
    1.0461    1.4289    0.0000 C   0  0  0  0  0  0  0  0  0  0  0  0
    1.7605    1.8414    0.0000 C   0  0  0  0  0  0  0  0  0  0  0  0
    2.4750    1.4289    0.0000 C   0  0  0  0  0  0  0  0  0  0  0  0
    3.1895    1.8414    0.0000 C   0  0  0  0  0  0  0  0  0  0  0  0
    3.9040    1.4289    0.0000 C   0  0  0  0  0  0  0  0  0  0  0  0
    4.6184    1.8414    0.0000 O   0  0  0  0  0  0  0  0  0  0  0  0
    5.3329    1.4289    0.0000 C   0  0  0  0  0  0  0  0  0  0  0  0
    6.0474    1.8414    0.0000 C   0  0  0  0  0  0  0  0  0  0  0  0
    5.3329    0.6039    0.0000 O   0  0  0  0  0  0  0  0  0  0  0  0
    0.6336    2.1434    0.0000 H   0  0  0  0  0  0  0  0  0  0  0  0
    0.3316    1.0164    0.0000 H   0  0  0  0  0  0  0  0  0  0  0  0
    1.4586    0.7144    0.0000 H   0  0  0  0  0  0  0  0  0  0  0  0
    2.1308    2.5786    0.0000 H   0  0  0  0  0  0  0  0  0  0  0  0
    1.3903    2.5786    0.0000 H   0  0  0  0  0  0  0  0  0  0  0  0
    2.1048    0.6917    0.0000 H   0  0  0  0  0  0  0  0  0  0  0  0
    2.8453    0.6917    0.0000 H   0  0  0  0  0  0  0  0  0  0  0  0
    3.5597    2.5786    0.0000 H   0  0  0  0  0  0  0  0  0  0  0  0
    2.8192    2.5786    0.0000 H   0  0  0  0  0  0  0  0  0  0  0  0
    3.5337    0.6917    0.0000 H   0  0  0  0  0  0  0  0  0  0  0  0
    4.2742    0.6917    0.0000 H   0  0  0  0  0  0  0  0  0  0  0  0
    6.4599    1.1269    0.0000 H   0  0  0  0  0  0  0  0  0  0  0  0
    6.7618    2.2539    0.0000 H   0  0  0  0  0  0  0  0  0  0  0  0
    5.6349    2.5559    0.0000 H   0  0  0  0  0  0  0  0  0  0  0  0
  1  2  1  0  0  0  0
  2  3  1  0  0  0  0
  3  4  1  0  0  0  0
  4  5  1  0  0  0  0
  5  6  1  0  0  0  0
  6  7  1  0  0  0  0
  7  8  1  0  0  0  0
  7  9  2  0  0  0  0
  1 10  1  0  0  0  0
  1 11  1  0  0  0  0
  1 12  1  0  0  0  0
  2 13  1  0  0  0  0
  2 14  1  0  0  0  0
  3 15  1  0  0  0  0
  3 16  1  0  0  0  0
  4 17  1  0  0  0  0
  4 18  1  0  0  0  0
  5 19  1  0  0  0  0
  5 20  1  0  0  0  0
  8 21  1  0  0  0  0
  8 22  1  0  0  0  0
  8 23  1  0  0  0  0
M  END
>  <InChIKey>
InChI=1S/C7H14O2/c1-3-4-5-6-9-7(2)8/h3-6H2,1-2H3

>  <UN GHS>
Non-irritant

>  <CASRN>
628-63-7

> <Outcome>
0

>  <Index>
2480

>  <StandardizerResult>
Clear Stereo (ID: ClearStereo)
Wedge Clean (ID: WedgeClean)
Mesomerize (ID: Mesomerize)
Tautomerize (ID: Tautomerize)
Add Explicit Hydrogens (ID: AddExplicitH)
Neutralize (ID: Neutralize)
Clean 2D (ID: Clean2D)

> <knn Distance>
2.2360680103302

> <CpId>
2480

$$$$
2498
  Mrv1532301301811342D          

 12 11  0  0  0  0            999 V2000
   -0.6039   -2.4750    0.0000 F   0  0  0  0  0  0  0  0  0  0  0  0
    0.1105   -2.0625    0.0000 C   0  0  0  0  0  0  0  0  0  0  0  0
    0.8250   -2.4750    0.0000 F   0  0  0  0  0  0  0  0  0  0  0  0
    0.1105   -1.2375    0.0000 O   0  0  0  0  0  0  0  0  0  0  0  0
    0.8250   -0.8250    0.0000 C   0  0  0  0  0  0  0  0  0  0  0  0
    1.5395   -1.2375    0.0000 Cl  0  0  0  0  0  0  0  0  0  0  0  0
    0.8250    0.0000    0.0000 C   0  0  0  0  0  0  0  0  0  0  0  0
    0.8250    0.8250    0.0000 F   0  0  0  0  0  0  0  0  0  0  0  0
    1.6500    0.0000    0.0000 F   0  0  0  0  0  0  0  0  0  0  0  0
    0.0000    0.0000    0.0000 F   0  0  0  0  0  0  0  0  0  0  0  0
    0.1105   -2.8875    0.0000 H   0  0  0  0  0  0  0  0  0  0  0  0
    0.8250   -1.6500    0.0000 H   0  0  0  0  0  0  0  0  0  0  0  0
  1  2  1  0  0  0  0
  2  3  1  0  0  0  0
  2  4  1  0  0  0  0
  4  5  1  0  0  0  0
  5  6  1  0  0  0  0
  5  7  1  0  0  0  0
  7  8  1  0  0  0  0
  7  9  1  0  0  0  0
  7 10  1  0  0  0  0
  2 11  1  0  0  0  0
  5 12  1  0  0  0  0
M  END
>  <InChIKey>
InChI=1S/C3H2ClF5O/c4-1(3(7,8)9)10-2(5)6/h1-2H

>  <CASRN>
26675-46-7

> <Outcome>
0

>  <Index>
2498

>  <StandardizerResult>
Clear Stereo (ID: ClearStereo)
Wedge Clean (ID: WedgeClean)
Mesomerize (ID: Mesomerize)
Tautomerize (ID: Tautomerize)
Add Explicit Hydrogens (ID: AddExplicitH)
Neutralize (ID: Neutralize)
Clean 2D (ID: Clean2D)

> <knn Distance>
2.2360680103302

> <CpId>
2498

$$$$
2648
  Mrv1532301301811342D          

 11 10  0  0  0  0            999 V2000
    0.8250   -2.4750    0.0000 F   0  0  0  0  0  0  0  0  0  0  0  0
    0.8250   -1.6500    0.0000 C   0  0  0  0  0  0  0  0  0  0  0  0
    1.6500   -1.6500    0.0000 F   0  0  0  0  0  0  0  0  0  0  0  0
    0.0000   -1.6500    0.0000 F   0  0  0  0  0  0  0  0  0  0  0  0
    0.8250   -0.8250    0.0000 C   0  0  0  0  0  0  0  0  0  0  0  0
    1.6500   -0.8250    0.0000 F   0  0  0  0  0  0  0  0  0  0  0  0
   -0.0000   -0.8250    0.0000 F   0  0  0  0  0  0  0  0  0  0  0  0
    0.8250   -0.0000    0.0000 C   0  0  0  0  0  0  0  0  0  0  0  0
    0.8250    0.8250    0.0000 F   0  0  0  0  0  0  0  0  0  0  0  0
    1.6500   -0.0000    0.0000 F   0  0  0  0  0  0  0  0  0  0  0  0
   -0.0000   -0.0000    0.0000 F   0  0  0  0  0  0  0  0  0  0  0  0
  1  2  1  0  0  0  0
  2  3  1  0  0  0  0
  2  4  1  0  0  0  0
  2  5  1  0  0  0  0
  5  6  1  0  0  0  0
  5  7  1  0  0  0  0
  5  8  1  0  0  0  0
  8  9  1  0  0  0  0
  8 10  1  0  0  0  0
  8 11  1  0  0  0  0
M  END
>  <InChIKey>
InChI=1S/C3F8/c4-1(5,2(6,7)8)3(9,10)11

>  <CASRN>
218599-63-4

> <Outcome>
0

>  <Index>
2648

>  <StandardizerResult>
Clear Stereo (ID: ClearStereo)
Wedge Clean (ID: WedgeClean)
Mesomerize (ID: Mesomerize)
Tautomerize (ID: Tautomerize)
Clean 2D (ID: Clean2D)

> <knn Distance>
2.2360680103302

> <CpId>
2648

$$$$
3213
  Mrv1532301301811342D          

 26 25  0  0  0  0            999 V2000
    0.8250   -6.6000    0.0000 F   0  0  0  0  0  0  0  0  0  0  0  0
    0.8250   -5.7750    0.0000 C   0  0  0  0  0  0  0  0  0  0  0  0
    1.6500   -5.7750    0.0000 F   0  0  0  0  0  0  0  0  0  0  0  0
    0.0000   -5.7750    0.0000 F   0  0  0  0  0  0  0  0  0  0  0  0
    0.8250   -4.9500    0.0000 C   0  0  0  0  0  0  0  0  0  0  0  0
    1.6500   -4.9500    0.0000 F   0  0  0  0  0  0  0  0  0  0  0  0
    0.0000   -4.9500    0.0000 F   0  0  0  0  0  0  0  0  0  0  0  0
    0.8250   -4.1250    0.0000 C   0  0  0  0  0  0  0  0  0  0  0  0
    1.6500   -4.1250    0.0000 F   0  0  0  0  0  0  0  0  0  0  0  0
    0.0000   -4.1250    0.0000 F   0  0  0  0  0  0  0  0  0  0  0  0
    0.8250   -3.3000    0.0000 C   0  0  0  0  0  0  0  0  0  0  0  0
    1.6500   -3.3000    0.0000 F   0  0  0  0  0  0  0  0  0  0  0  0
   -0.0000   -3.3000    0.0000 F   0  0  0  0  0  0  0  0  0  0  0  0
    0.8250   -2.4750    0.0000 C   0  0  0  0  0  0  0  0  0  0  0  0
    1.6500   -2.4750    0.0000 F   0  0  0  0  0  0  0  0  0  0  0  0
   -0.0000   -2.4750    0.0000 F   0  0  0  0  0  0  0  0  0  0  0  0
    0.8250   -1.6500    0.0000 C   0  0  0  0  0  0  0  0  0  0  0  0
    1.6500   -1.6500    0.0000 F   0  0  0  0  0  0  0  0  0  0  0  0
   -0.0000   -1.6500    0.0000 F   0  0  0  0  0  0  0  0  0  0  0  0
    0.8250   -0.8250    0.0000 C   0  0  0  0  0  0  0  0  0  0  0  0
    1.6500   -0.8250    0.0000 F   0  0  0  0  0  0  0  0  0  0  0  0
   -0.0000   -0.8250    0.0000 F   0  0  0  0  0  0  0  0  0  0  0  0
    0.8250   -0.0000    0.0000 C   0  0  0  0  0  0  0  0  0  0  0  0
    0.8250    0.8250    0.0000 F   0  0  0  0  0  0  0  0  0  0  0  0
    1.6500   -0.0000    0.0000 F   0  0  0  0  0  0  0  0  0  0  0  0
   -0.0000   -0.0000    0.0000 Br  0  0  0  0  0  0  0  0  0  0  0  0
  1  2  1  0  0  0  0
  2  3  1  0  0  0  0
  2  4  1  0  0  0  0
  2  5  1  0  0  0  0
  5  6  1  0  0  0  0
  5  7  1  0  0  0  0
  5  8  1  0  0  0  0
  8  9  1  0  0  0  0
  8 10  1  0  0  0  0
  8 11  1  0  0  0  0
 11 12  1  0  0  0  0
 11 13  1  0  0  0  0
 11 14  1  0  0  0  0
 14 15  1  0  0  0  0
 14 16  1  0  0  0  0
 14 17  1  0  0  0  0
 17 18  1  0  0  0  0
 17 19  1  0  0  0  0
 17 20  1  0  0  0  0
 20 21  1  0  0  0  0
 20 22  1  0  0  0  0
 20 23  1  0  0  0  0
 23 24  1  0  0  0  0
 23 25  1  0  0  0  0
 23 26  1  0  0  0  0
M  END
>  <InChIKey>
InChI=1S/C8BrF17/c9-7(22,23)5(18,19)3(14,15)1(10,11)2(12,13)4(16,17)6(20,21)8(24,25)26

>  <CASRN>
423-55-2

> <Outcome>
0

>  <Index>
3213

>  <StandardizerResult>
Clear Stereo (ID: ClearStereo)
Wedge Clean (ID: WedgeClean)
Mesomerize (ID: Mesomerize)
Tautomerize (ID: Tautomerize)
Clean 2D (ID: Clean2D)

> <knn Distance>
2.2360680103302

> <CpId>
3213

$$$$
3384
  Mrv1532301301811342D          

 76 75  0  0  0  0            999 V2000
    4.2910  -12.6266    0.0000 C   0  0  0  0  0  0  0  0  0  0  0  0
    4.2910  -11.8016    0.0000 C   0  0  0  0  0  0  0  0  0  0  0  0
    5.0054  -11.3891    0.0000 C   0  0  0  0  0  0  0  0  0  0  0  0
    3.5765  -11.3891    0.0000 C   0  0  0  0  0  0  0  0  0  0  0  0
    3.5765  -10.5641    0.0000 C   0  0  0  0  0  0  0  0  0  0  0  0
    2.8620  -10.1516    0.0000 C   0  0  0  0  0  0  0  0  0  0  0  0
    2.8620   -9.3266    0.0000 C   0  0  0  0  0  0  0  0  0  0  0  0
    2.1476   -8.9141    0.0000 C   0  0  0  0  0  0  0  0  0  0  0  0
    2.1476   -8.0891    0.0000 N   0  0  0  0  0  0  0  0  0  0  0  0
    1.4331   -7.6766    0.0000 C   0  0  0  0  0  0  0  0  0  0  0  0
    1.4331   -6.8516    0.0000 C   0  0  0  0  0  0  0  0  0  0  0  0
    0.7186   -6.4391    0.0000 C   0  0  0  0  0  0  0  0  0  0  0  0
    0.7186   -5.6141    0.0000 C   0  0  0  0  0  0  0  0  0  0  0  0
    0.0042   -5.2016    0.0000 C   0  0  0  0  0  0  0  0  0  0  0  0
    0.0042   -4.3766    0.0000 C   0  0  0  0  0  0  0  0  0  0  0  0
   -0.7103   -3.9641    0.0000 C   0  0  0  0  0  0  0  0  0  0  0  0
    0.7186   -3.9641    0.0000 C   0  0  0  0  0  0  0  0  0  0  0  0
    2.8620   -7.6766    0.0000 C   0  0  0  0  0  0  0  0  0  0  0  0
    2.8620   -6.8516    0.0000 C   0  0  0  0  0  0  0  0  0  0  0  0
    3.5765   -6.4391    0.0000 C   0  0  0  0  0  0  0  0  0  0  0  0
    3.5765   -5.6141    0.0000 C   0  0  0  0  0  0  0  0  0  0  0  0
    4.2910   -5.2016    0.0000 C   0  0  0  0  0  0  0  0  0  0  0  0
    4.2910   -4.3766    0.0000 C   0  0  0  0  0  0  0  0  0  0  0  0
    3.5765   -3.9641    0.0000 C   0  0  0  0  0  0  0  0  0  0  0  0
    5.0054   -3.9641    0.0000 C   0  0  0  0  0  0  0  0  0  0  0  0
    3.4660  -12.6266    0.0000 H   0  0  0  0  0  0  0  0  0  0  0  0
    4.2910  -13.4516    0.0000 H   0  0  0  0  0  0  0  0  0  0  0  0
    5.1160  -12.6266    0.0000 H   0  0  0  0  0  0  0  0  0  0  0  0
    5.0054  -12.2141    0.0000 H   0  0  0  0  0  0  0  0  0  0  0  0
    5.8023  -11.6026    0.0000 H   0  0  0  0  0  0  0  0  0  0  0  0
    5.4179  -10.6746    0.0000 H   0  0  0  0  0  0  0  0  0  0  0  0
    4.4221  -10.8057    0.0000 H   0  0  0  0  0  0  0  0  0  0  0  0
    2.7529  -11.4370    0.0000 H   0  0  0  0  0  0  0  0  0  0  0  0
    3.1232  -12.0783    0.0000 H   0  0  0  0  0  0  0  0  0  0  0  0
    3.8985   -9.8045    0.0000 H   0  0  0  0  0  0  0  0  0  0  0  0
    2.8620  -10.9766    0.0000 H   0  0  0  0  0  0  0  0  0  0  0  0
    2.0868   -9.8694    0.0000 H   0  0  0  0  0  0  0  0  0  0  0  0
    2.0868  -10.4337    0.0000 H   0  0  0  0  0  0  0  0  0  0  0  0
    3.6856   -9.2786    0.0000 H   0  0  0  0  0  0  0  0  0  0  0  0
    3.3154   -8.6373    0.0000 H   0  0  0  0  0  0  0  0  0  0  0  0
    1.4420   -8.4865    0.0000 H   0  0  0  0  0  0  0  0  0  0  0  0
    1.4163   -9.2959    0.0000 H   0  0  0  0  0  0  0  0  0  0  0  0
    0.6566   -7.3977    0.0000 H   0  0  0  0  0  0  0  0  0  0  0  0
    0.6598   -7.9639    0.0000 H   0  0  0  0  0  0  0  0  0  0  0  0
    2.2567   -6.8036    0.0000 H   0  0  0  0  0  0  0  0  0  0  0  0
    1.8864   -6.1623    0.0000 H   0  0  0  0  0  0  0  0  0  0  0  0
    0.0132   -6.0113    0.0000 H   0  0  0  0  0  0  0  0  0  0  0  0
   -0.0129   -6.8204    0.0000 H   0  0  0  0  0  0  0  0  0  0  0  0
    1.5422   -5.5661    0.0000 H   0  0  0  0  0  0  0  0  0  0  0  0
    1.1720   -4.9248    0.0000 H   0  0  0  0  0  0  0  0  0  0  0  0
   -0.7723   -4.9228    0.0000 H   0  0  0  0  0  0  0  0  0  0  0  0
   -0.7692   -5.4890    0.0000 H   0  0  0  0  0  0  0  0  0  0  0  0
    0.0042   -3.5516    0.0000 H   0  0  0  0  0  0  0  0  0  0  0  0
   -0.6970   -3.1392    0.0000 H   0  0  0  0  0  0  0  0  0  0  0  0
   -1.4111   -3.5287    0.0000 H   0  0  0  0  0  0  0  0  0  0  0  0
   -1.4439   -4.3415    0.0000 H   0  0  0  0  0  0  0  0  0  0  0  0
    0.9321   -4.7610    0.0000 H   0  0  0  0  0  0  0  0  0  0  0  0
    1.5436   -3.9641    0.0000 H   0  0  0  0  0  0  0  0  0  0  0  0
    0.9321   -3.1672    0.0000 H   0  0  0  0  0  0  0  0  0  0  0  0
    3.3154   -8.3658    0.0000 H   0  0  0  0  0  0  0  0  0  0  0  0
    3.6856   -7.7245    0.0000 H   0  0  0  0  0  0  0  0  0  0  0  0
    2.6802   -6.0469    0.0000 H   0  0  0  0  0  0  0  0  0  0  0  0
    3.5765   -7.2641    0.0000 H   0  0  0  0  0  0  0  0  0  0  0  0
    4.3518   -6.7212    0.0000 H   0  0  0  0  0  0  0  0  0  0  0  0
    4.3518   -6.1569    0.0000 H   0  0  0  0  0  0  0  0  0  0  0  0
    3.1232   -4.9248    0.0000 H   0  0  0  0  0  0  0  0  0  0  0  0
    2.7529   -5.5661    0.0000 H   0  0  0  0  0  0  0  0  0  0  0  0
    5.0223   -5.5834    0.0000 H   0  0  0  0  0  0  0  0  0  0  0  0
    4.9966   -4.7740    0.0000 H   0  0  0  0  0  0  0  0  0  0  0  0
    3.5765   -4.7891    0.0000 H   0  0  0  0  0  0  0  0  0  0  0  0
    4.1599   -3.3807    0.0000 H   0  0  0  0  0  0  0  0  0  0  0  0
    3.1640   -3.2496    0.0000 H   0  0  0  0  0  0  0  0  0  0  0  0
    2.7796   -4.1776    0.0000 H   0  0  0  0  0  0  0  0  0  0  0  0
    5.8005   -4.1841    0.0000 H   0  0  0  0  0  0  0  0  0  0  0  0
    5.4219   -3.2519    0.0000 H   0  0  0  0  0  0  0  0  0  0  0  0
    4.4237   -3.3791    0.0000 H   0  0  0  0  0  0  0  0  0  0  0  0
  1  2  1  0  0  0  0
  2  3  1  0  0  0  0
  2  4  1  0  0  0  0
  4  5  1  0  0  0  0
  5  6  1  0  0  0  0
  6  7  1  0  0  0  0
  7  8  1  0  0  0  0
  8  9  1  0  0  0  0
  9 10  1  0  0  0  0
 10 11  1  0  0  0  0
 11 12  1  0  0  0  0
 12 13  1  0  0  0  0
 13 14  1  0  0  0  0
 14 15  1  0  0  0  0
 15 16  1  0  0  0  0
 15 17  1  0  0  0  0
  9 18  1  0  0  0  0
 18 19  1  0  0  0  0
 19 20  1  0  0  0  0
 20 21  1  0  0  0  0
 21 22  1  0  0  0  0
 22 23  1  0  0  0  0
 23 24  1  0  0  0  0
 23 25  1  0  0  0  0
  1 26  1  0  0  0  0
  1 27  1  0  0  0  0
  1 28  1  0  0  0  0
  2 29  1  0  0  0  0
  3 30  1  0  0  0  0
  3 31  1  0  0  0  0
  3 32  1  0  0  0  0
  4 33  1  0  0  0  0
  4 34  1  0  0  0  0
  5 35  1  0  0  0  0
  5 36  1  0  0  0  0
  6 37  1  0  0  0  0
  6 38  1  0  0  0  0
  7 39  1  0  0  0  0
  7 40  1  0  0  0  0
  8 41  1  0  0  0  0
  8 42  1  0  0  0  0
 10 43  1  0  0  0  0
 10 44  1  0  0  0  0
 11 45  1  0  0  0  0
 11 46  1  0  0  0  0
 12 47  1  0  0  0  0
 12 48  1  0  0  0  0
 13 49  1  0  0  0  0
 13 50  1  0  0  0  0
 14 51  1  0  0  0  0
 14 52  1  0  0  0  0
 15 53  1  0  0  0  0
 16 54  1  0  0  0  0
 16 55  1  0  0  0  0
 16 56  1  0  0  0  0
 17 57  1  0  0  0  0
 17 58  1  0  0  0  0
 17 59  1  0  0  0  0
 18 60  1  0  0  0  0
 18 61  1  0  0  0  0
 19 62  1  0  0  0  0
 19 63  1  0  0  0  0
 20 64  1  0  0  0  0
 20 65  1  0  0  0  0
 21 66  1  0  0  0  0
 21 67  1  0  0  0  0
 22 68  1  0  0  0  0
 22 69  1  0  0  0  0
 23 70  1  0  0  0  0
 24 71  1  0  0  0  0
 24 72  1  0  0  0  0
 24 73  1  0  0  0  0
 25 74  1  0  0  0  0
 25 75  1  0  0  0  0
 25 76  1  0  0  0  0
M  END
>  <InChIKey>
InChI=1S/C24H51N/c1-22(2)16-10-7-13-19-25(20-14-8-11-17-23(3)4)21-15-9-12-18-24(5)6/h22-24H,7-21H2,1-6H3

>  <UN GHS>
Non-irritant

>  <CASRN>
25549-16-0

> <Outcome>
0

>  <Index>
3384

>  <StandardizerResult>
Clear Stereo (ID: ClearStereo)
Wedge Clean (ID: WedgeClean)
Mesomerize (ID: Mesomerize)
Tautomerize (ID: Tautomerize)
Add Explicit Hydrogens (ID: AddExplicitH)
Neutralize (ID: Neutralize)
Clean 2D (ID: Clean2D)

> <knn Distance>
2.2360680103302

> <CpId>
3384

$$$$
3472
  Mrv1532301301811342D          

 20 19  0  0  0  0            999 V2000
    0.8250   -4.9500    0.0000 F   0  0  0  0  0  0  0  0  0  0  0  0
    0.8250   -4.1250    0.0000 C   0  0  0  0  0  0  0  0  0  0  0  0
    1.6500   -4.1250    0.0000 F   0  0  0  0  0  0  0  0  0  0  0  0
    0.0000   -4.1250    0.0000 F   0  0  0  0  0  0  0  0  0  0  0  0
    0.8250   -3.3000    0.0000 C   0  0  0  0  0  0  0  0  0  0  0  0
    1.6500   -3.3000    0.0000 F   0  0  0  0  0  0  0  0  0  0  0  0
    0.0000   -3.3000    0.0000 F   0  0  0  0  0  0  0  0  0  0  0  0
    0.8250   -2.4750    0.0000 C   0  0  0  0  0  0  0  0  0  0  0  0
    1.6500   -2.4750    0.0000 F   0  0  0  0  0  0  0  0  0  0  0  0
    0.0000   -2.4750    0.0000 F   0  0  0  0  0  0  0  0  0  0  0  0
    0.8250   -1.6500    0.0000 C   0  0  0  0  0  0  0  0  0  0  0  0
    1.6500   -1.6500    0.0000 F   0  0  0  0  0  0  0  0  0  0  0  0
   -0.0000   -1.6500    0.0000 F   0  0  0  0  0  0  0  0  0  0  0  0
    0.8250   -0.8250    0.0000 C   0  0  0  0  0  0  0  0  0  0  0  0
    1.6500   -0.8250    0.0000 F   0  0  0  0  0  0  0  0  0  0  0  0
   -0.0000   -0.8250    0.0000 F   0  0  0  0  0  0  0  0  0  0  0  0
    0.8250   -0.0000    0.0000 C   0  0  0  0  0  0  0  0  0  0  0  0
    0.8250    0.8250    0.0000 F   0  0  0  0  0  0  0  0  0  0  0  0
    1.6500   -0.0000    0.0000 F   0  0  0  0  0  0  0  0  0  0  0  0
   -0.0000   -0.0000    0.0000 F   0  0  0  0  0  0  0  0  0  0  0  0
  1  2  1  0  0  0  0
  2  3  1  0  0  0  0
  2  4  1  0  0  0  0
  2  5  1  0  0  0  0
  5  6  1  0  0  0  0
  5  7  1  0  0  0  0
  5  8  1  0  0  0  0
  8  9  1  0  0  0  0
  8 10  1  0  0  0  0
  8 11  1  0  0  0  0
 11 12  1  0  0  0  0
 11 13  1  0  0  0  0
 11 14  1  0  0  0  0
 14 15  1  0  0  0  0
 14 16  1  0  0  0  0
 14 17  1  0  0  0  0
 17 18  1  0  0  0  0
 17 19  1  0  0  0  0
 17 20  1  0  0  0  0
M  END
>  <InChIKey>
InChI=1S/C6F14/c7-1(8,3(11,12)5(15,16)17)2(9,10)4(13,14)6(18,19)20

>  <UN GHS>
Non-irritant

>  <CASRN>
355-42-0

> <Outcome>
0

>  <Index>
3472

>  <StandardizerResult>
Clear Stereo (ID: ClearStereo)
Wedge Clean (ID: WedgeClean)
Mesomerize (ID: Mesomerize)
Tautomerize (ID: Tautomerize)
Clean 2D (ID: Clean2D)

> <knn Distance>
2.2360680103302

> <CpId>
3472

$$$$
3475
  Mrv1532301301811342D          

 24 24  0  0  0  0            999 V2000
   -0.0161    3.3428    0.0000 C   0  0  0  0  0  0  0  0  0  0  0  0
   -0.0161    2.5178    0.0000 C   0  0  0  0  0  0  0  0  0  0  0  0
    0.6984    2.1053    0.0000 C   0  0  0  0  0  0  0  0  0  0  0  0
    1.4129    2.5178    0.0000 C   0  0  0  0  0  0  0  0  0  0  0  0
    0.6984    1.2803    0.0000 C   0  0  0  0  0  0  0  0  0  0  0  0
    1.4129    0.8678    0.0000 C   0  0  0  0  0  0  0  0  0  0  0  0
    1.4129    0.0428    0.0000 C   0  0  0  0  0  0  0  0  0  0  0  0
    0.6984   -0.3697    0.0000 C   0  0  0  0  0  0  0  0  0  0  0  0
   -0.0161    0.0428    0.0000 C   0  0  0  0  0  0  0  0  0  0  0  0
   -0.0161    0.8678    0.0000 C   0  0  0  0  0  0  0  0  0  0  0  0
    0.8089    3.3428    0.0000 H   0  0  0  0  0  0  0  0  0  0  0  0
   -0.0161    4.1678    0.0000 H   0  0  0  0  0  0  0  0  0  0  0  0
   -0.8411    3.3428    0.0000 H   0  0  0  0  0  0  0  0  0  0  0  0
   -0.8397    2.4698    0.0000 H   0  0  0  0  0  0  0  0  0  0  0  0
   -0.4694    1.8285    0.0000 H   0  0  0  0  0  0  0  0  0  0  0  0
    0.6984    2.9303    0.0000 H   0  0  0  0  0  0  0  0  0  0  0  0
    1.6264    1.7209    0.0000 H   0  0  0  0  0  0  0  0  0  0  0  0
    2.2379    2.5178    0.0000 H   0  0  0  0  0  0  0  0  0  0  0  0
    1.6264    3.3147    0.0000 H   0  0  0  0  0  0  0  0  0  0  0  0
    2.2317    0.7669    0.0000 H   0  0  0  0  0  0  0  0  0  0  0  0
    2.1273   -0.3697    0.0000 H   0  0  0  0  0  0  0  0  0  0  0  0
    0.6984   -1.1947    0.0000 H   0  0  0  0  0  0  0  0  0  0  0  0
   -0.7305   -0.3697    0.0000 H   0  0  0  0  0  0  0  0  0  0  0  0
   -0.7305    1.2803    0.0000 H   0  0  0  0  0  0  0  0  0  0  0  0
  1  2  1  0  0  0  0
  2  3  1  0  0  0  0
  3  4  1  0  0  0  0
  3  5  1  0  0  0  0
  5  6  4  0  0  0  0
  6  7  4  0  0  0  0
  7  8  4  0  0  0  0
  8  9  4  0  0  0  0
  9 10  4  0  0  0  0
  5 10  4  0  0  0  0
  1 11  1  0  0  0  0
  1 12  1  0  0  0  0
  1 13  1  0  0  0  0
  2 14  1  0  0  0  0
  2 15  1  0  0  0  0
  3 16  1  0  0  0  0
  4 17  1  0  0  0  0
  4 18  1  0  0  0  0
  4 19  1  0  0  0  0
  6 20  1  0  0  0  0
  7 21  1  0  0  0  0
  8 22  1  0  0  0  0
  9 23  1  0  0  0  0
 10 24  1  0  0  0  0
M  END
>  <InChIKey>
InChI=1S/C10H14/c1-3-9(2)10-7-5-4-6-8-10/h4-9H,3H2,1-2H3

>  <UN GHS>
Non-irritant

>  <CASRN>
135-98-8 68411-44-9  135-98-8

> <Outcome>
0

>  <Index>
3475

>  <StandardizerResult>
Dearomatize (ID: Dearomatize)
Clear Stereo (ID: ClearStereo)
Wedge Clean (ID: WedgeClean)
Mesomerize (ID: Mesomerize)
Tautomerize (ID: Tautomerize)
Aromatize (ID: Aromatize)
Add Explicit Hydrogens (ID: AddExplicitH)
Neutralize (ID: Neutralize)
Clean 2D (ID: Clean2D)

> <knn Distance>
2.2360680103302

> <CpId>
3475

$$$$
42
  Mrv1532301301811342D          

 44 43  0  0  0  0            999 V2000
    4.7586    3.5724    0.0000 C   0  0  0  0  0  0  0  0  0  0  0  0
    5.4730    3.9849    0.0000 C   0  0  0  0  0  0  0  0  0  0  0  0
    6.1875    3.5724    0.0000 C   0  0  0  0  0  0  0  0  0  0  0  0
    6.9020    3.9849    0.0000 C   0  0  0  0  0  0  0  0  0  0  0  0
    7.6164    3.5724    0.0000 C   0  0  0  0  0  0  0  0  0  0  0  0
    8.3309    3.9849    0.0000 C   0  0  0  0  0  0  0  0  0  0  0  0
    9.0454    3.5724    0.0000 C   0  0  0  0  0  0  0  0  0  0  0  0
    9.7599    3.9849    0.0000 C   0  0  0  0  0  0  0  0  0  0  0  0
   10.4743    3.5724    0.0000 C   0  0  0  0  0  0  0  0  0  0  0  0
   11.1888    3.9849    0.0000 C   0  0  0  0  0  0  0  0  0  0  0  0
   11.9033    3.5724    0.0000 C   0  0  0  0  0  0  0  0  0  0  0  0
   12.6177    3.9849    0.0000 C   0  0  0  0  0  0  0  0  0  0  0  0
   13.3322    3.5724    0.0000 C   0  0  0  0  0  0  0  0  0  0  0  0
   14.0467    3.9849    0.0000 C   0  0  0  0  0  0  0  0  0  0  0  0
    4.3461    4.2869    0.0000 H   0  0  0  0  0  0  0  0  0  0  0  0
    4.0441    3.1599    0.0000 H   0  0  0  0  0  0  0  0  0  0  0  0
    5.1711    2.8579    0.0000 H   0  0  0  0  0  0  0  0  0  0  0  0
    5.8433    4.7221    0.0000 H   0  0  0  0  0  0  0  0  0  0  0  0
    5.1028    4.7221    0.0000 H   0  0  0  0  0  0  0  0  0  0  0  0
    5.8172    2.8352    0.0000 H   0  0  0  0  0  0  0  0  0  0  0  0
    6.5578    2.8352    0.0000 H   0  0  0  0  0  0  0  0  0  0  0  0
    7.2722    4.7221    0.0000 H   0  0  0  0  0  0  0  0  0  0  0  0
    6.5317    4.7221    0.0000 H   0  0  0  0  0  0  0  0  0  0  0  0
    7.2462    2.8352    0.0000 H   0  0  0  0  0  0  0  0  0  0  0  0
    7.9867    2.8352    0.0000 H   0  0  0  0  0  0  0  0  0  0  0  0
    8.7012    4.7221    0.0000 H   0  0  0  0  0  0  0  0  0  0  0  0
    7.9607    4.7221    0.0000 H   0  0  0  0  0  0  0  0  0  0  0  0
    8.6751    2.8352    0.0000 H   0  0  0  0  0  0  0  0  0  0  0  0
    9.4156    2.8352    0.0000 H   0  0  0  0  0  0  0  0  0  0  0  0
   10.1301    4.7221    0.0000 H   0  0  0  0  0  0  0  0  0  0  0  0
    9.3896    4.7221    0.0000 H   0  0  0  0  0  0  0  0  0  0  0  0
   10.1041    2.8352    0.0000 H   0  0  0  0  0  0  0  0  0  0  0  0
   10.8446    2.8352    0.0000 H   0  0  0  0  0  0  0  0  0  0  0  0
   11.5591    4.7221    0.0000 H   0  0  0  0  0  0  0  0  0  0  0  0
   10.8185    4.7221    0.0000 H   0  0  0  0  0  0  0  0  0  0  0  0
   11.5330    2.8352    0.0000 H   0  0  0  0  0  0  0  0  0  0  0  0
   12.2735    2.8352    0.0000 H   0  0  0  0  0  0  0  0  0  0  0  0
   12.9880    4.7221    0.0000 H   0  0  0  0  0  0  0  0  0  0  0  0
   12.2475    4.7221    0.0000 H   0  0  0  0  0  0  0  0  0  0  0  0
   12.9620    2.8352    0.0000 H   0  0  0  0  0  0  0  0  0  0  0  0
   13.7025    2.8352    0.0000 H   0  0  0  0  0  0  0  0  0  0  0  0
   14.4592    3.2704    0.0000 H   0  0  0  0  0  0  0  0  0  0  0  0
   14.7612    4.3974    0.0000 H   0  0  0  0  0  0  0  0  0  0  0  0
   13.6342    4.6994    0.0000 H   0  0  0  0  0  0  0  0  0  0  0  0
  1  2  1  0  0  0  0
  2  3  1  0  0  0  0
  3  4  1  0  0  0  0
  4  5  1  0  0  0  0
  5  6  1  0  0  0  0
  6  7  1  0  0  0  0
  7  8  1  0  0  0  0
  8  9  1  0  0  0  0
  9 10  1  0  0  0  0
 10 11  1  0  0  0  0
 11 12  1  0  0  0  0
 12 13  1  0  0  0  0
 13 14  1  0  0  0  0
  1 15  1  0  0  0  0
  1 16  1  0  0  0  0
  1 17  1  0  0  0  0
  2 18  1  0  0  0  0
  2 19  1  0  0  0  0
  3 20  1  0  0  0  0
  3 21  1  0  0  0  0
  4 22  1  0  0  0  0
  4 23  1  0  0  0  0
  5 24  1  0  0  0  0
  5 25  1  0  0  0  0
  6 26  1  0  0  0  0
  6 27  1  0  0  0  0
  7 28  1  0  0  0  0
  7 29  1  0  0  0  0
  8 30  1  0  0  0  0
  8 31  1  0  0  0  0
  9 32  1  0  0  0  0
  9 33  1  0  0  0  0
 10 34  1  0  0  0  0
 10 35  1  0  0  0  0
 11 36  1  0  0  0  0
 11 37  1  0  0  0  0
 12 38  1  0  0  0  0
 12 39  1  0  0  0  0
 13 40  1  0  0  0  0
 13 41  1  0  0  0  0
 14 42  1  0  0  0  0
 14 43  1  0  0  0  0
 14 44  1  0  0  0  0
M  END
>  <InChIKey>
BGHCVCJVXZWKCC-UHFFFAOYSA-N

>  <UN GHS>
Non-irritant

>  <CASRN>
629-59-4

> <Outcome>
0

>  <Index>
42

>  <StandardizerResult>
Clear Stereo (ID: ClearStereo)
Wedge Clean (ID: WedgeClean)
Mesomerize (ID: Mesomerize)
Tautomerize (ID: Tautomerize)
Add Explicit Hydrogens (ID: AddExplicitH)
Neutralize (ID: Neutralize)
Clean 2D (ID: Clean2D)

> <knn Distance>
2.44948983192444

> <CpId>
42

$$$$
46
  Mrv1532301301811342D          

 24 23  0  0  0  0            999 V2000
    2.9980    2.5574    0.0000 C   0  0  0  0  0  0  0  0  0  0  0  0
    3.7125    2.1449    0.0000 C   0  0  0  0  0  0  0  0  0  0  0  0
    4.4270    2.5574    0.0000 O   0  0  0  0  0  0  0  0  0  0  0  0
    5.1414    2.1449    0.0000 C   0  0  0  0  0  0  0  0  0  0  0  0
    5.8559    2.5574    0.0000 C   0  0  0  0  0  0  0  0  0  0  0  0
    6.5704    2.1449    0.0000 C   0  0  0  0  0  0  0  0  0  0  0  0
    6.5704    1.3199    0.0000 O   0  0  0  0  0  0  0  0  0  0  0  0
    7.2848    2.5574    0.0000 O   0  0  0  0  0  0  0  0  0  0  0  0
    7.9993    2.1449    0.0000 C   0  0  0  0  0  0  0  0  0  0  0  0
    8.7138    2.5574    0.0000 C   0  0  0  0  0  0  0  0  0  0  0  0
    3.4105    3.2718    0.0000 H   0  0  0  0  0  0  0  0  0  0  0  0
    2.2835    2.9699    0.0000 H   0  0  0  0  0  0  0  0  0  0  0  0
    2.5855    1.8429    0.0000 H   0  0  0  0  0  0  0  0  0  0  0  0
    3.3422    1.4076    0.0000 H   0  0  0  0  0  0  0  0  0  0  0  0
    4.0827    1.4076    0.0000 H   0  0  0  0  0  0  0  0  0  0  0  0
    4.7712    1.4076    0.0000 H   0  0  0  0  0  0  0  0  0  0  0  0
    5.5117    1.4076    0.0000 H   0  0  0  0  0  0  0  0  0  0  0  0
    6.2262    3.2946    0.0000 H   0  0  0  0  0  0  0  0  0  0  0  0
    5.4856    3.2946    0.0000 H   0  0  0  0  0  0  0  0  0  0  0  0
    7.6291    1.4076    0.0000 H   0  0  0  0  0  0  0  0  0  0  0  0
    8.3696    1.4076    0.0000 H   0  0  0  0  0  0  0  0  0  0  0  0
    9.1263    1.8429    0.0000 H   0  0  0  0  0  0  0  0  0  0  0  0
    9.4283    2.9699    0.0000 H   0  0  0  0  0  0  0  0  0  0  0  0
    8.3013    3.2718    0.0000 H   0  0  0  0  0  0  0  0  0  0  0  0
  1  2  1  0  0  0  0
  2  3  1  0  0  0  0
  3  4  1  0  0  0  0
  4  5  1  0  0  0  0
  5  6  1  0  0  0  0
  6  7  2  0  0  0  0
  6  8  1  0  0  0  0
  8  9  1  0  0  0  0
  9 10  1  0  0  0  0
  1 11  1  0  0  0  0
  1 12  1  0  0  0  0
  1 13  1  0  0  0  0
  2 14  1  0  0  0  0
  2 15  1  0  0  0  0
  4 16  1  0  0  0  0
  4 17  1  0  0  0  0
  5 18  1  0  0  0  0
  5 19  1  0  0  0  0
  9 20  1  0  0  0  0
  9 21  1  0  0  0  0
 10 22  1  0  0  0  0
 10 23  1  0  0  0  0
 10 24  1  0  0  0  0
M  END
>  <InChIKey>
BHXIWUJLHYHGSJ-UHFFFAOYSA-N

>  <UN GHS>
Non-irritant

>  <CASRN>
763-69-9

> <Outcome>
0

>  <Index>
46

>  <StandardizerResult>
Clear Stereo (ID: ClearStereo)
Wedge Clean (ID: WedgeClean)
Mesomerize (ID: Mesomerize)
Tautomerize (ID: Tautomerize)
Add Explicit Hydrogens (ID: AddExplicitH)
Neutralize (ID: Neutralize)
Clean 2D (ID: Clean2D)

> <knn Distance>
2.44948983192444

> <CpId>
46

$$$$
79
  Mrv1532301301811342D          

 76 75  0  0  0  0            999 V2000
   10.8100    6.1559    0.0000 C   0  0  0  0  0  0  0  0  0  0  0  0
   10.0208    5.9154    0.0000 C   0  0  0  0  0  0  0  0  0  0  0  0
    9.8346    5.1117    0.0000 C   0  0  0  0  0  0  0  0  0  0  0  0
    9.0454    4.8711    0.0000 C   0  0  0  0  0  0  0  0  0  0  0  0
    8.8591    4.0674    0.0000 C   0  0  0  0  0  0  0  0  0  0  0  0
    9.4620    3.5043    0.0000 C   0  0  0  0  0  0  0  0  0  0  0  0
    9.2758    2.7006    0.0000 C   0  0  0  0  0  0  0  0  0  0  0  0
    8.0700    3.8269    0.0000 C   0  0  0  0  0  0  0  0  0  0  0  0
    7.8837    3.0232    0.0000 N   0  0  0  0  0  0  0  0  0  0  0  0
    7.0946    2.7826    0.0000 C   0  0  0  0  0  0  0  0  0  0  0  0
    6.9083    1.9789    0.0000 C   0  0  0  0  0  0  0  0  0  0  0  0
    7.5112    1.4158    0.0000 C   0  0  0  0  0  0  0  0  0  0  0  0
    7.3249    0.6121    0.0000 C   0  0  0  0  0  0  0  0  0  0  0  0
    6.1191    1.7384    0.0000 C   0  0  0  0  0  0  0  0  0  0  0  0
    5.9329    0.9347    0.0000 C   0  0  0  0  0  0  0  0  0  0  0  0
    5.1437    0.6942    0.0000 C   0  0  0  0  0  0  0  0  0  0  0  0
    4.9575   -0.1095    0.0000 C   0  0  0  0  0  0  0  0  0  0  0  0
    8.4866    2.4600    0.0000 C   0  0  0  0  0  0  0  0  0  0  0  0
    8.3003    1.6563    0.0000 C   0  0  0  0  0  0  0  0  0  0  0  0
    7.8033    0.9979    0.0000 C   0  0  0  0  0  0  0  0  0  0  0  0
    8.1250    0.2382    0.0000 C   0  0  0  0  0  0  0  0  0  0  0  0
    9.1191    1.5551    0.0000 C   0  0  0  0  0  0  0  0  0  0  0  0
    9.4408    0.7954    0.0000 C   0  0  0  0  0  0  0  0  0  0  0  0
   10.2596    0.6942    0.0000 C   0  0  0  0  0  0  0  0  0  0  0  0
   10.5813   -0.0655    0.0000 C   0  0  0  0  0  0  0  0  0  0  0  0
   11.0505    5.3667    0.0000 H   0  0  0  0  0  0  0  0  0  0  0  0
   11.5991    6.3964    0.0000 H   0  0  0  0  0  0  0  0  0  0  0  0
   10.5694    6.9450    0.0000 H   0  0  0  0  0  0  0  0  0  0  0  0
    9.7348    6.6892    0.0000 H   0  0  0  0  0  0  0  0  0  0  0  0
    9.2293    6.1480    0.0000 H   0  0  0  0  0  0  0  0  0  0  0  0
   10.1206    4.3378    0.0000 H   0  0  0  0  0  0  0  0  0  0  0  0
   10.6261    4.8790    0.0000 H   0  0  0  0  0  0  0  0  0  0  0  0
    8.7594    5.6449    0.0000 H   0  0  0  0  0  0  0  0  0  0  0  0
    8.2539    5.1038    0.0000 H   0  0  0  0  0  0  0  0  0  0  0  0
    9.6483    4.3080    0.0000 H   0  0  0  0  0  0  0  0  0  0  0  0
   10.1535    3.0543    0.0000 H   0  0  0  0  0  0  0  0  0  0  0  0
   10.2810    3.6041    0.0000 H   0  0  0  0  0  0  0  0  0  0  0  0
    9.2599    1.8757    0.0000 H   0  0  0  0  0  0  0  0  0  0  0  0
    9.8061    2.0686    0.0000 H   0  0  0  0  0  0  0  0  0  0  0  0
    8.6729    3.2637    0.0000 H   0  0  0  0  0  0  0  0  0  0  0  0
    7.7840    4.6007    0.0000 H   0  0  0  0  0  0  0  0  0  0  0  0
    7.2785    4.0596    0.0000 H   0  0  0  0  0  0  0  0  0  0  0  0
    6.8085    3.5565    0.0000 H   0  0  0  0  0  0  0  0  0  0  0  0
    6.3031    3.0153    0.0000 H   0  0  0  0  0  0  0  0  0  0  0  0
    7.6975    2.2195    0.0000 H   0  0  0  0  0  0  0  0  0  0  0  0
    6.6874    1.4597    0.0000 H   0  0  0  0  0  0  0  0  0  0  0  0
    6.8519    0.9198    0.0000 H   0  0  0  0  0  0  0  0  0  0  0  0
    6.5243    0.4132    0.0000 H   0  0  0  0  0  0  0  0  0  0  0  0
    6.9243   -0.1091    0.0000 H   0  0  0  0  0  0  0  0  0  0  0  0
    7.5792   -0.1728    0.0000 H   0  0  0  0  0  0  0  0  0  0  0  0
    5.8331    2.5122    0.0000 H   0  0  0  0  0  0  0  0  0  0  0  0
    5.3276    1.9711    0.0000 H   0  0  0  0  0  0  0  0  0  0  0  0
    5.7581    0.1284    0.0000 H   0  0  0  0  0  0  0  0  0  0  0  0
    5.3300    1.4979    0.0000 H   0  0  0  0  0  0  0  0  0  0  0  0
    4.4522    1.1441    0.0000 H   0  0  0  0  0  0  0  0  0  0  0  0
    4.3248    0.5943    0.0000 H   0  0  0  0  0  0  0  0  0  0  0  0
    4.1539   -0.2965    0.0000 H   0  0  0  0  0  0  0  0  0  0  0  0
    4.7335   -0.9036    0.0000 H   0  0  0  0  0  0  0  0  0  0  0  0
    5.5449   -0.6888    0.0000 H   0  0  0  0  0  0  0  0  0  0  0  0
    8.2461    3.2492    0.0000 H   0  0  0  0  0  0  0  0  0  0  0  0
    7.6829    2.6463    0.0000 H   0  0  0  0  0  0  0  0  0  0  0  0
    8.6221    0.8966    0.0000 H   0  0  0  0  0  0  0  0  0  0  0  0
    7.8184    1.8227    0.0000 H   0  0  0  0  0  0  0  0  0  0  0  0
    7.6026    0.1977    0.0000 H   0  0  0  0  0  0  0  0  0  0  0  0
    8.0670   -0.5848    0.0000 H   0  0  0  0  0  0  0  0  0  0  0  0
    8.7080   -0.3456    0.0000 H   0  0  0  0  0  0  0  0  0  0  0  0
    8.9480    0.2951    0.0000 H   0  0  0  0  0  0  0  0  0  0  0  0
    8.7113    2.2722    0.0000 H   0  0  0  0  0  0  0  0  0  0  0  0
    9.9155    1.3397    0.0000 H   0  0  0  0  0  0  0  0  0  0  0  0
    9.4111   -0.0291    0.0000 H   0  0  0  0  0  0  0  0  0  0  0  0
    9.9760    0.1676    0.0000 H   0  0  0  0  0  0  0  0  0  0  0  0
   11.0815    0.7652    0.0000 H   0  0  0  0  0  0  0  0  0  0  0  0
   10.8319    1.2884    0.0000 H   0  0  0  0  0  0  0  0  0  0  0  0
    9.9873   -0.6380    0.0000 H   0  0  0  0  0  0  0  0  0  0  0  0
   10.8491   -0.8458    0.0000 H   0  0  0  0  0  0  0  0  0  0  0  0
   11.4017   -0.1526    0.0000 H   0  0  0  0  0  0  0  0  0  0  0  0
  1  2  1  0  0  0  0
  2  3  1  0  0  0  0
  3  4  1  0  0  0  0
  4  5  1  0  0  0  0
  5  6  1  0  0  0  0
  6  7  1  0  0  0  0
  5  8  1  0  0  0  0
  8  9  1  0  0  0  0
  9 10  1  0  0  0  0
 10 11  1  0  0  0  0
 11 12  1  0  0  0  0
 12 13  1  0  0  0  0
 11 14  1  0  0  0  0
 14 15  1  0  0  0  0
 15 16  1  0  0  0  0
 16 17  1  0  0  0  0
  9 18  1  0  0  0  0
 18 19  1  0  0  0  0
 19 20  1  0  0  0  0
 20 21  1  0  0  0  0
 19 22  1  0  0  0  0
 22 23  1  0  0  0  0
 23 24  1  0  0  0  0
 24 25  1  0  0  0  0
  1 26  1  0  0  0  0
  1 27  1  0  0  0  0
  1 28  1  0  0  0  0
  2 29  1  0  0  0  0
  2 30  1  0  0  0  0
  3 31  1  0  0  0  0
  3 32  1  0  0  0  0
  4 33  1  0  0  0  0
  4 34  1  0  0  0  0
  5 35  1  0  0  0  0
  6 36  1  0  0  0  0
  6 37  1  0  0  0  0
  7 38  1  0  0  0  0
  7 39  1  0  0  0  0
  7 40  1  0  0  0  0
  8 41  1  0  0  0  0
  8 42  1  0  0  0  0
 10 43  1  0  0  0  0
 10 44  1  0  0  0  0
 11 45  1  0  0  0  0
 12 46  1  0  0  0  0
 12 47  1  0  0  0  0
 13 48  1  0  0  0  0
 13 49  1  0  0  0  0
 13 50  1  0  0  0  0
 14 51  1  0  0  0  0
 14 52  1  0  0  0  0
 15 53  1  0  0  0  0
 15 54  1  0  0  0  0
 16 55  1  0  0  0  0
 16 56  1  0  0  0  0
 17 57  1  0  0  0  0
 17 58  1  0  0  0  0
 17 59  1  0  0  0  0
 18 60  1  0  0  0  0
 18 61  1  0  0  0  0
 19 62  1  0  0  0  0
 20 63  1  0  0  0  0
 20 64  1  0  0  0  0
 21 65  1  0  0  0  0
 21 66  1  0  0  0  0
 21 67  1  0  0  0  0
 22 68  1  0  0  0  0
 22 69  1  0  0  0  0
 23 70  1  0  0  0  0
 23 71  1  0  0  0  0
 24 72  1  0  0  0  0
 24 73  1  0  0  0  0
 25 74  1  0  0  0  0
 25 75  1  0  0  0  0
 25 76  1  0  0  0  0
M  END
>  <InChIKey>
BZUDVELGTZDOIG-UHFFFAOYSA-N

>  <UN GHS>
Non-irritant

>  <CASRN>
1860-26-0

> <Outcome>
0

>  <Index>
79

>  <StandardizerResult>
Clear Stereo (ID: ClearStereo)
Wedge Clean (ID: WedgeClean)
Mesomerize (ID: Mesomerize)
Tautomerize (ID: Tautomerize)
Add Explicit Hydrogens (ID: AddExplicitH)
Neutralize (ID: Neutralize)
Clean 2D (ID: Clean2D)

> <knn Distance>
2.44948983192444

> <CpId>
79

$$$$
81
  Mrv1532301301811342D          

 62 61  0  0  0  0            999 V2000
    8.4711    5.7158    0.0000 C   0  0  0  0  0  0  0  0  0  0  0  0
    9.1855    6.1283    0.0000 C   0  0  0  0  0  0  0  0  0  0  0  0
    9.9000    5.7158    0.0000 C   0  0  0  0  0  0  0  0  0  0  0  0
   10.6145    6.1283    0.0000 C   0  0  0  0  0  0  0  0  0  0  0  0
   11.3289    5.7158    0.0000 C   0  0  0  0  0  0  0  0  0  0  0  0
   12.0434    6.1283    0.0000 C   0  0  0  0  0  0  0  0  0  0  0  0
   12.7579    5.7158    0.0000 C   0  0  0  0  0  0  0  0  0  0  0  0
   13.4724    6.1283    0.0000 C   0  0  0  0  0  0  0  0  0  0  0  0
   14.1868    5.7158    0.0000 C   0  0  0  0  0  0  0  0  0  0  0  0
   14.9013    6.1283    0.0000 C   0  0  0  0  0  0  0  0  0  0  0  0
   15.6158    5.7158    0.0000 C   0  0  0  0  0  0  0  0  0  0  0  0
   16.3302    6.1283    0.0000 C   0  0  0  0  0  0  0  0  0  0  0  0
   17.0447    5.7158    0.0000 C   0  0  0  0  0  0  0  0  0  0  0  0
   17.7592    6.1283    0.0000 C   0  0  0  0  0  0  0  0  0  0  0  0
   18.4737    5.7158    0.0000 C   0  0  0  0  0  0  0  0  0  0  0  0
   19.1881    6.1283    0.0000 C   0  0  0  0  0  0  0  0  0  0  0  0
   19.9026    5.7158    0.0000 C   0  0  0  0  0  0  0  0  0  0  0  0
   20.6171    6.1283    0.0000 C   0  0  0  0  0  0  0  0  0  0  0  0
   21.3315    5.7158    0.0000 C   0  0  0  0  0  0  0  0  0  0  0  0
   22.0460    6.1283    0.0000 C   0  0  0  0  0  0  0  0  0  0  0  0
    8.0586    6.4303    0.0000 H   0  0  0  0  0  0  0  0  0  0  0  0
    7.7566    5.3033    0.0000 H   0  0  0  0  0  0  0  0  0  0  0  0
    8.8836    5.0013    0.0000 H   0  0  0  0  0  0  0  0  0  0  0  0
    9.5558    6.8655    0.0000 H   0  0  0  0  0  0  0  0  0  0  0  0
    8.8153    6.8655    0.0000 H   0  0  0  0  0  0  0  0  0  0  0  0
    9.5297    4.9786    0.0000 H   0  0  0  0  0  0  0  0  0  0  0  0
   10.2703    4.9786    0.0000 H   0  0  0  0  0  0  0  0  0  0  0  0
   10.9847    6.8655    0.0000 H   0  0  0  0  0  0  0  0  0  0  0  0
   10.2442    6.8655    0.0000 H   0  0  0  0  0  0  0  0  0  0  0  0
   10.9587    4.9786    0.0000 H   0  0  0  0  0  0  0  0  0  0  0  0
   11.6992    4.9786    0.0000 H   0  0  0  0  0  0  0  0  0  0  0  0
   12.4137    6.8655    0.0000 H   0  0  0  0  0  0  0  0  0  0  0  0
   11.6732    6.8655    0.0000 H   0  0  0  0  0  0  0  0  0  0  0  0
   12.3876    4.9786    0.0000 H   0  0  0  0  0  0  0  0  0  0  0  0
   13.1281    4.9786    0.0000 H   0  0  0  0  0  0  0  0  0  0  0  0
   13.8426    6.8655    0.0000 H   0  0  0  0  0  0  0  0  0  0  0  0
   13.1021    6.8655    0.0000 H   0  0  0  0  0  0  0  0  0  0  0  0
   13.8166    4.9786    0.0000 H   0  0  0  0  0  0  0  0  0  0  0  0
   14.5571    4.9786    0.0000 H   0  0  0  0  0  0  0  0  0  0  0  0
   15.2716    6.8655    0.0000 H   0  0  0  0  0  0  0  0  0  0  0  0
   14.5310    6.8655    0.0000 H   0  0  0  0  0  0  0  0  0  0  0  0
   15.2455    4.9786    0.0000 H   0  0  0  0  0  0  0  0  0  0  0  0
   15.9860    4.9786    0.0000 H   0  0  0  0  0  0  0  0  0  0  0  0
   16.7005    6.8655    0.0000 H   0  0  0  0  0  0  0  0  0  0  0  0
   15.9600    6.8655    0.0000 H   0  0  0  0  0  0  0  0  0  0  0  0
   16.6745    4.9786    0.0000 H   0  0  0  0  0  0  0  0  0  0  0  0
   17.4150    4.9786    0.0000 H   0  0  0  0  0  0  0  0  0  0  0  0
   18.1294    6.8655    0.0000 H   0  0  0  0  0  0  0  0  0  0  0  0
   17.3889    6.8655    0.0000 H   0  0  0  0  0  0  0  0  0  0  0  0
   18.1034    4.9786    0.0000 H   0  0  0  0  0  0  0  0  0  0  0  0
   18.8439    4.9786    0.0000 H   0  0  0  0  0  0  0  0  0  0  0  0
   19.5584    6.8655    0.0000 H   0  0  0  0  0  0  0  0  0  0  0  0
   18.8179    6.8655    0.0000 H   0  0  0  0  0  0  0  0  0  0  0  0
   19.5323    4.9786    0.0000 H   0  0  0  0  0  0  0  0  0  0  0  0
   20.2729    4.9786    0.0000 H   0  0  0  0  0  0  0  0  0  0  0  0
   20.9873    6.8655    0.0000 H   0  0  0  0  0  0  0  0  0  0  0  0
   20.2468    6.8655    0.0000 H   0  0  0  0  0  0  0  0  0  0  0  0
   20.9613    4.9786    0.0000 H   0  0  0  0  0  0  0  0  0  0  0  0
   21.7018    4.9786    0.0000 H   0  0  0  0  0  0  0  0  0  0  0  0
   22.4585    5.4138    0.0000 H   0  0  0  0  0  0  0  0  0  0  0  0
   22.7605    6.5408    0.0000 H   0  0  0  0  0  0  0  0  0  0  0  0
   21.6335    6.8428    0.0000 H   0  0  0  0  0  0  0  0  0  0  0  0
  1  2  1  0  0  0  0
  2  3  1  0  0  0  0
  3  4  1  0  0  0  0
  4  5  1  0  0  0  0
  5  6  1  0  0  0  0
  6  7  1  0  0  0  0
  7  8  1  0  0  0  0
  8  9  1  0  0  0  0
  9 10  1  0  0  0  0
 10 11  1  0  0  0  0
 11 12  1  0  0  0  0
 12 13  1  0  0  0  0
 13 14  1  0  0  0  0
 14 15  1  0  0  0  0
 15 16  1  0  0  0  0
 16 17  1  0  0  0  0
 17 18  1  0  0  0  0
 18 19  1  0  0  0  0
 19 20  1  0  0  0  0
  1 21  1  0  0  0  0
  1 22  1  0  0  0  0
  1 23  1  0  0  0  0
  2 24  1  0  0  0  0
  2 25  1  0  0  0  0
  3 26  1  0  0  0  0
  3 27  1  0  0  0  0
  4 28  1  0  0  0  0
  4 29  1  0  0  0  0
  5 30  1  0  0  0  0
  5 31  1  0  0  0  0
  6 32  1  0  0  0  0
  6 33  1  0  0  0  0
  7 34  1  0  0  0  0
  7 35  1  0  0  0  0
  8 36  1  0  0  0  0
  8 37  1  0  0  0  0
  9 38  1  0  0  0  0
  9 39  1  0  0  0  0
 10 40  1  0  0  0  0
 10 41  1  0  0  0  0
 11 42  1  0  0  0  0
 11 43  1  0  0  0  0
 12 44  1  0  0  0  0
 12 45  1  0  0  0  0
 13 46  1  0  0  0  0
 13 47  1  0  0  0  0
 14 48  1  0  0  0  0
 14 49  1  0  0  0  0
 15 50  1  0  0  0  0
 15 51  1  0  0  0  0
 16 52  1  0  0  0  0
 16 53  1  0  0  0  0
 17 54  1  0  0  0  0
 17 55  1  0  0  0  0
 18 56  1  0  0  0  0
 18 57  1  0  0  0  0
 19 58  1  0  0  0  0
 19 59  1  0  0  0  0
 20 60  1  0  0  0  0
 20 61  1  0  0  0  0
 20 62  1  0  0  0  0
M  END
>  <InChIKey>
CBFCDTFDPHXCNY-UHFFFAOYSA-N

>  <UN GHS>
Non-irritant

>  <CASRN>
112-95-8

> <Outcome>
0

>  <Index>
81

>  <StandardizerResult>
Clear Stereo (ID: ClearStereo)
Wedge Clean (ID: WedgeClean)
Mesomerize (ID: Mesomerize)
Tautomerize (ID: Tautomerize)
Add Explicit Hydrogens (ID: AddExplicitH)
Neutralize (ID: Neutralize)
Clean 2D (ID: Clean2D)

> <knn Distance>
2.44948983192444

> <CpId>
81

$$$$
129
  Mrv1532301301811342D          

 50 49  0  0  0  0            999 V2000
    5.9961    4.2868    0.0000 C   0  0  0  0  0  0  0  0  0  0  0  0
    6.7105    4.6993    0.0000 C   0  0  0  0  0  0  0  0  0  0  0  0
    7.4250    4.2868    0.0000 C   0  0  0  0  0  0  0  0  0  0  0  0
    8.1395    4.6993    0.0000 C   0  0  0  0  0  0  0  0  0  0  0  0
    8.8539    4.2868    0.0000 C   0  0  0  0  0  0  0  0  0  0  0  0
    9.5684    4.6993    0.0000 C   0  0  0  0  0  0  0  0  0  0  0  0
   10.2829    4.2868    0.0000 C   0  0  0  0  0  0  0  0  0  0  0  0
   10.9974    4.6993    0.0000 C   0  0  0  0  0  0  0  0  0  0  0  0
   11.7118    4.2868    0.0000 C   0  0  0  0  0  0  0  0  0  0  0  0
   12.4263    4.6993    0.0000 C   0  0  0  0  0  0  0  0  0  0  0  0
   13.1408    4.2868    0.0000 C   0  0  0  0  0  0  0  0  0  0  0  0
   13.8552    4.6993    0.0000 C   0  0  0  0  0  0  0  0  0  0  0  0
   14.5697    4.2868    0.0000 C   0  0  0  0  0  0  0  0  0  0  0  0
   15.2842    4.6993    0.0000 C   0  0  0  0  0  0  0  0  0  0  0  0
   15.9987    4.2868    0.0000 C   0  0  0  0  0  0  0  0  0  0  0  0
   16.7131    4.6993    0.0000 C   0  0  0  0  0  0  0  0  0  0  0  0
    5.5836    5.0013    0.0000 H   0  0  0  0  0  0  0  0  0  0  0  0
    5.2816    3.8743    0.0000 H   0  0  0  0  0  0  0  0  0  0  0  0
    6.4086    3.5723    0.0000 H   0  0  0  0  0  0  0  0  0  0  0  0
    7.0808    5.4365    0.0000 H   0  0  0  0  0  0  0  0  0  0  0  0
    6.3403    5.4365    0.0000 H   0  0  0  0  0  0  0  0  0  0  0  0
    7.0547    3.5496    0.0000 H   0  0  0  0  0  0  0  0  0  0  0  0
    7.7953    3.5496    0.0000 H   0  0  0  0  0  0  0  0  0  0  0  0
    8.5097    5.4365    0.0000 H   0  0  0  0  0  0  0  0  0  0  0  0
    7.7692    5.4365    0.0000 H   0  0  0  0  0  0  0  0  0  0  0  0
    8.4837    3.5496    0.0000 H   0  0  0  0  0  0  0  0  0  0  0  0
    9.2242    3.5496    0.0000 H   0  0  0  0  0  0  0  0  0  0  0  0
    9.9387    5.4365    0.0000 H   0  0  0  0  0  0  0  0  0  0  0  0
    9.1982    5.4365    0.0000 H   0  0  0  0  0  0  0  0  0  0  0  0
    9.9126    3.5496    0.0000 H   0  0  0  0  0  0  0  0  0  0  0  0
   10.6531    3.5496    0.0000 H   0  0  0  0  0  0  0  0  0  0  0  0
   11.3676    5.4365    0.0000 H   0  0  0  0  0  0  0  0  0  0  0  0
   10.6271    5.4365    0.0000 H   0  0  0  0  0  0  0  0  0  0  0  0
   11.3416    3.5496    0.0000 H   0  0  0  0  0  0  0  0  0  0  0  0
   12.0821    3.5496    0.0000 H   0  0  0  0  0  0  0  0  0  0  0  0
   12.7966    5.4365    0.0000 H   0  0  0  0  0  0  0  0  0  0  0  0
   12.0560    5.4365    0.0000 H   0  0  0  0  0  0  0  0  0  0  0  0
   12.7705    3.5496    0.0000 H   0  0  0  0  0  0  0  0  0  0  0  0
   13.5110    3.5496    0.0000 H   0  0  0  0  0  0  0  0  0  0  0  0
   14.2255    5.4365    0.0000 H   0  0  0  0  0  0  0  0  0  0  0  0
   13.4850    5.4365    0.0000 H   0  0  0  0  0  0  0  0  0  0  0  0
   14.1995    3.5496    0.0000 H   0  0  0  0  0  0  0  0  0  0  0  0
   14.9400    3.5496    0.0000 H   0  0  0  0  0  0  0  0  0  0  0  0
   15.6544    5.4365    0.0000 H   0  0  0  0  0  0  0  0  0  0  0  0
   14.9139    5.4365    0.0000 H   0  0  0  0  0  0  0  0  0  0  0  0
   15.6284    3.5496    0.0000 H   0  0  0  0  0  0  0  0  0  0  0  0
   16.3689    3.5496    0.0000 H   0  0  0  0  0  0  0  0  0  0  0  0
   17.1256    3.9848    0.0000 H   0  0  0  0  0  0  0  0  0  0  0  0
   17.4276    5.1118    0.0000 H   0  0  0  0  0  0  0  0  0  0  0  0
   16.3006    5.4138    0.0000 H   0  0  0  0  0  0  0  0  0  0  0  0
  1  2  1  0  0  0  0
  2  3  1  0  0  0  0
  3  4  1  0  0  0  0
  4  5  1  0  0  0  0
  5  6  1  0  0  0  0
  6  7  1  0  0  0  0
  7  8  1  0  0  0  0
  8  9  1  0  0  0  0
  9 10  1  0  0  0  0
 10 11  1  0  0  0  0
 11 12  1  0  0  0  0
 12 13  1  0  0  0  0
 13 14  1  0  0  0  0
 14 15  1  0  0  0  0
 15 16  1  0  0  0  0
  1 17  1  0  0  0  0
  1 18  1  0  0  0  0
  1 19  1  0  0  0  0
  2 20  1  0  0  0  0
  2 21  1  0  0  0  0
  3 22  1  0  0  0  0
  3 23  1  0  0  0  0
  4 24  1  0  0  0  0
  4 25  1  0  0  0  0
  5 26  1  0  0  0  0
  5 27  1  0  0  0  0
  6 28  1  0  0  0  0
  6 29  1  0  0  0  0
  7 30  1  0  0  0  0
  7 31  1  0  0  0  0
  8 32  1  0  0  0  0
  8 33  1  0  0  0  0
  9 34  1  0  0  0  0
  9 35  1  0  0  0  0
 10 36  1  0  0  0  0
 10 37  1  0  0  0  0
 11 38  1  0  0  0  0
 11 39  1  0  0  0  0
 12 40  1  0  0  0  0
 12 41  1  0  0  0  0
 13 42  1  0  0  0  0
 13 43  1  0  0  0  0
 14 44  1  0  0  0  0
 14 45  1  0  0  0  0
 15 46  1  0  0  0  0
 15 47  1  0  0  0  0
 16 48  1  0  0  0  0
 16 49  1  0  0  0  0
 16 50  1  0  0  0  0
M  END
>  <InChIKey>
DCAYPVUWAIABOU-UHFFFAOYSA-N

>  <UN GHS>
Non-irritant

>  <CASRN>
544-76-3

> <Outcome>
0

>  <Index>
129

>  <StandardizerResult>
Clear Stereo (ID: ClearStereo)
Wedge Clean (ID: WedgeClean)
Mesomerize (ID: Mesomerize)
Tautomerize (ID: Tautomerize)
Add Explicit Hydrogens (ID: AddExplicitH)
Neutralize (ID: Neutralize)
Clean 2D (ID: Clean2D)

> <knn Distance>
2.44948983192444

> <CpId>
129

$$$$
136
  Mrv1532301301811342D          

 32 31  0  0  0  0            999 V2000
    2.2836    2.1434    0.0000 C   0  0  0  0  0  0  0  0  0  0  0  0
    2.9980    2.5559    0.0000 C   0  0  0  0  0  0  0  0  0  0  0  0
    3.7125    2.1434    0.0000 C   0  0  0  0  0  0  0  0  0  0  0  0
    4.4270    2.5559    0.0000 C   0  0  0  0  0  0  0  0  0  0  0  0
    5.1414    2.1434    0.0000 C   0  0  0  0  0  0  0  0  0  0  0  0
    5.8559    2.5559    0.0000 C   0  0  0  0  0  0  0  0  0  0  0  0
    6.5704    2.1434    0.0000 C   0  0  0  0  0  0  0  0  0  0  0  0
    7.2849    2.5559    0.0000 C   0  0  0  0  0  0  0  0  0  0  0  0
    7.9993    2.1434    0.0000 C   0  0  0  0  0  0  0  0  0  0  0  0
    8.7138    2.5559    0.0000 C   0  0  0  0  0  0  0  0  0  0  0  0
    1.8711    2.8579    0.0000 H   0  0  0  0  0  0  0  0  0  0  0  0
    1.5691    1.7309    0.0000 H   0  0  0  0  0  0  0  0  0  0  0  0
    2.6961    1.4289    0.0000 H   0  0  0  0  0  0  0  0  0  0  0  0
    3.3683    3.2931    0.0000 H   0  0  0  0  0  0  0  0  0  0  0  0
    2.6278    3.2931    0.0000 H   0  0  0  0  0  0  0  0  0  0  0  0
    3.3422    1.4062    0.0000 H   0  0  0  0  0  0  0  0  0  0  0  0
    4.0828    1.4062    0.0000 H   0  0  0  0  0  0  0  0  0  0  0  0
    4.7972    3.2931    0.0000 H   0  0  0  0  0  0  0  0  0  0  0  0
    4.0567    3.2931    0.0000 H   0  0  0  0  0  0  0  0  0  0  0  0
    4.7712    1.4062    0.0000 H   0  0  0  0  0  0  0  0  0  0  0  0
    5.5117    1.4062    0.0000 H   0  0  0  0  0  0  0  0  0  0  0  0
    6.2262    3.2931    0.0000 H   0  0  0  0  0  0  0  0  0  0  0  0
    5.4857    3.2931    0.0000 H   0  0  0  0  0  0  0  0  0  0  0  0
    6.2001    1.4062    0.0000 H   0  0  0  0  0  0  0  0  0  0  0  0
    6.9406    1.4062    0.0000 H   0  0  0  0  0  0  0  0  0  0  0  0
    7.6551    3.2931    0.0000 H   0  0  0  0  0  0  0  0  0  0  0  0
    6.9146    3.2931    0.0000 H   0  0  0  0  0  0  0  0  0  0  0  0
    7.6291    1.4062    0.0000 H   0  0  0  0  0  0  0  0  0  0  0  0
    8.3696    1.4062    0.0000 H   0  0  0  0  0  0  0  0  0  0  0  0
    9.1263    1.8414    0.0000 H   0  0  0  0  0  0  0  0  0  0  0  0
    9.4283    2.9684    0.0000 H   0  0  0  0  0  0  0  0  0  0  0  0
    8.3013    3.2704    0.0000 H   0  0  0  0  0  0  0  0  0  0  0  0
  1  2  1  0  0  0  0
  2  3  1  0  0  0  0
  3  4  1  0  0  0  0
  4  5  1  0  0  0  0
  5  6  1  0  0  0  0
  6  7  1  0  0  0  0
  7  8  1  0  0  0  0
  8  9  1  0  0  0  0
  9 10  1  0  0  0  0
  1 11  1  0  0  0  0
  1 12  1  0  0  0  0
  1 13  1  0  0  0  0
  2 14  1  0  0  0  0
  2 15  1  0  0  0  0
  3 16  1  0  0  0  0
  3 17  1  0  0  0  0
  4 18  1  0  0  0  0
  4 19  1  0  0  0  0
  5 20  1  0  0  0  0
  5 21  1  0  0  0  0
  6 22  1  0  0  0  0
  6 23  1  0  0  0  0
  7 24  1  0  0  0  0
  7 25  1  0  0  0  0
  8 26  1  0  0  0  0
  8 27  1  0  0  0  0
  9 28  1  0  0  0  0
  9 29  1  0  0  0  0
 10 30  1  0  0  0  0
 10 31  1  0  0  0  0
 10 32  1  0  0  0  0
M  END
>  <InChIKey>
DIOQZVSQGTUSAI-UHFFFAOYSA-N

>  <UN GHS>
Non-irritant

>  <CASRN>
124-18-5

> <Outcome>
0

>  <Index>
136

>  <StandardizerResult>
Clear Stereo (ID: ClearStereo)
Wedge Clean (ID: WedgeClean)
Mesomerize (ID: Mesomerize)
Tautomerize (ID: Tautomerize)
Add Explicit Hydrogens (ID: AddExplicitH)
Neutralize (ID: Neutralize)
Clean 2D (ID: Clean2D)

> <knn Distance>
2.44948983192444

> <CpId>
136

$$$$
184
  Mrv1532301301811342D          

 53 52  0  0  0  0            999 V2000
    7.2336    5.0013    0.0000 C   0  0  0  0  0  0  0  0  0  0  0  0
    7.9480    5.4138    0.0000 C   0  0  0  0  0  0  0  0  0  0  0  0
    8.6625    5.0013    0.0000 C   0  0  0  0  0  0  0  0  0  0  0  0
    9.3770    5.4138    0.0000 C   0  0  0  0  0  0  0  0  0  0  0  0
   10.0914    5.0013    0.0000 C   0  0  0  0  0  0  0  0  0  0  0  0
   10.8059    5.4138    0.0000 C   0  0  0  0  0  0  0  0  0  0  0  0
   11.5204    5.0013    0.0000 C   0  0  0  0  0  0  0  0  0  0  0  0
   12.2349    5.4138    0.0000 C   0  0  0  0  0  0  0  0  0  0  0  0
   12.9493    5.0013    0.0000 C   0  0  0  0  0  0  0  0  0  0  0  0
   13.6638    5.4138    0.0000 C   0  0  0  0  0  0  0  0  0  0  0  0
   14.3783    5.0013    0.0000 C   0  0  0  0  0  0  0  0  0  0  0  0
   15.0927    5.4138    0.0000 C   0  0  0  0  0  0  0  0  0  0  0  0
   15.8072    5.0013    0.0000 C   0  0  0  0  0  0  0  0  0  0  0  0
   16.5217    5.4138    0.0000 C   0  0  0  0  0  0  0  0  0  0  0  0
   17.2362    5.0013    0.0000 C   0  0  0  0  0  0  0  0  0  0  0  0
   17.9506    5.4138    0.0000 C   0  0  0  0  0  0  0  0  0  0  0  0
   17.9506    6.2388    0.0000 O   0  0  0  0  0  0  0  0  0  0  0  0
   18.6651    5.0013    0.0000 O   0  0  0  0  0  0  0  0  0  0  0  0
   19.3796    5.4138    0.0000 C   0  0  0  0  0  0  0  0  0  0  0  0
    6.8211    5.7158    0.0000 H   0  0  0  0  0  0  0  0  0  0  0  0
    6.5191    4.5888    0.0000 H   0  0  0  0  0  0  0  0  0  0  0  0
    7.6461    4.2868    0.0000 H   0  0  0  0  0  0  0  0  0  0  0  0
    8.3183    6.1510    0.0000 H   0  0  0  0  0  0  0  0  0  0  0  0
    7.5778    6.1510    0.0000 H   0  0  0  0  0  0  0  0  0  0  0  0
    8.2922    4.2641    0.0000 H   0  0  0  0  0  0  0  0  0  0  0  0
    9.0328    4.2641    0.0000 H   0  0  0  0  0  0  0  0  0  0  0  0
    9.7472    6.1510    0.0000 H   0  0  0  0  0  0  0  0  0  0  0  0
    9.0067    6.1510    0.0000 H   0  0  0  0  0  0  0  0  0  0  0  0
    9.7212    4.2641    0.0000 H   0  0  0  0  0  0  0  0  0  0  0  0
   10.4617    4.2641    0.0000 H   0  0  0  0  0  0  0  0  0  0  0  0
   11.1762    6.1510    0.0000 H   0  0  0  0  0  0  0  0  0  0  0  0
   10.4357    6.1510    0.0000 H   0  0  0  0  0  0  0  0  0  0  0  0
   11.1501    4.2641    0.0000 H   0  0  0  0  0  0  0  0  0  0  0  0
   11.8907    4.2641    0.0000 H   0  0  0  0  0  0  0  0  0  0  0  0
   12.6051    6.1510    0.0000 H   0  0  0  0  0  0  0  0  0  0  0  0
   11.8646    6.1510    0.0000 H   0  0  0  0  0  0  0  0  0  0  0  0
   12.5791    4.2641    0.0000 H   0  0  0  0  0  0  0  0  0  0  0  0
   13.3196    4.2641    0.0000 H   0  0  0  0  0  0  0  0  0  0  0  0
   14.0341    6.1510    0.0000 H   0  0  0  0  0  0  0  0  0  0  0  0
   13.2935    6.1510    0.0000 H   0  0  0  0  0  0  0  0  0  0  0  0
   14.0080    4.2641    0.0000 H   0  0  0  0  0  0  0  0  0  0  0  0
   14.7485    4.2641    0.0000 H   0  0  0  0  0  0  0  0  0  0  0  0
   15.4630    6.1510    0.0000 H   0  0  0  0  0  0  0  0  0  0  0  0
   14.7225    6.1510    0.0000 H   0  0  0  0  0  0  0  0  0  0  0  0
   15.4370    4.2641    0.0000 H   0  0  0  0  0  0  0  0  0  0  0  0
   16.1775    4.2641    0.0000 H   0  0  0  0  0  0  0  0  0  0  0  0
   16.8919    6.1510    0.0000 H   0  0  0  0  0  0  0  0  0  0  0  0
   16.1514    6.1510    0.0000 H   0  0  0  0  0  0  0  0  0  0  0  0
   16.8659    4.2641    0.0000 H   0  0  0  0  0  0  0  0  0  0  0  0
   17.6064    4.2641    0.0000 H   0  0  0  0  0  0  0  0  0  0  0  0
   19.7921    4.6993    0.0000 H   0  0  0  0  0  0  0  0  0  0  0  0
   20.0940    5.8263    0.0000 H   0  0  0  0  0  0  0  0  0  0  0  0
   18.9671    6.1283    0.0000 H   0  0  0  0  0  0  0  0  0  0  0  0
  1  2  1  0  0  0  0
  2  3  1  0  0  0  0
  3  4  1  0  0  0  0
  4  5  1  0  0  0  0
  5  6  1  0  0  0  0
  6  7  1  0  0  0  0
  7  8  1  0  0  0  0
  8  9  1  0  0  0  0
  9 10  1  0  0  0  0
 10 11  1  0  0  0  0
 11 12  1  0  0  0  0
 12 13  1  0  0  0  0
 13 14  1  0  0  0  0
 14 15  1  0  0  0  0
 15 16  1  0  0  0  0
 16 17  2  0  0  0  0
 16 18  1  0  0  0  0
 18 19  1  0  0  0  0
  1 20  1  0  0  0  0
  1 21  1  0  0  0  0
  1 22  1  0  0  0  0
  2 23  1  0  0  0  0
  2 24  1  0  0  0  0
  3 25  1  0  0  0  0
  3 26  1  0  0  0  0
  4 27  1  0  0  0  0
  4 28  1  0  0  0  0
  5 29  1  0  0  0  0
  5 30  1  0  0  0  0
  6 31  1  0  0  0  0
  6 32  1  0  0  0  0
  7 33  1  0  0  0  0
  7 34  1  0  0  0  0
  8 35  1  0  0  0  0
  8 36  1  0  0  0  0
  9 37  1  0  0  0  0
  9 38  1  0  0  0  0
 10 39  1  0  0  0  0
 10 40  1  0  0  0  0
 11 41  1  0  0  0  0
 11 42  1  0  0  0  0
 12 43  1  0  0  0  0
 12 44  1  0  0  0  0
 13 45  1  0  0  0  0
 13 46  1  0  0  0  0
 14 47  1  0  0  0  0
 14 48  1  0  0  0  0
 15 49  1  0  0  0  0
 15 50  1  0  0  0  0
 19 51  1  0  0  0  0
 19 52  1  0  0  0  0
 19 53  1  0  0  0  0
M  END
>  <InChIKey>
FLIACVVOZYBSBS-UHFFFAOYSA-N

>  <UN GHS>
Non-irritant

>  <CASRN>
112-39-0

> <Outcome>
0

>  <Index>
184

>  <StandardizerResult>
Clear Stereo (ID: ClearStereo)
Wedge Clean (ID: WedgeClean)
Mesomerize (ID: Mesomerize)
Tautomerize (ID: Tautomerize)
Add Explicit Hydrogens (ID: AddExplicitH)
Neutralize (ID: Neutralize)
Clean 2D (ID: Clean2D)

> <knn Distance>
2.44948983192444

> <CpId>
184

$$$$
191
  Mrv1532301301811342D          

 65 64  0  0  0  0            999 V2000
   10.4230    6.8430    0.0000 C   0  0  0  0  0  0  0  0  0  0  0  0
   11.1375    6.4305    0.0000 C   0  0  0  0  0  0  0  0  0  0  0  0
   11.8520    6.8430    0.0000 C   0  0  0  0  0  0  0  0  0  0  0  0
   12.5664    6.4305    0.0000 C   0  0  0  0  0  0  0  0  0  0  0  0
   13.2809    6.8430    0.0000 C   0  0  0  0  0  0  0  0  0  0  0  0
   13.9954    6.4305    0.0000 C   0  0  0  0  0  0  0  0  0  0  0  0
   14.7099    6.8430    0.0000 C   0  0  0  0  0  0  0  0  0  0  0  0
   15.4243    6.4305    0.0000 C   0  0  0  0  0  0  0  0  0  0  0  0
   16.1388    6.8430    0.0000 C   0  0  0  0  0  0  0  0  0  0  0  0
   16.8533    6.4305    0.0000 C   0  0  0  0  0  0  0  0  0  0  0  0
   17.5677    6.8430    0.0000 C   0  0  0  0  0  0  0  0  0  0  0  0
   18.2822    6.4305    0.0000 C   0  0  0  0  0  0  0  0  0  0  0  0
   18.9967    6.8430    0.0000 C   0  0  0  0  0  0  0  0  0  0  0  0
   19.7112    6.4305    0.0000 C   0  0  0  0  0  0  0  0  0  0  0  0
   20.4256    6.8430    0.0000 C   0  0  0  0  0  0  0  0  0  0  0  0
   21.1401    6.4305    0.0000 C   0  0  0  0  0  0  0  0  0  0  0  0
   21.8546    6.8430    0.0000 C   0  0  0  0  0  0  0  0  0  0  0  0
   22.5690    6.4305    0.0000 C   0  0  0  0  0  0  0  0  0  0  0  0
   23.2835    6.8430    0.0000 C   0  0  0  0  0  0  0  0  0  0  0  0
   23.9980    6.4305    0.0000 C   0  0  0  0  0  0  0  0  0  0  0  0
   24.7124    6.8430    0.0000 C   0  0  0  0  0  0  0  0  0  0  0  0
   10.8355    7.5574    0.0000 H   0  0  0  0  0  0  0  0  0  0  0  0
    9.7086    7.2555    0.0000 H   0  0  0  0  0  0  0  0  0  0  0  0
   10.0105    6.1285    0.0000 H   0  0  0  0  0  0  0  0  0  0  0  0
   10.7672    5.6932    0.0000 H   0  0  0  0  0  0  0  0  0  0  0  0
   11.5078    5.6932    0.0000 H   0  0  0  0  0  0  0  0  0  0  0  0
   12.2222    7.5802    0.0000 H   0  0  0  0  0  0  0  0  0  0  0  0
   11.4817    7.5802    0.0000 H   0  0  0  0  0  0  0  0  0  0  0  0
   12.1962    5.6932    0.0000 H   0  0  0  0  0  0  0  0  0  0  0  0
   12.9367    5.6932    0.0000 H   0  0  0  0  0  0  0  0  0  0  0  0
   13.6512    7.5802    0.0000 H   0  0  0  0  0  0  0  0  0  0  0  0
   12.9107    7.5802    0.0000 H   0  0  0  0  0  0  0  0  0  0  0  0
   13.6251    5.6932    0.0000 H   0  0  0  0  0  0  0  0  0  0  0  0
   14.3656    5.6932    0.0000 H   0  0  0  0  0  0  0  0  0  0  0  0
   15.0801    7.5802    0.0000 H   0  0  0  0  0  0  0  0  0  0  0  0
   14.3396    7.5802    0.0000 H   0  0  0  0  0  0  0  0  0  0  0  0
   15.0541    5.6932    0.0000 H   0  0  0  0  0  0  0  0  0  0  0  0
   15.7946    5.6932    0.0000 H   0  0  0  0  0  0  0  0  0  0  0  0
   16.5091    7.5802    0.0000 H   0  0  0  0  0  0  0  0  0  0  0  0
   15.7685    7.5802    0.0000 H   0  0  0  0  0  0  0  0  0  0  0  0
   16.4830    5.6932    0.0000 H   0  0  0  0  0  0  0  0  0  0  0  0
   17.2235    5.6932    0.0000 H   0  0  0  0  0  0  0  0  0  0  0  0
   17.9380    7.5802    0.0000 H   0  0  0  0  0  0  0  0  0  0  0  0
   17.1975    7.5802    0.0000 H   0  0  0  0  0  0  0  0  0  0  0  0
   17.9119    5.6932    0.0000 H   0  0  0  0  0  0  0  0  0  0  0  0
   18.6525    5.6932    0.0000 H   0  0  0  0  0  0  0  0  0  0  0  0
   19.3669    7.5802    0.0000 H   0  0  0  0  0  0  0  0  0  0  0  0
   18.6264    7.5802    0.0000 H   0  0  0  0  0  0  0  0  0  0  0  0
   19.3409    5.6932    0.0000 H   0  0  0  0  0  0  0  0  0  0  0  0
   20.0814    5.6932    0.0000 H   0  0  0  0  0  0  0  0  0  0  0  0
   20.7959    7.5802    0.0000 H   0  0  0  0  0  0  0  0  0  0  0  0
   20.0554    7.5802    0.0000 H   0  0  0  0  0  0  0  0  0  0  0  0
   20.7698    5.6932    0.0000 H   0  0  0  0  0  0  0  0  0  0  0  0
   21.5104    5.6932    0.0000 H   0  0  0  0  0  0  0  0  0  0  0  0
   22.2248    7.5802    0.0000 H   0  0  0  0  0  0  0  0  0  0  0  0
   21.4843    7.5802    0.0000 H   0  0  0  0  0  0  0  0  0  0  0  0
   22.1988    5.6932    0.0000 H   0  0  0  0  0  0  0  0  0  0  0  0
   22.9393    5.6932    0.0000 H   0  0  0  0  0  0  0  0  0  0  0  0
   23.6538    7.5802    0.0000 H   0  0  0  0  0  0  0  0  0  0  0  0
   22.9132    7.5802    0.0000 H   0  0  0  0  0  0  0  0  0  0  0  0
   23.6277    5.6932    0.0000 H   0  0  0  0  0  0  0  0  0  0  0  0
   24.3682    5.6932    0.0000 H   0  0  0  0  0  0  0  0  0  0  0  0
   25.1249    6.1285    0.0000 H   0  0  0  0  0  0  0  0  0  0  0  0
   25.4269    7.2555    0.0000 H   0  0  0  0  0  0  0  0  0  0  0  0
   24.2999    7.5574    0.0000 H   0  0  0  0  0  0  0  0  0  0  0  0
  1  2  1  0  0  0  0
  2  3  1  0  0  0  0
  3  4  1  0  0  0  0
  4  5  1  0  0  0  0
  5  6  1  0  0  0  0
  6  7  1  0  0  0  0
  7  8  1  0  0  0  0
  8  9  1  0  0  0  0
  9 10  1  0  0  0  0
 10 11  1  0  0  0  0
 11 12  1  0  0  0  0
 12 13  1  0  0  0  0
 13 14  1  0  0  0  0
 14 15  1  0  0  0  0
 15 16  1  0  0  0  0
 16 17  1  0  0  0  0
 17 18  1  0  0  0  0
 18 19  1  0  0  0  0
 19 20  1  0  0  0  0
 20 21  1  0  0  0  0
  1 22  1  0  0  0  0
  1 23  1  0  0  0  0
  1 24  1  0  0  0  0
  2 25  1  0  0  0  0
  2 26  1  0  0  0  0
  3 27  1  0  0  0  0
  3 28  1  0  0  0  0
  4 29  1  0  0  0  0
  4 30  1  0  0  0  0
  5 31  1  0  0  0  0
  5 32  1  0  0  0  0
  6 33  1  0  0  0  0
  6 34  1  0  0  0  0
  7 35  1  0  0  0  0
  7 36  1  0  0  0  0
  8 37  1  0  0  0  0
  8 38  1  0  0  0  0
  9 39  1  0  0  0  0
  9 40  1  0  0  0  0
 10 41  1  0  0  0  0
 10 42  1  0  0  0  0
 11 43  1  0  0  0  0
 11 44  1  0  0  0  0
 12 45  1  0  0  0  0
 12 46  1  0  0  0  0
 13 47  1  0  0  0  0
 13 48  1  0  0  0  0
 14 49  1  0  0  0  0
 14 50  1  0  0  0  0
 15 51  1  0  0  0  0
 15 52  1  0  0  0  0
 16 53  1  0  0  0  0
 16 54  1  0  0  0  0
 17 55  1  0  0  0  0
 17 56  1  0  0  0  0
 18 57  1  0  0  0  0
 18 58  1  0  0  0  0
 19 59  1  0  0  0  0
 19 60  1  0  0  0  0
 20 61  1  0  0  0  0
 20 62  1  0  0  0  0
 21 63  1  0  0  0  0
 21 64  1  0  0  0  0
 21 65  1  0  0  0  0
M  END
>  <InChIKey>
FNAZRRHPUDJQCJ-UHFFFAOYSA-N

>  <UN GHS>
Non-irritant

>  <CASRN>
64741-76-0

> <Outcome>
0

>  <Index>
191

>  <StandardizerResult>
Clear Stereo (ID: ClearStereo)
Wedge Clean (ID: WedgeClean)
Mesomerize (ID: Mesomerize)
Tautomerize (ID: Tautomerize)
Add Explicit Hydrogens (ID: AddExplicitH)
Neutralize (ID: Neutralize)
Clean 2D (ID: Clean2D)

> <knn Distance>
2.44948983192444

> <CpId>
191

$$$$
221
  Mrv1532301301811342D          

 14 14  0  0  0  0            999 V2000
    0.7145    2.0625    0.0000 O   0  0  0  0  0  0  0  0  0  0  0  0
    0.7145    1.2375    0.0000 C   0  0  0  0  0  0  0  0  0  0  0  0
    1.4289    0.8250    0.0000 C   0  0  0  0  0  0  0  0  0  0  0  0
    1.4289    0.0000    0.0000 C   0  0  0  0  0  0  0  0  0  0  0  0
    0.7145   -0.4125    0.0000 C   0  0  0  0  0  0  0  0  0  0  0  0
   -0.0000    0.0000    0.0000 C   0  0  0  0  0  0  0  0  0  0  0  0
   -0.7145   -0.4125    0.0000 O   0  0  0  0  0  0  0  0  0  0  0  0
   -0.0000    0.8250    0.0000 C   0  0  0  0  0  0  0  0  0  0  0  0
    1.4289    2.4750    0.0000 H   0  0  0  0  0  0  0  0  0  0  0  0
    2.1434    1.2375    0.0000 H   0  0  0  0  0  0  0  0  0  0  0  0
    2.1434   -0.4125    0.0000 H   0  0  0  0  0  0  0  0  0  0  0  0
    0.7145   -1.2375    0.0000 H   0  0  0  0  0  0  0  0  0  0  0  0
   -1.4289    0.0000    0.0000 H   0  0  0  0  0  0  0  0  0  0  0  0
   -0.7145    1.2375    0.0000 H   0  0  0  0  0  0  0  0  0  0  0  0
  1  2  1  0  0  0  0
  2  3  4  0  0  0  0
  3  4  4  0  0  0  0
  4  5  4  0  0  0  0
  5  6  4  0  0  0  0
  6  7  1  0  0  0  0
  6  8  4  0  0  0  0
  2  8  4  0  0  0  0
  1  9  1  0  0  0  0
  3 10  1  0  0  0  0
  4 11  1  0  0  0  0
  5 12  1  0  0  0  0
  7 13  1  0  0  0  0
  8 14  1  0  0  0  0
M  END
>  <InChIKey>
GHMLBKRAJCXXBS-UHFFFAOYSA-N

>  <UN GHS>
Non-irritant

>  <CASRN>
108-46-3

> <Outcome>
0

>  <Index>
221

>  <StandardizerResult>
Dearomatize (ID: Dearomatize)
Clear Stereo (ID: ClearStereo)
Wedge Clean (ID: WedgeClean)
Mesomerize (ID: Mesomerize)
Tautomerize (ID: Tautomerize)
Aromatize (ID: Aromatize)
Add Explicit Hydrogens (ID: AddExplicitH)
Neutralize (ID: Neutralize)
Clean 2D (ID: Clean2D)

> <knn Distance>
2.44948983192444

> <CpId>
221

$$$$
299
  Mrv1532301301811342D          

 64 63  0  0  0  0            999 V2000
    9.7086    6.4299    0.0000 C   0  0  0  0  0  0  0  0  0  0  0  0
   10.4230    6.8424    0.0000 C   0  0  0  0  0  0  0  0  0  0  0  0
   11.1375    6.4299    0.0000 C   0  0  0  0  0  0  0  0  0  0  0  0
   11.8520    6.8424    0.0000 C   0  0  0  0  0  0  0  0  0  0  0  0
   12.5664    6.4299    0.0000 C   0  0  0  0  0  0  0  0  0  0  0  0
   13.2809    6.8424    0.0000 C   0  0  0  0  0  0  0  0  0  0  0  0
   13.9954    6.4299    0.0000 C   0  0  0  0  0  0  0  0  0  0  0  0
   14.7099    6.8424    0.0000 C   0  0  0  0  0  0  0  0  0  0  0  0
   15.4243    6.4299    0.0000 C   0  0  0  0  0  0  0  0  0  0  0  0
   16.1388    6.8424    0.0000 C   0  0  0  0  0  0  0  0  0  0  0  0
   16.8533    6.4299    0.0000 C   0  0  0  0  0  0  0  0  0  0  0  0
   17.5677    6.8424    0.0000 C   0  0  0  0  0  0  0  0  0  0  0  0
   18.2822    6.4299    0.0000 C   0  0  0  0  0  0  0  0  0  0  0  0
   18.9967    6.8424    0.0000 C   0  0  0  0  0  0  0  0  0  0  0  0
   19.7112    6.4299    0.0000 C   0  0  0  0  0  0  0  0  0  0  0  0
   20.4256    6.8424    0.0000 C   0  0  0  0  0  0  0  0  0  0  0  0
   21.1401    6.4299    0.0000 C   0  0  0  0  0  0  0  0  0  0  0  0
   21.8546    6.8424    0.0000 C   0  0  0  0  0  0  0  0  0  0  0  0
   22.5690    6.4299    0.0000 O   0  0  0  0  0  0  0  0  0  0  0  0
   23.2835    6.8424    0.0000 C   0  0  0  0  0  0  0  0  0  0  0  0
   23.9980    6.4299    0.0000 C   0  0  0  0  0  0  0  0  0  0  0  0
   24.7125    6.8424    0.0000 O   0  0  0  0  0  0  0  0  0  0  0  0
    9.2961    7.1444    0.0000 H   0  0  0  0  0  0  0  0  0  0  0  0
    8.9941    6.0174    0.0000 H   0  0  0  0  0  0  0  0  0  0  0  0
   10.1211    5.7155    0.0000 H   0  0  0  0  0  0  0  0  0  0  0  0
   10.7933    7.5797    0.0000 H   0  0  0  0  0  0  0  0  0  0  0  0
   10.0528    7.5797    0.0000 H   0  0  0  0  0  0  0  0  0  0  0  0
   10.7672    5.6927    0.0000 H   0  0  0  0  0  0  0  0  0  0  0  0
   11.5078    5.6927    0.0000 H   0  0  0  0  0  0  0  0  0  0  0  0
   12.2222    7.5797    0.0000 H   0  0  0  0  0  0  0  0  0  0  0  0
   11.4817    7.5797    0.0000 H   0  0  0  0  0  0  0  0  0  0  0  0
   12.1962    5.6927    0.0000 H   0  0  0  0  0  0  0  0  0  0  0  0
   12.9367    5.6927    0.0000 H   0  0  0  0  0  0  0  0  0  0  0  0
   13.6512    7.5797    0.0000 H   0  0  0  0  0  0  0  0  0  0  0  0
   12.9107    7.5797    0.0000 H   0  0  0  0  0  0  0  0  0  0  0  0
   13.6251    5.6927    0.0000 H   0  0  0  0  0  0  0  0  0  0  0  0
   14.3656    5.6927    0.0000 H   0  0  0  0  0  0  0  0  0  0  0  0
   15.0801    7.5797    0.0000 H   0  0  0  0  0  0  0  0  0  0  0  0
   14.3396    7.5797    0.0000 H   0  0  0  0  0  0  0  0  0  0  0  0
   15.0541    5.6927    0.0000 H   0  0  0  0  0  0  0  0  0  0  0  0
   15.7946    5.6927    0.0000 H   0  0  0  0  0  0  0  0  0  0  0  0
   16.5091    7.5797    0.0000 H   0  0  0  0  0  0  0  0  0  0  0  0
   15.7685    7.5797    0.0000 H   0  0  0  0  0  0  0  0  0  0  0  0
   16.4830    5.6927    0.0000 H   0  0  0  0  0  0  0  0  0  0  0  0
   17.2235    5.6927    0.0000 H   0  0  0  0  0  0  0  0  0  0  0  0
   17.9380    7.5797    0.0000 H   0  0  0  0  0  0  0  0  0  0  0  0
   17.1975    7.5797    0.0000 H   0  0  0  0  0  0  0  0  0  0  0  0
   17.9120    5.6927    0.0000 H   0  0  0  0  0  0  0  0  0  0  0  0
   18.6525    5.6927    0.0000 H   0  0  0  0  0  0  0  0  0  0  0  0
   19.3669    7.5797    0.0000 H   0  0  0  0  0  0  0  0  0  0  0  0
   18.6264    7.5797    0.0000 H   0  0  0  0  0  0  0  0  0  0  0  0
   19.3409    5.6927    0.0000 H   0  0  0  0  0  0  0  0  0  0  0  0
   20.0814    5.6927    0.0000 H   0  0  0  0  0  0  0  0  0  0  0  0
   20.7959    7.5797    0.0000 H   0  0  0  0  0  0  0  0  0  0  0  0
   20.0554    7.5797    0.0000 H   0  0  0  0  0  0  0  0  0  0  0  0
   20.7698    5.6927    0.0000 H   0  0  0  0  0  0  0  0  0  0  0  0
   21.5104    5.6927    0.0000 H   0  0  0  0  0  0  0  0  0  0  0  0
   22.2248    7.5797    0.0000 H   0  0  0  0  0  0  0  0  0  0  0  0
   21.4843    7.5797    0.0000 H   0  0  0  0  0  0  0  0  0  0  0  0
   23.6538    7.5797    0.0000 H   0  0  0  0  0  0  0  0  0  0  0  0
   22.9133    7.5797    0.0000 H   0  0  0  0  0  0  0  0  0  0  0  0
   23.6277    5.6927    0.0000 H   0  0  0  0  0  0  0  0  0  0  0  0
   24.3682    5.6927    0.0000 H   0  0  0  0  0  0  0  0  0  0  0  0
   25.4269    6.4299    0.0000 H   0  0  0  0  0  0  0  0  0  0  0  0
  1  2  1  0  0  0  0
  2  3  1  0  0  0  0
  3  4  1  0  0  0  0
  4  5  1  0  0  0  0
  5  6  1  0  0  0  0
  6  7  1  0  0  0  0
  7  8  1  0  0  0  0
  8  9  1  0  0  0  0
  9 10  1  0  0  0  0
 10 11  1  0  0  0  0
 11 12  1  0  0  0  0
 12 13  1  0  0  0  0
 13 14  1  0  0  0  0
 14 15  1  0  0  0  0
 15 16  1  0  0  0  0
 16 17  1  0  0  0  0
 17 18  1  0  0  0  0
 18 19  1  0  0  0  0
 19 20  1  0  0  0  0
 20 21  1  0  0  0  0
 21 22  1  0  0  0  0
  1 23  1  0  0  0  0
  1 24  1  0  0  0  0
  1 25  1  0  0  0  0
  2 26  1  0  0  0  0
  2 27  1  0  0  0  0
  3 28  1  0  0  0  0
  3 29  1  0  0  0  0
  4 30  1  0  0  0  0
  4 31  1  0  0  0  0
  5 32  1  0  0  0  0
  5 33  1  0  0  0  0
  6 34  1  0  0  0  0
  6 35  1  0  0  0  0
  7 36  1  0  0  0  0
  7 37  1  0  0  0  0
  8 38  1  0  0  0  0
  8 39  1  0  0  0  0
  9 40  1  0  0  0  0
  9 41  1  0  0  0  0
 10 42  1  0  0  0  0
 10 43  1  0  0  0  0
 11 44  1  0  0  0  0
 11 45  1  0  0  0  0
 12 46  1  0  0  0  0
 12 47  1  0  0  0  0
 13 48  1  0  0  0  0
 13 49  1  0  0  0  0
 14 50  1  0  0  0  0
 14 51  1  0  0  0  0
 15 52  1  0  0  0  0
 15 53  1  0  0  0  0
 16 54  1  0  0  0  0
 16 55  1  0  0  0  0
 17 56  1  0  0  0  0
 17 57  1  0  0  0  0
 18 58  1  0  0  0  0
 18 59  1  0  0  0  0
 20 60  1  0  0  0  0
 20 61  1  0  0  0  0
 21 62  1  0  0  0  0
 21 63  1  0  0  0  0
 22 64  1  0  0  0  0
M  END
>  <InChIKey>
ICIDSZQHPUZUHC-UHFFFAOYSA-N

>  <UN GHS>
Non-irritant

>  <CASRN>
9005-00-9

> <Outcome>
0

>  <Index>
299

>  <StandardizerResult>
Clear Stereo (ID: ClearStereo)
Wedge Clean (ID: WedgeClean)
Mesomerize (ID: Mesomerize)
Tautomerize (ID: Tautomerize)
Add Explicit Hydrogens (ID: AddExplicitH)
Neutralize (ID: Neutralize)
Clean 2D (ID: Clean2D)

> <knn Distance>
2.44948983192444

> <CpId>
299

$$$$
311
  Mrv1532301301811342D          

 41 40  0  0  0  0            999 V2000
    5.4730    3.9853    0.0000 C   0  0  0  0  0  0  0  0  0  0  0  0
    6.1875    3.5728    0.0000 C   0  0  0  0  0  0  0  0  0  0  0  0
    6.9020    3.9853    0.0000 C   0  0  0  0  0  0  0  0  0  0  0  0
    7.6164    3.5728    0.0000 C   0  0  0  0  0  0  0  0  0  0  0  0
    8.3309    3.9853    0.0000 C   0  0  0  0  0  0  0  0  0  0  0  0
    9.0454    3.5728    0.0000 C   0  0  0  0  0  0  0  0  0  0  0  0
    9.7599    3.9853    0.0000 C   0  0  0  0  0  0  0  0  0  0  0  0
   10.4743    3.5728    0.0000 C   0  0  0  0  0  0  0  0  0  0  0  0
   11.1888    3.9853    0.0000 C   0  0  0  0  0  0  0  0  0  0  0  0
   11.9033    3.5728    0.0000 C   0  0  0  0  0  0  0  0  0  0  0  0
   12.6177    3.9853    0.0000 C   0  0  0  0  0  0  0  0  0  0  0  0
   13.3322    3.5728    0.0000 C   0  0  0  0  0  0  0  0  0  0  0  0
   14.0467    3.9853    0.0000 C   0  0  0  0  0  0  0  0  0  0  0  0
    5.8855    4.6998    0.0000 H   0  0  0  0  0  0  0  0  0  0  0  0
    4.7586    4.3978    0.0000 H   0  0  0  0  0  0  0  0  0  0  0  0
    5.0605    3.2709    0.0000 H   0  0  0  0  0  0  0  0  0  0  0  0
    5.8172    2.8356    0.0000 H   0  0  0  0  0  0  0  0  0  0  0  0
    6.5578    2.8356    0.0000 H   0  0  0  0  0  0  0  0  0  0  0  0
    7.2722    4.7226    0.0000 H   0  0  0  0  0  0  0  0  0  0  0  0
    6.5317    4.7226    0.0000 H   0  0  0  0  0  0  0  0  0  0  0  0
    7.2462    2.8356    0.0000 H   0  0  0  0  0  0  0  0  0  0  0  0
    7.9867    2.8356    0.0000 H   0  0  0  0  0  0  0  0  0  0  0  0
    8.7012    4.7226    0.0000 H   0  0  0  0  0  0  0  0  0  0  0  0
    7.9607    4.7226    0.0000 H   0  0  0  0  0  0  0  0  0  0  0  0
    8.6751    2.8356    0.0000 H   0  0  0  0  0  0  0  0  0  0  0  0
    9.4156    2.8356    0.0000 H   0  0  0  0  0  0  0  0  0  0  0  0
   10.1301    4.7226    0.0000 H   0  0  0  0  0  0  0  0  0  0  0  0
    9.3896    4.7226    0.0000 H   0  0  0  0  0  0  0  0  0  0  0  0
   10.1041    2.8356    0.0000 H   0  0  0  0  0  0  0  0  0  0  0  0
   10.8446    2.8356    0.0000 H   0  0  0  0  0  0  0  0  0  0  0  0
   11.5591    4.7226    0.0000 H   0  0  0  0  0  0  0  0  0  0  0  0
   10.8185    4.7226    0.0000 H   0  0  0  0  0  0  0  0  0  0  0  0
   11.5330    2.8356    0.0000 H   0  0  0  0  0  0  0  0  0  0  0  0
   12.2735    2.8356    0.0000 H   0  0  0  0  0  0  0  0  0  0  0  0
   12.9880    4.7226    0.0000 H   0  0  0  0  0  0  0  0  0  0  0  0
   12.2475    4.7226    0.0000 H   0  0  0  0  0  0  0  0  0  0  0  0
   12.9619    2.8356    0.0000 H   0  0  0  0  0  0  0  0  0  0  0  0
   13.7025    2.8356    0.0000 H   0  0  0  0  0  0  0  0  0  0  0  0
   14.4592    3.2709    0.0000 H   0  0  0  0  0  0  0  0  0  0  0  0
   14.7612    4.3978    0.0000 H   0  0  0  0  0  0  0  0  0  0  0  0
   13.6342    4.6998    0.0000 H   0  0  0  0  0  0  0  0  0  0  0  0
  1  2  1  0  0  0  0
  2  3  1  0  0  0  0
  3  4  1  0  0  0  0
  4  5  1  0  0  0  0
  5  6  1  0  0  0  0
  6  7  1  0  0  0  0
  7  8  1  0  0  0  0
  8  9  1  0  0  0  0
  9 10  1  0  0  0  0
 10 11  1  0  0  0  0
 11 12  1  0  0  0  0
 12 13  1  0  0  0  0
  1 14  1  0  0  0  0
  1 15  1  0  0  0  0
  1 16  1  0  0  0  0
  2 17  1  0  0  0  0
  2 18  1  0  0  0  0
  3 19  1  0  0  0  0
  3 20  1  0  0  0  0
  4 21  1  0  0  0  0
  4 22  1  0  0  0  0
  5 23  1  0  0  0  0
  5 24  1  0  0  0  0
  6 25  1  0  0  0  0
  6 26  1  0  0  0  0
  7 27  1  0  0  0  0
  7 28  1  0  0  0  0
  8 29  1  0  0  0  0
  8 30  1  0  0  0  0
  9 31  1  0  0  0  0
  9 32  1  0  0  0  0
 10 33  1  0  0  0  0
 10 34  1  0  0  0  0
 11 35  1  0  0  0  0
 11 36  1  0  0  0  0
 12 37  1  0  0  0  0
 12 38  1  0  0  0  0
 13 39  1  0  0  0  0
 13 40  1  0  0  0  0
 13 41  1  0  0  0  0
M  END
>  <InChIKey>
IIYFAKIEWZDVMP-UHFFFAOYSA-N

>  <UN GHS>
Non-irritant

>  <CASRN>
629-50-5

> <Outcome>
0

>  <Index>
311

>  <StandardizerResult>
Clear Stereo (ID: ClearStereo)
Wedge Clean (ID: WedgeClean)
Mesomerize (ID: Mesomerize)
Tautomerize (ID: Tautomerize)
Add Explicit Hydrogens (ID: AddExplicitH)
Neutralize (ID: Neutralize)
Clean 2D (ID: Clean2D)

> <knn Distance>
2.44948983192444

> <CpId>
311

$$$$
420
  Mrv1532301301811342D          

 41 40  0  0  0  0            999 V2000
    6.7105    4.7002    0.0000 C   0  0  0  0  0  0  0  0  0  0  0  0
    7.4250    4.2877    0.0000 C   0  0  0  0  0  0  0  0  0  0  0  0
    8.1395    4.7002    0.0000 C   0  0  0  0  0  0  0  0  0  0  0  0
    8.8539    4.2877    0.0000 C   0  0  0  0  0  0  0  0  0  0  0  0
    9.5684    4.7002    0.0000 O   0  0  0  0  0  0  0  0  0  0  0  0
   10.2829    4.2877    0.0000 C   0  0  0  0  0  0  0  0  0  0  0  0
   10.9974    4.7002    0.0000 C   0  0  0  0  0  0  0  0  0  0  0  0
   11.7118    4.2877    0.0000 O   0  0  0  0  0  0  0  0  0  0  0  0
   12.4263    4.7002    0.0000 C   0  0  0  0  0  0  0  0  0  0  0  0
   13.1408    4.2877    0.0000 C   0  0  0  0  0  0  0  0  0  0  0  0
   13.8552    4.7002    0.0000 O   0  0  0  0  0  0  0  0  0  0  0  0
   14.5697    4.2877    0.0000 C   0  0  0  0  0  0  0  0  0  0  0  0
   15.2842    4.7002    0.0000 C   0  0  0  0  0  0  0  0  0  0  0  0
   15.9987    4.2877    0.0000 C   0  0  0  0  0  0  0  0  0  0  0  0
   16.7131    4.7002    0.0000 C   0  0  0  0  0  0  0  0  0  0  0  0
    7.1230    5.4146    0.0000 H   0  0  0  0  0  0  0  0  0  0  0  0
    5.9961    5.1127    0.0000 H   0  0  0  0  0  0  0  0  0  0  0  0
    6.2980    3.9857    0.0000 H   0  0  0  0  0  0  0  0  0  0  0  0
    7.0547    3.5504    0.0000 H   0  0  0  0  0  0  0  0  0  0  0  0
    7.7953    3.5504    0.0000 H   0  0  0  0  0  0  0  0  0  0  0  0
    8.5097    5.4374    0.0000 H   0  0  0  0  0  0  0  0  0  0  0  0
    7.7692    5.4374    0.0000 H   0  0  0  0  0  0  0  0  0  0  0  0
    8.4837    3.5504    0.0000 H   0  0  0  0  0  0  0  0  0  0  0  0
    9.2242    3.5504    0.0000 H   0  0  0  0  0  0  0  0  0  0  0  0
    9.9126    3.5504    0.0000 H   0  0  0  0  0  0  0  0  0  0  0  0
   10.6531    3.5504    0.0000 H   0  0  0  0  0  0  0  0  0  0  0  0
   11.3676    5.4374    0.0000 H   0  0  0  0  0  0  0  0  0  0  0  0
   10.6271    5.4374    0.0000 H   0  0  0  0  0  0  0  0  0  0  0  0
   12.7966    5.4374    0.0000 H   0  0  0  0  0  0  0  0  0  0  0  0
   12.0560    5.4374    0.0000 H   0  0  0  0  0  0  0  0  0  0  0  0
   12.7705    3.5504    0.0000 H   0  0  0  0  0  0  0  0  0  0  0  0
   13.5110    3.5504    0.0000 H   0  0  0  0  0  0  0  0  0  0  0  0
   14.1995    3.5504    0.0000 H   0  0  0  0  0  0  0  0  0  0  0  0
   14.9400    3.5504    0.0000 H   0  0  0  0  0  0  0  0  0  0  0  0
   15.6544    5.4374    0.0000 H   0  0  0  0  0  0  0  0  0  0  0  0
   14.9139    5.4374    0.0000 H   0  0  0  0  0  0  0  0  0  0  0  0
   15.6284    3.5504    0.0000 H   0  0  0  0  0  0  0  0  0  0  0  0
   16.3689    3.5504    0.0000 H   0  0  0  0  0  0  0  0  0  0  0  0
   17.1256    3.9857    0.0000 H   0  0  0  0  0  0  0  0  0  0  0  0
   17.4276    5.1127    0.0000 H   0  0  0  0  0  0  0  0  0  0  0  0
   16.3006    5.4146    0.0000 H   0  0  0  0  0  0  0  0  0  0  0  0
  1  2  1  0  0  0  0
  2  3  1  0  0  0  0
  3  4  1  0  0  0  0
  4  5  1  0  0  0  0
  5  6  1  0  0  0  0
  6  7  1  0  0  0  0
  7  8  1  0  0  0  0
  8  9  1  0  0  0  0
  9 10  1  0  0  0  0
 10 11  1  0  0  0  0
 11 12  1  0  0  0  0
 12 13  1  0  0  0  0
 13 14  1  0  0  0  0
 14 15  1  0  0  0  0
  1 16  1  0  0  0  0
  1 17  1  0  0  0  0
  1 18  1  0  0  0  0
  2 19  1  0  0  0  0
  2 20  1  0  0  0  0
  3 21  1  0  0  0  0
  3 22  1  0  0  0  0
  4 23  1  0  0  0  0
  4 24  1  0  0  0  0
  6 25  1  0  0  0  0
  6 26  1  0  0  0  0
  7 27  1  0  0  0  0
  7 28  1  0  0  0  0
  9 29  1  0  0  0  0
  9 30  1  0  0  0  0
 10 31  1  0  0  0  0
 10 32  1  0  0  0  0
 12 33  1  0  0  0  0
 12 34  1  0  0  0  0
 13 35  1  0  0  0  0
 13 36  1  0  0  0  0
 14 37  1  0  0  0  0
 14 38  1  0  0  0  0
 15 39  1  0  0  0  0
 15 40  1  0  0  0  0
 15 41  1  0  0  0  0
M  END
>  <InChIKey>
KZVBBTZJMSWGTK-UHFFFAOYSA-N

>  <UN GHS>
Non-irritant

>  <CASRN>
112-73-2

> <Outcome>
0

>  <Index>
420

>  <StandardizerResult>
Clear Stereo (ID: ClearStereo)
Wedge Clean (ID: WedgeClean)
Mesomerize (ID: Mesomerize)
Tautomerize (ID: Tautomerize)
Add Explicit Hydrogens (ID: AddExplicitH)
Neutralize (ID: Neutralize)
Clean 2D (ID: Clean2D)

> <knn Distance>
2.44948983192444

> <CpId>
420

$$$$
429
  Mrv1532301301811342D          

 25 24  0  0  0  0            999 V2000
    0.7860   -1.4393    0.0000 C   0  0  0  0  0  0  0  0  0  0  0  0
    1.1985   -2.1537    0.0000 C   0  0  0  0  0  0  0  0  0  0  0  0
    2.0235   -2.1537    0.0000 C   0  0  0  0  0  0  0  0  0  0  0  0
    2.4360   -2.8682    0.0000 C   0  0  0  0  0  0  0  0  0  0  0  0
    3.2610   -2.8682    0.0000 C   0  0  0  0  0  0  0  0  0  0  0  0
    3.6735   -3.5827    0.0000 C   0  0  0  0  0  0  0  0  0  0  0  0
    4.4985   -3.5827    0.0000 C   0  0  0  0  0  0  0  0  0  0  0  0
    3.6735   -2.1537    0.0000 C   0  0  0  0  0  0  0  0  0  0  0  0
    4.4985   -2.1537    0.0000 O   0  0  0  0  0  0  0  0  0  0  0  0
    1.5005   -1.0268    0.0000 H   0  0  0  0  0  0  0  0  0  0  0  0
    0.3735   -0.7248    0.0000 H   0  0  0  0  0  0  0  0  0  0  0  0
    0.0716   -1.8518    0.0000 H   0  0  0  0  0  0  0  0  0  0  0  0
    0.5093   -2.6071    0.0000 H   0  0  0  0  0  0  0  0  0  0  0  0
    1.1506   -2.9773    0.0000 H   0  0  0  0  0  0  0  0  0  0  0  0
    2.7128   -1.7004    0.0000 H   0  0  0  0  0  0  0  0  0  0  0  0
    2.0715   -1.3301    0.0000 H   0  0  0  0  0  0  0  0  0  0  0  0
    1.7468   -3.3216    0.0000 H   0  0  0  0  0  0  0  0  0  0  0  0
    2.3881   -3.6918    0.0000 H   0  0  0  0  0  0  0  0  0  0  0  0
    2.8485   -3.5827    0.0000 H   0  0  0  0  0  0  0  0  0  0  0  0
    3.3914   -4.3579    0.0000 H   0  0  0  0  0  0  0  0  0  0  0  0
    3.9557   -4.3579    0.0000 H   0  0  0  0  0  0  0  0  0  0  0  0
    5.0425   -4.2029    0.0000 H   0  0  0  0  0  0  0  0  0  0  0  0
    5.2303   -3.2017    0.0000 H   0  0  0  0  0  0  0  0  0  0  0  0
    4.3024   -2.7813    0.0000 H   0  0  0  0  0  0  0  0  0  0  0  0
    3.2610   -1.4393    0.0000 H   0  0  0  0  0  0  0  0  0  0  0  0
  1  2  1  0  0  0  0
  2  3  1  0  0  0  0
  3  4  1  0  0  0  0
  4  5  1  0  0  0  0
  5  6  1  0  0  0  0
  6  7  1  0  0  0  0
  5  8  1  0  0  0  0
  8  9  2  0  0  0  0
  1 10  1  0  0  0  0
  1 11  1  0  0  0  0
  1 12  1  0  0  0  0
  2 13  1  0  0  0  0
  2 14  1  0  0  0  0
  3 15  1  0  0  0  0
  3 16  1  0  0  0  0
  4 17  1  0  0  0  0
  4 18  1  0  0  0  0
  5 19  1  0  0  0  0
  6 20  1  0  0  0  0
  6 21  1  0  0  0  0
  7 22  1  0  0  0  0
  7 23  1  0  0  0  0
  7 24  1  0  0  0  0
  8 25  1  0  0  0  0
M  END
>  <InChIKey>
LGYNIFWIKSEESD-UHFFFAOYSA-N

>  <UN GHS>
Non-irritant

>  <CASRN>
123-05-7

> <Outcome>
0

>  <Index>
429

>  <StandardizerResult>
Clear Stereo (ID: ClearStereo)
Wedge Clean (ID: WedgeClean)
Mesomerize (ID: Mesomerize)
Tautomerize (ID: Tautomerize)
Add Explicit Hydrogens (ID: AddExplicitH)
Neutralize (ID: Neutralize)
Clean 2D (ID: Clean2D)

> <knn Distance>
2.44948983192444

> <CpId>
429

$$$$
455
  Mrv1532301301811342D          

 39 38  0  0  0  0            999 V2000
    5.3915    3.9600    0.0000 C   0  0  0  0  0  0  0  0  0  0  0  0
    6.1060    3.5475    0.0000 C   0  0  0  0  0  0  0  0  0  0  0  0
    6.1060    2.7225    0.0000 C   0  0  0  0  0  0  0  0  0  0  0  0
    6.8204    3.9600    0.0000 C   0  0  0  0  0  0  0  0  0  0  0  0
    7.5349    3.5475    0.0000 C   0  0  0  0  0  0  0  0  0  0  0  0
    8.2494    3.9600    0.0000 C   0  0  0  0  0  0  0  0  0  0  0  0
    8.9639    3.5475    0.0000 C   0  0  0  0  0  0  0  0  0  0  0  0
    9.6783    3.9600    0.0000 C   0  0  0  0  0  0  0  0  0  0  0  0
   10.3928    3.5475    0.0000 C   0  0  0  0  0  0  0  0  0  0  0  0
   11.1073    3.9600    0.0000 C   0  0  0  0  0  0  0  0  0  0  0  0
   11.8217    3.5475    0.0000 O   0  0  0  0  0  0  0  0  0  0  0  0
   12.5362    3.9600    0.0000 C   0  0  0  0  0  0  0  0  0  0  0  0
   12.5362    4.7850    0.0000 O   0  0  0  0  0  0  0  0  0  0  0  0
   13.2507    3.5475    0.0000 C   0  0  0  0  0  0  0  0  0  0  0  0
   13.9652    3.9600    0.0000 C   0  0  0  0  0  0  0  0  0  0  0  0
    5.8040    4.6745    0.0000 H   0  0  0  0  0  0  0  0  0  0  0  0
    4.6770    4.3725    0.0000 H   0  0  0  0  0  0  0  0  0  0  0  0
    4.9790    3.2455    0.0000 H   0  0  0  0  0  0  0  0  0  0  0  0
    5.3915    3.1350    0.0000 H   0  0  0  0  0  0  0  0  0  0  0  0
    5.5226    2.1392    0.0000 H   0  0  0  0  0  0  0  0  0  0  0  0
    6.5185    2.0080    0.0000 H   0  0  0  0  0  0  0  0  0  0  0  0
    6.9029    2.9360    0.0000 H   0  0  0  0  0  0  0  0  0  0  0  0
    7.1907    4.6973    0.0000 H   0  0  0  0  0  0  0  0  0  0  0  0
    6.4502    4.6973    0.0000 H   0  0  0  0  0  0  0  0  0  0  0  0
    8.0317    2.8889    0.0000 H   0  0  0  0  0  0  0  0  0  0  0  0
    7.5349    4.3725    0.0000 H   0  0  0  0  0  0  0  0  0  0  0  0
    8.8814    4.4903    0.0000 H   0  0  0  0  0  0  0  0  0  0  0  0
    8.3926    4.7725    0.0000 H   0  0  0  0  0  0  0  0  0  0  0  0
    8.5936    2.8103    0.0000 H   0  0  0  0  0  0  0  0  0  0  0  0
    9.3341    2.8103    0.0000 H   0  0  0  0  0  0  0  0  0  0  0  0
   10.4014    4.3573    0.0000 H   0  0  0  0  0  0  0  0  0  0  0  0
    9.7133    4.7843    0.0000 H   0  0  0  0  0  0  0  0  0  0  0  0
   10.0225    2.8103    0.0000 H   0  0  0  0  0  0  0  0  0  0  0  0
   10.7631    2.8103    0.0000 H   0  0  0  0  0  0  0  0  0  0  0  0
   11.7370    4.4930    0.0000 H   0  0  0  0  0  0  0  0  0  0  0  0
   11.2451    4.7734    0.0000 H   0  0  0  0  0  0  0  0  0  0  0  0
   13.2507    2.7225    0.0000 H   0  0  0  0  0  0  0  0  0  0  0  0
   14.6796    3.5475    0.0000 H   0  0  0  0  0  0  0  0  0  0  0  0
   13.9652    4.7850    0.0000 H   0  0  0  0  0  0  0  0  0  0  0  0
  1  2  1  0  0  0  0
  2  3  1  0  0  0  0
  2  4  1  0  0  0  0
  4  5  1  0  0  0  0
  5  6  1  0  0  0  0
  6  7  1  0  0  0  0
  7  8  1  0  0  0  0
  8  9  1  0  0  0  0
  9 10  1  0  0  0  0
 10 11  1  0  0  0  0
 11 12  1  0  0  0  0
 12 13  2  0  0  0  0
 12 14  1  0  0  0  0
 14 15  2  0  0  0  0
  1 16  1  0  0  0  0
  1 17  1  0  0  0  0
  1 18  1  0  0  0  0
  2 19  1  0  0  0  0
  3 20  1  0  0  0  0
  3 21  1  0  0  0  0
  3 22  1  0  0  0  0
  4 23  1  0  0  0  0
  4 24  1  0  0  0  0
  5 25  1  0  0  0  0
  5 26  1  0  0  0  0
  6 27  1  0  0  0  0
  6 28  1  0  0  0  0
  7 29  1  0  0  0  0
  7 30  1  0  0  0  0
  8 31  1  0  0  0  0
  8 32  1  0  0  0  0
  9 33  1  0  0  0  0
  9 34  1  0  0  0  0
 10 35  1  0  0  0  0
 10 36  1  0  0  0  0
 14 37  1  0  0  0  0
 15 38  1  0  0  0  0
 15 39  1  0  0  0  0
M  END
>  <InChIKey>
LVGFPWDANALGOY-UHFFFAOYSA-N

>  <UN GHS>
Non-irritant

>  <CASRN>
1330-61-6

> <Outcome>
0

>  <Index>
455

>  <StandardizerResult>
Clear Stereo (ID: ClearStereo)
Wedge Clean (ID: WedgeClean)
Mesomerize (ID: Mesomerize)
Tautomerize (ID: Tautomerize)
Add Explicit Hydrogens (ID: AddExplicitH)
Neutralize (ID: Neutralize)
Clean 2D (ID: Clean2D)

> <knn Distance>
2.44948983192444

> <CpId>
455

$$$$
513
  Mrv1532301301811342D          

 37 36  0  0  0  0            999 V2000
    3.5052    2.8578    0.0000 C   0  0  0  0  0  0  0  0  0  0  0  0
    4.2197    3.2703    0.0000 C   0  0  0  0  0  0  0  0  0  0  0  0
    4.9342    2.8578    0.0000 C   0  0  0  0  0  0  0  0  0  0  0  0
    5.6486    3.2703    0.0000 C   0  0  0  0  0  0  0  0  0  0  0  0
    6.3631    2.8578    0.0000 C   0  0  0  0  0  0  0  0  0  0  0  0
    7.0776    3.2703    0.0000 C   0  0  0  0  0  0  0  0  0  0  0  0
    7.7921    2.8578    0.0000 C   0  0  0  0  0  0  0  0  0  0  0  0
    8.5065    3.2703    0.0000 C   0  0  0  0  0  0  0  0  0  0  0  0
    9.2210    2.8578    0.0000 C   0  0  0  0  0  0  0  0  0  0  0  0
    9.9355    3.2703    0.0000 C   0  0  0  0  0  0  0  0  0  0  0  0
    9.9355    4.0953    0.0000 C   0  0  0  0  0  0  0  0  0  0  0  0
   10.6499    2.8578    0.0000 C   0  0  0  0  0  0  0  0  0  0  0  0
   11.3644    3.2703    0.0000 O   0  0  0  0  0  0  0  0  0  0  0  0
    3.0927    3.5723    0.0000 H   0  0  0  0  0  0  0  0  0  0  0  0
    2.7908    2.4453    0.0000 H   0  0  0  0  0  0  0  0  0  0  0  0
    3.9177    2.1433    0.0000 H   0  0  0  0  0  0  0  0  0  0  0  0
    4.5900    4.0075    0.0000 H   0  0  0  0  0  0  0  0  0  0  0  0
    3.8494    4.0075    0.0000 H   0  0  0  0  0  0  0  0  0  0  0  0
    4.5639    2.1205    0.0000 H   0  0  0  0  0  0  0  0  0  0  0  0
    5.3044    2.1205    0.0000 H   0  0  0  0  0  0  0  0  0  0  0  0
    6.0189    4.0075    0.0000 H   0  0  0  0  0  0  0  0  0  0  0  0
    5.2784    4.0075    0.0000 H   0  0  0  0  0  0  0  0  0  0  0  0
    5.9929    2.1205    0.0000 H   0  0  0  0  0  0  0  0  0  0  0  0
    6.7334    2.1205    0.0000 H   0  0  0  0  0  0  0  0  0  0  0  0
    7.4478    4.0075    0.0000 H   0  0  0  0  0  0  0  0  0  0  0  0
    6.7073    4.0075    0.0000 H   0  0  0  0  0  0  0  0  0  0  0  0
    7.4218    2.1205    0.0000 H   0  0  0  0  0  0  0  0  0  0  0  0
    8.1623    2.1205    0.0000 H   0  0  0  0  0  0  0  0  0  0  0  0
    8.8768    4.0075    0.0000 H   0  0  0  0  0  0  0  0  0  0  0  0
    8.1363    4.0075    0.0000 H   0  0  0  0  0  0  0  0  0  0  0  0
    8.8507    2.1205    0.0000 H   0  0  0  0  0  0  0  0  0  0  0  0
    9.5913    2.1205    0.0000 H   0  0  0  0  0  0  0  0  0  0  0  0
    9.2210    3.6828    0.0000 H   0  0  0  0  0  0  0  0  0  0  0  0
   10.7324    3.8818    0.0000 H   0  0  0  0  0  0  0  0  0  0  0  0
   10.3480    4.8098    0.0000 H   0  0  0  0  0  0  0  0  0  0  0  0
    9.3521    4.6786    0.0000 H   0  0  0  0  0  0  0  0  0  0  0  0
   10.6499    2.0328    0.0000 H   0  0  0  0  0  0  0  0  0  0  0  0
  1  2  1  0  0  0  0
  2  3  1  0  0  0  0
  3  4  1  0  0  0  0
  4  5  1  0  0  0  0
  5  6  1  0  0  0  0
  6  7  1  0  0  0  0
  7  8  1  0  0  0  0
  8  9  1  0  0  0  0
  9 10  1  0  0  0  0
 10 11  1  0  0  0  0
 10 12  1  0  0  0  0
 12 13  2  0  0  0  0
  1 14  1  0  0  0  0
  1 15  1  0  0  0  0
  1 16  1  0  0  0  0
  2 17  1  0  0  0  0
  2 18  1  0  0  0  0
  3 19  1  0  0  0  0
  3 20  1  0  0  0  0
  4 21  1  0  0  0  0
  4 22  1  0  0  0  0
  5 23  1  0  0  0  0
  5 24  1  0  0  0  0
  6 25  1  0  0  0  0
  6 26  1  0  0  0  0
  7 27  1  0  0  0  0
  7 28  1  0  0  0  0
  8 29  1  0  0  0  0
  8 30  1  0  0  0  0
  9 31  1  0  0  0  0
  9 32  1  0  0  0  0
 10 33  1  0  0  0  0
 11 34  1  0  0  0  0
 11 35  1  0  0  0  0
 11 36  1  0  0  0  0
 12 37  1  0  0  0  0
M  END
>  <InChIKey>
NFAVNWJJYQAGNB-UHFFFAOYSA-N

>  <UN GHS>
Non-irritant

>  <CASRN>
110-41-8

> <Outcome>
0

>  <Index>
513

>  <StandardizerResult>
Clear Stereo (ID: ClearStereo)
Wedge Clean (ID: WedgeClean)
Mesomerize (ID: Mesomerize)
Tautomerize (ID: Tautomerize)
Add Explicit Hydrogens (ID: AddExplicitH)
Neutralize (ID: Neutralize)
Clean 2D (ID: Clean2D)

> <knn Distance>
2.44948983192444

> <CpId>
513

$$$$
517
  Mrv1532301301811342D          

 26 25  0  0  0  0            999 V2000
    0.1184   -2.0839    0.0000 C   0  0  0  0  0  0  0  0  0  0  0  0
    0.1184   -1.2589    0.0000 C   0  0  0  0  0  0  0  0  0  0  0  0
   -0.5961   -0.8464    0.0000 C   0  0  0  0  0  0  0  0  0  0  0  0
    0.8328   -0.8464    0.0000 C   0  0  0  0  0  0  0  0  0  0  0  0
    0.8328   -0.0214    0.0000 C   0  0  0  0  0  0  0  0  0  0  0  0
    0.8328    0.8036    0.0000 C   0  0  0  0  0  0  0  0  0  0  0  0
    1.6578   -0.0214    0.0000 C   0  0  0  0  0  0  0  0  0  0  0  0
    0.0078   -0.0214    0.0000 C   0  0  0  0  0  0  0  0  0  0  0  0
   -0.7066   -2.0839    0.0000 H   0  0  0  0  0  0  0  0  0  0  0  0
    0.1184   -2.9089    0.0000 H   0  0  0  0  0  0  0  0  0  0  0  0
    0.9434   -2.0839    0.0000 H   0  0  0  0  0  0  0  0  0  0  0  0
   -0.5961   -1.6714    0.0000 H   0  0  0  0  0  0  0  0  0  0  0  0
   -0.0127   -0.2631    0.0000 H   0  0  0  0  0  0  0  0  0  0  0  0
   -1.0086   -0.1320    0.0000 H   0  0  0  0  0  0  0  0  0  0  0  0
   -1.3930   -1.0600    0.0000 H   0  0  0  0  0  0  0  0  0  0  0  0
    1.2862   -1.5357    0.0000 H   0  0  0  0  0  0  0  0  0  0  0  0
    1.6564   -0.8944    0.0000 H   0  0  0  0  0  0  0  0  0  0  0  0
    1.6578    0.8036    0.0000 H   0  0  0  0  0  0  0  0  0  0  0  0
    0.8328    1.6286    0.0000 H   0  0  0  0  0  0  0  0  0  0  0  0
    0.0078    0.8036    0.0000 H   0  0  0  0  0  0  0  0  0  0  0  0
    2.2405   -0.6055    0.0000 H   0  0  0  0  0  0  0  0  0  0  0  0
    2.4828   -0.0221    0.0000 H   0  0  0  0  0  0  0  0  0  0  0  0
    2.2414    0.5617    0.0000 H   0  0  0  0  0  0  0  0  0  0  0  0
   -0.5630    0.5742    0.0000 H   0  0  0  0  0  0  0  0  0  0  0  0
   -0.8164    0.0136    0.0000 H   0  0  0  0  0  0  0  0  0  0  0  0
   -0.6115   -0.5665    0.0000 H   0  0  0  0  0  0  0  0  0  0  0  0
  1  2  1  0  0  0  0
  2  3  1  0  0  0  0
  2  4  1  0  0  0  0
  4  5  1  0  0  0  0
  5  6  1  0  0  0  0
  5  7  1  0  0  0  0
  5  8  1  0  0  0  0
  1  9  1  0  0  0  0
  1 10  1  0  0  0  0
  1 11  1  0  0  0  0
  2 12  1  0  0  0  0
  3 13  1  0  0  0  0
  3 14  1  0  0  0  0
  3 15  1  0  0  0  0
  4 16  1  0  0  0  0
  4 17  1  0  0  0  0
  6 18  1  0  0  0  0
  6 19  1  0  0  0  0
  6 20  1  0  0  0  0
  7 21  1  0  0  0  0
  7 22  1  0  0  0  0
  7 23  1  0  0  0  0
  8 24  1  0  0  0  0
  8 25  1  0  0  0  0
  8 26  1  0  0  0  0
M  END
>  <InChIKey>
NHTMVDHEPJAVLT-UHFFFAOYSA-N

>  <UN GHS>
Non-irritant

>  <CASRN>
540-84-1

> <Outcome>
0

>  <Index>
517

>  <StandardizerResult>
Clear Stereo (ID: ClearStereo)
Wedge Clean (ID: WedgeClean)
Mesomerize (ID: Mesomerize)
Tautomerize (ID: Tautomerize)
Add Explicit Hydrogens (ID: AddExplicitH)
Neutralize (ID: Neutralize)
Clean 2D (ID: Clean2D)

> <knn Distance>
2.44948983192444

> <CpId>
517

$$$$
536
  Mrv1532301301811342D          

 23 22  0  0  0  0            999 V2000
    1.0461    1.4289    0.0000 C   0  0  0  0  0  0  0  0  0  0  0  0
    1.7605    1.8414    0.0000 C   0  0  0  0  0  0  0  0  0  0  0  0
    2.4750    1.4289    0.0000 C   0  0  0  0  0  0  0  0  0  0  0  0
    3.1895    1.8414    0.0000 C   0  0  0  0  0  0  0  0  0  0  0  0
    3.9040    1.4289    0.0000 C   0  0  0  0  0  0  0  0  0  0  0  0
    4.6184    1.8414    0.0000 C   0  0  0  0  0  0  0  0  0  0  0  0
    4.6184    2.6664    0.0000 O   0  0  0  0  0  0  0  0  0  0  0  0
    5.3329    1.4289    0.0000 O   0  0  0  0  0  0  0  0  0  0  0  0
    6.0474    1.8414    0.0000 C   0  0  0  0  0  0  0  0  0  0  0  0
    0.6336    2.1434    0.0000 H   0  0  0  0  0  0  0  0  0  0  0  0
    0.3316    1.0164    0.0000 H   0  0  0  0  0  0  0  0  0  0  0  0
    1.4586    0.7144    0.0000 H   0  0  0  0  0  0  0  0  0  0  0  0
    2.1308    2.5786    0.0000 H   0  0  0  0  0  0  0  0  0  0  0  0
    1.3903    2.5786    0.0000 H   0  0  0  0  0  0  0  0  0  0  0  0
    2.1047    0.6917    0.0000 H   0  0  0  0  0  0  0  0  0  0  0  0
    2.8453    0.6917    0.0000 H   0  0  0  0  0  0  0  0  0  0  0  0
    3.5597    2.5786    0.0000 H   0  0  0  0  0  0  0  0  0  0  0  0
    2.8192    2.5786    0.0000 H   0  0  0  0  0  0  0  0  0  0  0  0
    3.5337    0.6917    0.0000 H   0  0  0  0  0  0  0  0  0  0  0  0
    4.2742    0.6917    0.0000 H   0  0  0  0  0  0  0  0  0  0  0  0
    6.4599    1.1269    0.0000 H   0  0  0  0  0  0  0  0  0  0  0  0
    6.7618    2.2539    0.0000 H   0  0  0  0  0  0  0  0  0  0  0  0
    5.6349    2.5559    0.0000 H   0  0  0  0  0  0  0  0  0  0  0  0
  1  2  1  0  0  0  0
  2  3  1  0  0  0  0
  3  4  1  0  0  0  0
  4  5  1  0  0  0  0
  5  6  1  0  0  0  0
  6  7  2  0  0  0  0
  6  8  1  0  0  0  0
  8  9  1  0  0  0  0
  1 10  1  0  0  0  0
  1 11  1  0  0  0  0
  1 12  1  0  0  0  0
  2 13  1  0  0  0  0
  2 14  1  0  0  0  0
  3 15  1  0  0  0  0
  3 16  1  0  0  0  0
  4 17  1  0  0  0  0
  4 18  1  0  0  0  0
  5 19  1  0  0  0  0
  5 20  1  0  0  0  0
  9 21  1  0  0  0  0
  9 22  1  0  0  0  0
  9 23  1  0  0  0  0
M  END
>  <InChIKey>
NUKZAGXMHTUAFE-UHFFFAOYSA-N

>  <UN GHS>
Non-irritant

>  <CASRN>
106-70-7

> <Outcome>
0

>  <Index>
536

>  <StandardizerResult>
Clear Stereo (ID: ClearStereo)
Wedge Clean (ID: WedgeClean)
Mesomerize (ID: Mesomerize)
Tautomerize (ID: Tautomerize)
Add Explicit Hydrogens (ID: AddExplicitH)
Neutralize (ID: Neutralize)
Clean 2D (ID: Clean2D)

> <knn Distance>
2.44948983192444

> <CpId>
536

$$$$
552
  Mrv1532301301811342D          

 20 20  0  0  0  0            999 V2000
   -0.0000    2.4750    0.0000 C   0  0  0  0  0  0  0  0  0  0  0  0
    0.7145    2.0625    0.0000 O   0  0  0  0  0  0  0  0  0  0  0  0
    0.7145    1.2375    0.0000 C   0  0  0  0  0  0  0  0  0  0  0  0
    1.4289    0.8250    0.0000 C   0  0  0  0  0  0  0  0  0  0  0  0
    1.4289   -0.0000    0.0000 C   0  0  0  0  0  0  0  0  0  0  0  0
    0.7145   -0.4125    0.0000 C   0  0  0  0  0  0  0  0  0  0  0  0
    0.7145   -1.2375    0.0000 O   0  0  0  0  0  0  0  0  0  0  0  0
    1.4289   -1.6500    0.0000 C   0  0  0  0  0  0  0  0  0  0  0  0
   -0.0000   -0.0000    0.0000 C   0  0  0  0  0  0  0  0  0  0  0  0
   -0.0000    0.8250    0.0000 C   0  0  0  0  0  0  0  0  0  0  0  0
    0.4125    3.1895    0.0000 H   0  0  0  0  0  0  0  0  0  0  0  0
   -0.7145    2.8875    0.0000 H   0  0  0  0  0  0  0  0  0  0  0  0
   -0.4125    1.7605    0.0000 H   0  0  0  0  0  0  0  0  0  0  0  0
    2.1434    1.2375    0.0000 H   0  0  0  0  0  0  0  0  0  0  0  0
    2.1434   -0.4125    0.0000 H   0  0  0  0  0  0  0  0  0  0  0  0
    1.0164   -2.3645    0.0000 H   0  0  0  0  0  0  0  0  0  0  0  0
    2.1434   -2.0625    0.0000 H   0  0  0  0  0  0  0  0  0  0  0  0
    1.8414   -0.9355    0.0000 H   0  0  0  0  0  0  0  0  0  0  0  0
   -0.7145   -0.4125    0.0000 H   0  0  0  0  0  0  0  0  0  0  0  0
   -0.7145    1.2375    0.0000 H   0  0  0  0  0  0  0  0  0  0  0  0
  1  2  1  0  0  0  0
  2  3  1  0  0  0  0
  3  4  4  0  0  0  0
  4  5  4  0  0  0  0
  5  6  4  0  0  0  0
  6  7  1  0  0  0  0
  7  8  1  0  0  0  0
  6  9  4  0  0  0  0
  9 10  4  0  0  0  0
  3 10  4  0  0  0  0
  1 11  1  0  0  0  0
  1 12  1  0  0  0  0
  1 13  1  0  0  0  0
  4 14  1  0  0  0  0
  5 15  1  0  0  0  0
  8 16  1  0  0  0  0
  8 17  1  0  0  0  0
  8 18  1  0  0  0  0
  9 19  1  0  0  0  0
 10 20  1  0  0  0  0
M  END
>  <InChIKey>
OHBQPCCCRFSCAX-UHFFFAOYSA-N

>  <UN GHS>
Non-irritant

>  <CASRN>
150-78-7

> <Outcome>
0

>  <Index>
552

>  <StandardizerResult>
Dearomatize (ID: Dearomatize)
Clear Stereo (ID: ClearStereo)
Wedge Clean (ID: WedgeClean)
Mesomerize (ID: Mesomerize)
Tautomerize (ID: Tautomerize)
Aromatize (ID: Aromatize)
Add Explicit Hydrogens (ID: AddExplicitH)
Neutralize (ID: Neutralize)
Clean 2D (ID: Clean2D)

> <knn Distance>
2.44948983192444

> <CpId>
552

$$$$
565
  Mrv1532301301811342D          

 19 19  0  0  0  0            999 V2000
   -0.0000    3.3000    0.0000 C   0  0  0  0  0  0  0  0  0  0  0  0
   -0.0000    2.4750    0.0000 O   0  0  0  0  0  0  0  0  0  0  0  0
    0.7145    2.0625    0.0000 C   0  0  0  0  0  0  0  0  0  0  0  0
    1.4289    2.4750    0.0000 O   0  0  0  0  0  0  0  0  0  0  0  0
    0.7145    1.2375    0.0000 C   0  0  0  0  0  0  0  0  0  0  0  0
    1.4289    0.8250    0.0000 C   0  0  0  0  0  0  0  0  0  0  0  0
    1.4289   -0.0000    0.0000 C   0  0  0  0  0  0  0  0  0  0  0  0
    0.7145   -0.4125    0.0000 C   0  0  0  0  0  0  0  0  0  0  0  0
   -0.0000   -0.0000    0.0000 C   0  0  0  0  0  0  0  0  0  0  0  0
   -0.0000    0.8250    0.0000 C   0  0  0  0  0  0  0  0  0  0  0  0
   -0.7145    1.2375    0.0000 O   0  0  0  0  0  0  0  0  0  0  0  0
    0.8250    3.3000    0.0000 H   0  0  0  0  0  0  0  0  0  0  0  0
   -0.0000    4.1250    0.0000 H   0  0  0  0  0  0  0  0  0  0  0  0
   -0.8250    3.3000    0.0000 H   0  0  0  0  0  0  0  0  0  0  0  0
    2.1434    1.2375    0.0000 H   0  0  0  0  0  0  0  0  0  0  0  0
    2.1434   -0.4125    0.0000 H   0  0  0  0  0  0  0  0  0  0  0  0
    0.7145   -1.2375    0.0000 H   0  0  0  0  0  0  0  0  0  0  0  0
   -0.7145   -0.4125    0.0000 H   0  0  0  0  0  0  0  0  0  0  0  0
   -0.7145    2.0625    0.0000 H   0  0  0  0  0  0  0  0  0  0  0  0
  1  2  1  0  0  0  0
  2  3  1  0  0  0  0
  3  4  2  0  0  0  0
  3  5  1  0  0  0  0
  5  6  4  0  0  0  0
  6  7  4  0  0  0  0
  7  8  4  0  0  0  0
  8  9  4  0  0  0  0
  9 10  4  0  0  0  0
  5 10  4  0  0  0  0
 10 11  1  0  0  0  0
  1 12  1  0  0  0  0
  1 13  1  0  0  0  0
  1 14  1  0  0  0  0
  6 15  1  0  0  0  0
  7 16  1  0  0  0  0
  8 17  1  0  0  0  0
  9 18  1  0  0  0  0
 11 19  1  0  0  0  0
M  END
>  <InChIKey>
OSWPMRLSEDHDFF-UHFFFAOYSA-N

>  <UN GHS>
Non-irritant

>  <CASRN>
119-36-8

> <Outcome>
0

>  <Index>
565

>  <StandardizerResult>
Dearomatize (ID: Dearomatize)
Clear Stereo (ID: ClearStereo)
Wedge Clean (ID: WedgeClean)
Mesomerize (ID: Mesomerize)
Tautomerize (ID: Tautomerize)
Aromatize (ID: Aromatize)
Add Explicit Hydrogens (ID: AddExplicitH)
Neutralize (ID: Neutralize)
Clean 2D (ID: Clean2D)

> <knn Distance>
2.44948983192444

> <CpId>
565

$$$$
611
  Mrv1532301301811342D          

 28 29  0  0  0  0            999 V2000
    2.1164   -0.3847    0.0000 C   0  0  0  0  0  0  0  0  0  0  0  0
    2.1164   -1.2097    0.0000 C   0  0  0  0  0  0  0  0  0  0  0  0
    2.8309   -1.6222    0.0000 C   0  0  0  0  0  0  0  0  0  0  0  0
    2.8309   -2.4472    0.0000 C   0  0  0  0  0  0  0  0  0  0  0  0
    2.1164   -2.8597    0.0000 C   0  0  0  0  0  0  0  0  0  0  0  0
    1.4020   -2.4472    0.0000 C   0  0  0  0  0  0  0  0  0  0  0  0
    1.4020   -1.6222    0.0000 C   0  0  0  0  0  0  0  0  0  0  0  0
    0.6875   -1.2097    0.0000 C   0  0  0  0  0  0  0  0  0  0  0  0
    0.6875   -0.3847    0.0000 C   0  0  0  0  0  0  0  0  0  0  0  0
   -0.0270    0.0278    0.0000 C   0  0  0  0  0  0  0  0  0  0  0  0
   -0.0270    0.8528    0.0000 C   0  0  0  0  0  0  0  0  0  0  0  0
    0.6875    1.2653    0.0000 C   0  0  0  0  0  0  0  0  0  0  0  0
    1.4020    0.8528    0.0000 C   0  0  0  0  0  0  0  0  0  0  0  0
    1.4020    0.0278    0.0000 C   0  0  0  0  0  0  0  0  0  0  0  0
    2.8309   -0.7972    0.0000 H   0  0  0  0  0  0  0  0  0  0  0  0
    2.8309    0.0278    0.0000 H   0  0  0  0  0  0  0  0  0  0  0  0
    2.1164    0.4403    0.0000 H   0  0  0  0  0  0  0  0  0  0  0  0
    3.6559   -1.6222    0.0000 H   0  0  0  0  0  0  0  0  0  0  0  0
    3.5454   -2.8597    0.0000 H   0  0  0  0  0  0  0  0  0  0  0  0
    2.1164   -3.6847    0.0000 H   0  0  0  0  0  0  0  0  0  0  0  0
    0.6875   -2.8597    0.0000 H   0  0  0  0  0  0  0  0  0  0  0  0
   -0.1361   -1.2576    0.0000 H   0  0  0  0  0  0  0  0  0  0  0  0
    0.2341   -1.8989    0.0000 H   0  0  0  0  0  0  0  0  0  0  0  0
   -0.7414   -0.3847    0.0000 H   0  0  0  0  0  0  0  0  0  0  0  0
   -0.7414    1.2653    0.0000 H   0  0  0  0  0  0  0  0  0  0  0  0
    0.6875    2.0903    0.0000 H   0  0  0  0  0  0  0  0  0  0  0  0
    1.8145    1.5673    0.0000 H   0  0  0  0  0  0  0  0  0  0  0  0
    1.4020   -0.7972    0.0000 H   0  0  0  0  0  0  0  0  0  0  0  0
  1  2  1  0  0  0  0
  2  3  4  0  0  0  0
  3  4  4  0  0  0  0
  4  5  4  0  0  0  0
  5  6  4  0  0  0  0
  6  7  4  0  0  0  0
  2  7  4  0  0  0  0
  7  8  1  0  0  0  0
  8  9  1  0  0  0  0
  9 10  4  0  0  0  0
 10 11  4  0  0  0  0
 11 12  4  0  0  0  0
 12 13  4  0  0  0  0
 13 14  4  0  0  0  0
  9 14  4  0  0  0  0
  1 15  1  0  0  0  0
  1 16  1  0  0  0  0
  1 17  1  0  0  0  0
  3 18  1  0  0  0  0
  4 19  1  0  0  0  0
  5 20  1  0  0  0  0
  6 21  1  0  0  0  0
  8 22  1  0  0  0  0
  8 23  1  0  0  0  0
 10 24  1  0  0  0  0
 11 25  1  0  0  0  0
 12 26  1  0  0  0  0
 13 27  1  0  0  0  0
 14 28  1  0  0  0  0
M  END
>  <InChIKey>
PQTAUFTUHHRKSS-UHFFFAOYSA-N

>  <UN GHS>
Non-irritant

>  <CASRN>
27776-01-8

> <Outcome>
0

>  <Index>
611

>  <StandardizerResult>
Dearomatize (ID: Dearomatize)
Clear Stereo (ID: ClearStereo)
Wedge Clean (ID: WedgeClean)
Mesomerize (ID: Mesomerize)
Tautomerize (ID: Tautomerize)
Aromatize (ID: Aromatize)
Add Explicit Hydrogens (ID: AddExplicitH)
Neutralize (ID: Neutralize)
Clean 2D (ID: Clean2D)

> <knn Distance>
2.44948983192444

> <CpId>
611

$$$$
622
  Mrv1532301301811342D          

 56 55  0  0  0  0            999 V2000
    8.4711    5.7158    0.0000 C   0  0  0  0  0  0  0  0  0  0  0  0
    9.1855    6.1283    0.0000 C   0  0  0  0  0  0  0  0  0  0  0  0
    9.9000    5.7158    0.0000 C   0  0  0  0  0  0  0  0  0  0  0  0
   10.6145    6.1283    0.0000 C   0  0  0  0  0  0  0  0  0  0  0  0
   11.3289    5.7158    0.0000 O   0  0  0  0  0  0  0  0  0  0  0  0
   12.0434    6.1283    0.0000 C   0  0  0  0  0  0  0  0  0  0  0  0
   12.0434    6.9533    0.0000 O   0  0  0  0  0  0  0  0  0  0  0  0
   12.7579    5.7158    0.0000 C   0  0  0  0  0  0  0  0  0  0  0  0
   13.4724    6.1283    0.0000 C   0  0  0  0  0  0  0  0  0  0  0  0
   14.1868    5.7158    0.0000 C   0  0  0  0  0  0  0  0  0  0  0  0
   14.9013    6.1283    0.0000 C   0  0  0  0  0  0  0  0  0  0  0  0
   15.6158    5.7158    0.0000 C   0  0  0  0  0  0  0  0  0  0  0  0
   16.3302    6.1283    0.0000 C   0  0  0  0  0  0  0  0  0  0  0  0
   17.0447    5.7158    0.0000 C   0  0  0  0  0  0  0  0  0  0  0  0
   17.7592    6.1283    0.0000 C   0  0  0  0  0  0  0  0  0  0  0  0
   18.4737    5.7158    0.0000 C   0  0  0  0  0  0  0  0  0  0  0  0
   18.4737    4.8908    0.0000 O   0  0  0  0  0  0  0  0  0  0  0  0
   19.1881    6.1283    0.0000 O   0  0  0  0  0  0  0  0  0  0  0  0
   19.9026    5.7158    0.0000 C   0  0  0  0  0  0  0  0  0  0  0  0
   20.6171    6.1283    0.0000 C   0  0  0  0  0  0  0  0  0  0  0  0
   21.3315    5.7158    0.0000 C   0  0  0  0  0  0  0  0  0  0  0  0
   22.0460    6.1283    0.0000 C   0  0  0  0  0  0  0  0  0  0  0  0
    8.0586    6.4303    0.0000 H   0  0  0  0  0  0  0  0  0  0  0  0
    7.7566    5.3033    0.0000 H   0  0  0  0  0  0  0  0  0  0  0  0
    8.8836    5.0013    0.0000 H   0  0  0  0  0  0  0  0  0  0  0  0
    9.5558    6.8655    0.0000 H   0  0  0  0  0  0  0  0  0  0  0  0
    8.8153    6.8655    0.0000 H   0  0  0  0  0  0  0  0  0  0  0  0
    9.5297    4.9786    0.0000 H   0  0  0  0  0  0  0  0  0  0  0  0
   10.2703    4.9786    0.0000 H   0  0  0  0  0  0  0  0  0  0  0  0
   10.9847    6.8655    0.0000 H   0  0  0  0  0  0  0  0  0  0  0  0
   10.2442    6.8655    0.0000 H   0  0  0  0  0  0  0  0  0  0  0  0
   12.3876    4.9786    0.0000 H   0  0  0  0  0  0  0  0  0  0  0  0
   13.1281    4.9786    0.0000 H   0  0  0  0  0  0  0  0  0  0  0  0
   13.8426    6.8655    0.0000 H   0  0  0  0  0  0  0  0  0  0  0  0
   13.1021    6.8655    0.0000 H   0  0  0  0  0  0  0  0  0  0  0  0
   13.8166    4.9786    0.0000 H   0  0  0  0  0  0  0  0  0  0  0  0
   14.5571    4.9786    0.0000 H   0  0  0  0  0  0  0  0  0  0  0  0
   15.2716    6.8655    0.0000 H   0  0  0  0  0  0  0  0  0  0  0  0
   14.5310    6.8655    0.0000 H   0  0  0  0  0  0  0  0  0  0  0  0
   15.2455    4.9786    0.0000 H   0  0  0  0  0  0  0  0  0  0  0  0
   15.9860    4.9786    0.0000 H   0  0  0  0  0  0  0  0  0  0  0  0
   16.7005    6.8655    0.0000 H   0  0  0  0  0  0  0  0  0  0  0  0
   15.9600    6.8655    0.0000 H   0  0  0  0  0  0  0  0  0  0  0  0
   16.6745    4.9786    0.0000 H   0  0  0  0  0  0  0  0  0  0  0  0
   17.4150    4.9786    0.0000 H   0  0  0  0  0  0  0  0  0  0  0  0
   18.1294    6.8655    0.0000 H   0  0  0  0  0  0  0  0  0  0  0  0
   17.3889    6.8655    0.0000 H   0  0  0  0  0  0  0  0  0  0  0  0
   19.5323    4.9786    0.0000 H   0  0  0  0  0  0  0  0  0  0  0  0
   20.2729    4.9786    0.0000 H   0  0  0  0  0  0  0  0  0  0  0  0
   20.9873    6.8655    0.0000 H   0  0  0  0  0  0  0  0  0  0  0  0
   20.2468    6.8655    0.0000 H   0  0  0  0  0  0  0  0  0  0  0  0
   20.9613    4.9786    0.0000 H   0  0  0  0  0  0  0  0  0  0  0  0
   21.7018    4.9786    0.0000 H   0  0  0  0  0  0  0  0  0  0  0  0
   22.4585    5.4138    0.0000 H   0  0  0  0  0  0  0  0  0  0  0  0
   22.7605    6.5408    0.0000 H   0  0  0  0  0  0  0  0  0  0  0  0
   21.6335    6.8428    0.0000 H   0  0  0  0  0  0  0  0  0  0  0  0
  1  2  1  0  0  0  0
  2  3  1  0  0  0  0
  3  4  1  0  0  0  0
  4  5  1  0  0  0  0
  5  6  1  0  0  0  0
  6  7  2  0  0  0  0
  6  8  1  0  0  0  0
  8  9  1  0  0  0  0
  9 10  1  0  0  0  0
 10 11  1  0  0  0  0
 11 12  1  0  0  0  0
 12 13  1  0  0  0  0
 13 14  1  0  0  0  0
 14 15  1  0  0  0  0
 15 16  1  0  0  0  0
 16 17  2  0  0  0  0
 16 18  1  0  0  0  0
 18 19  1  0  0  0  0
 19 20  1  0  0  0  0
 20 21  1  0  0  0  0
 21 22  1  0  0  0  0
  1 23  1  0  0  0  0
  1 24  1  0  0  0  0
  1 25  1  0  0  0  0
  2 26  1  0  0  0  0
  2 27  1  0  0  0  0
  3 28  1  0  0  0  0
  3 29  1  0  0  0  0
  4 30  1  0  0  0  0
  4 31  1  0  0  0  0
  8 32  1  0  0  0  0
  8 33  1  0  0  0  0
  9 34  1  0  0  0  0
  9 35  1  0  0  0  0
 10 36  1  0  0  0  0
 10 37  1  0  0  0  0
 11 38  1  0  0  0  0
 11 39  1  0  0  0  0
 12 40  1  0  0  0  0
 12 41  1  0  0  0  0
 13 42  1  0  0  0  0
 13 43  1  0  0  0  0
 14 44  1  0  0  0  0
 14 45  1  0  0  0  0
 15 46  1  0  0  0  0
 15 47  1  0  0  0  0
 19 48  1  0  0  0  0
 19 49  1  0  0  0  0
 20 50  1  0  0  0  0
 20 51  1  0  0  0  0
 21 52  1  0  0  0  0
 21 53  1  0  0  0  0
 22 54  1  0  0  0  0
 22 55  1  0  0  0  0
 22 56  1  0  0  0  0
M  END
>  <InChIKey>
PYGXAGIECVVIOZ-UHFFFAOYSA-N

>  <UN GHS>
Non-irritant

>  <CASRN>
109-43-3

> <Outcome>
0

>  <Index>
622

>  <StandardizerResult>
Clear Stereo (ID: ClearStereo)
Wedge Clean (ID: WedgeClean)
Mesomerize (ID: Mesomerize)
Tautomerize (ID: Tautomerize)
Add Explicit Hydrogens (ID: AddExplicitH)
Neutralize (ID: Neutralize)
Clean 2D (ID: Clean2D)

> <knn Distance>
2.44948983192444

> <CpId>
622

$$$$
635
  Mrv1532301301811342D          

 38 37  0  0  0  0            999 V2000
    4.7586    3.5719    0.0000 C   0  0  0  0  0  0  0  0  0  0  0  0
    5.4730    3.9844    0.0000 C   0  0  0  0  0  0  0  0  0  0  0  0
    6.1875    3.5719    0.0000 C   0  0  0  0  0  0  0  0  0  0  0  0
    6.9020    3.9844    0.0000 C   0  0  0  0  0  0  0  0  0  0  0  0
    7.6164    3.5719    0.0000 O   0  0  0  0  0  0  0  0  0  0  0  0
    8.3309    3.9844    0.0000 C   0  0  0  0  0  0  0  0  0  0  0  0
    9.0454    3.5719    0.0000 C   0  0  0  0  0  0  0  0  0  0  0  0
    9.7599    3.9844    0.0000 O   0  0  0  0  0  0  0  0  0  0  0  0
   10.4743    3.5719    0.0000 C   0  0  0  0  0  0  0  0  0  0  0  0
   11.1888    3.9844    0.0000 C   0  0  0  0  0  0  0  0  0  0  0  0
   11.9033    3.5719    0.0000 O   0  0  0  0  0  0  0  0  0  0  0  0
   12.6177    3.9844    0.0000 C   0  0  0  0  0  0  0  0  0  0  0  0
   12.6177    4.8094    0.0000 O   0  0  0  0  0  0  0  0  0  0  0  0
   13.3322    3.5719    0.0000 C   0  0  0  0  0  0  0  0  0  0  0  0
   14.0467    3.9844    0.0000 C   0  0  0  0  0  0  0  0  0  0  0  0
   13.3322    2.7469    0.0000 C   0  0  0  0  0  0  0  0  0  0  0  0
    4.3461    4.2864    0.0000 H   0  0  0  0  0  0  0  0  0  0  0  0
    4.0441    3.1594    0.0000 H   0  0  0  0  0  0  0  0  0  0  0  0
    5.1711    2.8575    0.0000 H   0  0  0  0  0  0  0  0  0  0  0  0
    5.8433    4.7217    0.0000 H   0  0  0  0  0  0  0  0  0  0  0  0
    5.1028    4.7217    0.0000 H   0  0  0  0  0  0  0  0  0  0  0  0
    5.8172    2.8347    0.0000 H   0  0  0  0  0  0  0  0  0  0  0  0
    6.5578    2.8347    0.0000 H   0  0  0  0  0  0  0  0  0  0  0  0
    7.2722    4.7217    0.0000 H   0  0  0  0  0  0  0  0  0  0  0  0
    6.5317    4.7217    0.0000 H   0  0  0  0  0  0  0  0  0  0  0  0
    8.7012    4.7217    0.0000 H   0  0  0  0  0  0  0  0  0  0  0  0
    7.9607    4.7217    0.0000 H   0  0  0  0  0  0  0  0  0  0  0  0
    8.6751    2.8347    0.0000 H   0  0  0  0  0  0  0  0  0  0  0  0
    9.4156    2.8347    0.0000 H   0  0  0  0  0  0  0  0  0  0  0  0
   10.1041    2.8347    0.0000 H   0  0  0  0  0  0  0  0  0  0  0  0
   10.8446    2.8347    0.0000 H   0  0  0  0  0  0  0  0  0  0  0  0
   11.5591    4.7217    0.0000 H   0  0  0  0  0  0  0  0  0  0  0  0
   10.8185    4.7217    0.0000 H   0  0  0  0  0  0  0  0  0  0  0  0
   14.4592    3.2700    0.0000 H   0  0  0  0  0  0  0  0  0  0  0  0
   14.7612    4.3969    0.0000 H   0  0  0  0  0  0  0  0  0  0  0  0
   13.6342    4.6989    0.0000 H   0  0  0  0  0  0  0  0  0  0  0  0
   12.6177    2.3344    0.0000 H   0  0  0  0  0  0  0  0  0  0  0  0
   14.0467    2.3344    0.0000 H   0  0  0  0  0  0  0  0  0  0  0  0
  1  2  1  0  0  0  0
  2  3  1  0  0  0  0
  3  4  1  0  0  0  0
  4  5  1  0  0  0  0
  5  6  1  0  0  0  0
  6  7  1  0  0  0  0
  7  8  1  0  0  0  0
  8  9  1  0  0  0  0
  9 10  1  0  0  0  0
 10 11  1  0  0  0  0
 11 12  1  0  0  0  0
 12 13  2  0  0  0  0
 12 14  1  0  0  0  0
 14 15  1  0  0  0  0
 14 16  2  0  0  0  0
  1 17  1  0  0  0  0
  1 18  1  0  0  0  0
  1 19  1  0  0  0  0
  2 20  1  0  0  0  0
  2 21  1  0  0  0  0
  3 22  1  0  0  0  0
  3 23  1  0  0  0  0
  4 24  1  0  0  0  0
  4 25  1  0  0  0  0
  6 26  1  0  0  0  0
  6 27  1  0  0  0  0
  7 28  1  0  0  0  0
  7 29  1  0  0  0  0
  9 30  1  0  0  0  0
  9 31  1  0  0  0  0
 10 32  1  0  0  0  0
 10 33  1  0  0  0  0
 15 34  1  0  0  0  0
 15 35  1  0  0  0  0
 15 36  1  0  0  0  0
 16 37  1  0  0  0  0
 16 38  1  0  0  0  0
M  END
>  <InChIKey>
QGTBRAFPWNISIJ-UHFFFAOYSA-N

>  <UN GHS>
Non-irritant

>  <CASRN>
7328-22-5

> <Outcome>
0

>  <Index>
635

>  <StandardizerResult>
Clear Stereo (ID: ClearStereo)
Wedge Clean (ID: WedgeClean)
Mesomerize (ID: Mesomerize)
Tautomerize (ID: Tautomerize)
Add Explicit Hydrogens (ID: AddExplicitH)
Neutralize (ID: Neutralize)
Clean 2D (ID: Clean2D)

> <knn Distance>
2.44948983192444

> <CpId>
635

$$$$
640
  Mrv1532301301811342D          

  9  8  0  0  0  0            999 V2000
    1.6500    1.4289    0.0000 F   0  0  0  0  0  0  0  0  0  0  0  0
    1.2375    0.7145    0.0000 C   0  0  0  0  0  0  0  0  0  0  0  0
    0.5230    1.1270    0.0000 F   0  0  0  0  0  0  0  0  0  0  0  0
    1.9520    0.3020    0.0000 F   0  0  0  0  0  0  0  0  0  0  0  0
    0.8250    0.0000    0.0000 C   0  0  0  0  0  0  0  0  0  0  0  0
    1.2375   -0.7145    0.0000 Br  0  0  0  0  0  0  0  0  0  0  0  0
    0.0000    0.0000    0.0000 C   0  0  0  0  0  0  0  0  0  0  0  0
   -0.4125    0.7145    0.0000 H   0  0  0  0  0  0  0  0  0  0  0  0
   -0.4125   -0.7145    0.0000 H   0  0  0  0  0  0  0  0  0  0  0  0
  1  2  1  0  0  0  0
  2  3  1  0  0  0  0
  2  4  1  0  0  0  0
  2  5  1  0  0  0  0
  5  6  1  0  0  0  0
  5  7  2  0  0  0  0
  7  8  1  0  0  0  0
  7  9  1  0  0  0  0
M  END
>  <InChIKey>
QKBKGNDTLQFSEU-UHFFFAOYSA-N

>  <UN GHS>
Non-irritant

>  <CASRN>
1514-82-5

> <Outcome>
0

>  <Index>
640

>  <StandardizerResult>
Clear Stereo (ID: ClearStereo)
Wedge Clean (ID: WedgeClean)
Mesomerize (ID: Mesomerize)
Tautomerize (ID: Tautomerize)
Add Explicit Hydrogens (ID: AddExplicitH)
Neutralize (ID: Neutralize)
Clean 2D (ID: Clean2D)

> <knn Distance>
2.44948983192444

> <CpId>
640

$$$$
641
  Mrv1532301301811342D          

 31 30  0  0  0  0            999 V2000
    4.2355    3.2721    0.0000 C   0  0  0  0  0  0  0  0  0  0  0  0
    4.9500    2.8596    0.0000 C   0  0  0  0  0  0  0  0  0  0  0  0
    5.6645    3.2721    0.0000 C   0  0  0  0  0  0  0  0  0  0  0  0
    6.3789    2.8596    0.0000 C   0  0  0  0  0  0  0  0  0  0  0  0
    7.0934    3.2721    0.0000 O   0  0  0  0  0  0  0  0  0  0  0  0
    7.8079    2.8596    0.0000 C   0  0  0  0  0  0  0  0  0  0  0  0
    8.5223    3.2721    0.0000 O   0  0  0  0  0  0  0  0  0  0  0  0
    9.2368    2.8596    0.0000 C   0  0  0  0  0  0  0  0  0  0  0  0
    9.9513    3.2721    0.0000 C   0  0  0  0  0  0  0  0  0  0  0  0
   10.6658    2.8596    0.0000 C   0  0  0  0  0  0  0  0  0  0  0  0
   11.3802    3.2721    0.0000 C   0  0  0  0  0  0  0  0  0  0  0  0
    4.6480    3.9866    0.0000 H   0  0  0  0  0  0  0  0  0  0  0  0
    3.5211    3.6846    0.0000 H   0  0  0  0  0  0  0  0  0  0  0  0
    3.8230    2.5576    0.0000 H   0  0  0  0  0  0  0  0  0  0  0  0
    4.5797    2.1224    0.0000 H   0  0  0  0  0  0  0  0  0  0  0  0
    5.3203    2.1224    0.0000 H   0  0  0  0  0  0  0  0  0  0  0  0
    6.0347    4.0094    0.0000 H   0  0  0  0  0  0  0  0  0  0  0  0
    5.2942    4.0094    0.0000 H   0  0  0  0  0  0  0  0  0  0  0  0
    6.0087    2.1224    0.0000 H   0  0  0  0  0  0  0  0  0  0  0  0
    6.7492    2.1224    0.0000 H   0  0  0  0  0  0  0  0  0  0  0  0
    7.4376    2.1224    0.0000 H   0  0  0  0  0  0  0  0  0  0  0  0
    8.1781    2.1224    0.0000 H   0  0  0  0  0  0  0  0  0  0  0  0
    8.8666    2.1224    0.0000 H   0  0  0  0  0  0  0  0  0  0  0  0
    9.6071    2.1224    0.0000 H   0  0  0  0  0  0  0  0  0  0  0  0
   10.3215    4.0094    0.0000 H   0  0  0  0  0  0  0  0  0  0  0  0
    9.5810    4.0094    0.0000 H   0  0  0  0  0  0  0  0  0  0  0  0
   10.2955    2.1224    0.0000 H   0  0  0  0  0  0  0  0  0  0  0  0
   11.0360    2.1224    0.0000 H   0  0  0  0  0  0  0  0  0  0  0  0
   11.7927    2.5576    0.0000 H   0  0  0  0  0  0  0  0  0  0  0  0
   12.0947    3.6846    0.0000 H   0  0  0  0  0  0  0  0  0  0  0  0
   10.9677    3.9866    0.0000 H   0  0  0  0  0  0  0  0  0  0  0  0
  1  2  1  0  0  0  0
  2  3  1  0  0  0  0
  3  4  1  0  0  0  0
  4  5  1  0  0  0  0
  5  6  1  0  0  0  0
  6  7  1  0  0  0  0
  7  8  1  0  0  0  0
  8  9  1  0  0  0  0
  9 10  1  0  0  0  0
 10 11  1  0  0  0  0
  1 12  1  0  0  0  0
  1 13  1  0  0  0  0
  1 14  1  0  0  0  0
  2 15  1  0  0  0  0
  2 16  1  0  0  0  0
  3 17  1  0  0  0  0
  3 18  1  0  0  0  0
  4 19  1  0  0  0  0
  4 20  1  0  0  0  0
  6 21  1  0  0  0  0
  6 22  1  0  0  0  0
  8 23  1  0  0  0  0
  8 24  1  0  0  0  0
  9 25  1  0  0  0  0
  9 26  1  0  0  0  0
 10 27  1  0  0  0  0
 10 28  1  0  0  0  0
 11 29  1  0  0  0  0
 11 30  1  0  0  0  0
 11 31  1  0  0  0  0
M  END
>  <InChIKey>
QLCJOAMJPCOIDI-UHFFFAOYSA-N

>  <UN GHS>
Non-irritant

>  <CASRN>
2568-90-3

> <Outcome>
0

>  <Index>
641

>  <StandardizerResult>
Clear Stereo (ID: ClearStereo)
Wedge Clean (ID: WedgeClean)
Mesomerize (ID: Mesomerize)
Tautomerize (ID: Tautomerize)
Add Explicit Hydrogens (ID: AddExplicitH)
Neutralize (ID: Neutralize)
Clean 2D (ID: Clean2D)

> <knn Distance>
2.44948983192444

> <CpId>
641

$$$$
645
  Mrv1532301301811342D          

116115  0  0  0  0            999 V2000
   14.6601    9.3117    0.0000 C   0  0  0  0  0  0  0  0  0  0  0  0
   15.3746    9.7242    0.0000 C   0  0  0  0  0  0  0  0  0  0  0  0
   16.0891    9.3117    0.0000 C   0  0  0  0  0  0  0  0  0  0  0  0
   16.8036    9.7242    0.0000 C   0  0  0  0  0  0  0  0  0  0  0  0
   17.5180    9.3117    0.0000 C   0  0  0  0  0  0  0  0  0  0  0  0
   18.2325    9.7242    0.0000 C   0  0  0  0  0  0  0  0  0  0  0  0
   18.9470    9.3117    0.0000 C   0  0  0  0  0  0  0  0  0  0  0  0
   19.6614    9.7242    0.0000 C   0  0  0  0  0  0  0  0  0  0  0  0
   20.3759    9.3117    0.0000 C   0  0  0  0  0  0  0  0  0  0  0  0
   21.0904    9.7242    0.0000 C   0  0  0  0  0  0  0  0  0  0  0  0
   21.8049    9.3117    0.0000 C   0  0  0  0  0  0  0  0  0  0  0  0
   21.8049    8.4867    0.0000 C   0  0  0  0  0  0  0  0  0  0  0  0
   21.0904    8.0742    0.0000 C   0  0  0  0  0  0  0  0  0  0  0  0
   21.0904    7.2492    0.0000 C   0  0  0  0  0  0  0  0  0  0  0  0
   20.3759    6.8367    0.0000 C   0  0  0  0  0  0  0  0  0  0  0  0
   20.3759    6.0117    0.0000 C   0  0  0  0  0  0  0  0  0  0  0  0
   19.6614    5.5992    0.0000 C   0  0  0  0  0  0  0  0  0  0  0  0
   19.6614    4.7742    0.0000 C   0  0  0  0  0  0  0  0  0  0  0  0
   18.9470    4.3617    0.0000 C   0  0  0  0  0  0  0  0  0  0  0  0
   22.5193    9.7242    0.0000 C   0  0  0  0  0  0  0  0  0  0  0  0
   23.2338    9.3117    0.0000 O   0  0  0  0  0  0  0  0  0  0  0  0
   23.9483    9.7242    0.0000 C   0  0  0  0  0  0  0  0  0  0  0  0
   23.9483   10.5492    0.0000 O   0  0  0  0  0  0  0  0  0  0  0  0
   24.6627    9.3117    0.0000 C   0  0  0  0  0  0  0  0  0  0  0  0
   25.3772    9.7242    0.0000 C   0  0  0  0  0  0  0  0  0  0  0  0
   26.0917    9.3117    0.0000 C   0  0  0  0  0  0  0  0  0  0  0  0
   26.8062    9.7242    0.0000 C   0  0  0  0  0  0  0  0  0  0  0  0
   27.5206    9.3117    0.0000 C   0  0  0  0  0  0  0  0  0  0  0  0
   28.2351    9.7242    0.0000 C   0  0  0  0  0  0  0  0  0  0  0  0
   28.9496    9.3117    0.0000 C   0  0  0  0  0  0  0  0  0  0  0  0
   29.6640    9.7242    0.0000 C   0  0  0  0  0  0  0  0  0  0  0  0
   30.3785    9.3117    0.0000 C   0  0  0  0  0  0  0  0  0  0  0  0
   31.0930    9.7242    0.0000 C   0  0  0  0  0  0  0  0  0  0  0  0
   31.8075    9.3117    0.0000 C   0  0  0  0  0  0  0  0  0  0  0  0
   32.5219    9.7242    0.0000 C   0  0  0  0  0  0  0  0  0  0  0  0
   33.2364    9.3117    0.0000 C   0  0  0  0  0  0  0  0  0  0  0  0
   33.9509    9.7242    0.0000 C   0  0  0  0  0  0  0  0  0  0  0  0
   34.6653    9.3117    0.0000 C   0  0  0  0  0  0  0  0  0  0  0  0
   35.3798    9.7242    0.0000 C   0  0  0  0  0  0  0  0  0  0  0  0
   34.6653    8.4867    0.0000 C   0  0  0  0  0  0  0  0  0  0  0  0
   14.2476   10.0261    0.0000 H   0  0  0  0  0  0  0  0  0  0  0  0
   13.9457    8.8992    0.0000 H   0  0  0  0  0  0  0  0  0  0  0  0
   15.0726    8.5972    0.0000 H   0  0  0  0  0  0  0  0  0  0  0  0
   15.7449   10.4614    0.0000 H   0  0  0  0  0  0  0  0  0  0  0  0
   15.0044   10.4614    0.0000 H   0  0  0  0  0  0  0  0  0  0  0  0
   15.7188    8.5744    0.0000 H   0  0  0  0  0  0  0  0  0  0  0  0
   16.4593    8.5744    0.0000 H   0  0  0  0  0  0  0  0  0  0  0  0
   17.1738   10.4614    0.0000 H   0  0  0  0  0  0  0  0  0  0  0  0
   16.4333   10.4614    0.0000 H   0  0  0  0  0  0  0  0  0  0  0  0
   17.1478    8.5744    0.0000 H   0  0  0  0  0  0  0  0  0  0  0  0
   17.8883    8.5744    0.0000 H   0  0  0  0  0  0  0  0  0  0  0  0
   18.6028   10.4614    0.0000 H   0  0  0  0  0  0  0  0  0  0  0  0
   17.8622   10.4614    0.0000 H   0  0  0  0  0  0  0  0  0  0  0  0
   18.5767    8.5744    0.0000 H   0  0  0  0  0  0  0  0  0  0  0  0
   19.3172    8.5744    0.0000 H   0  0  0  0  0  0  0  0  0  0  0  0
   20.0317   10.4614    0.0000 H   0  0  0  0  0  0  0  0  0  0  0  0
   19.2912   10.4614    0.0000 H   0  0  0  0  0  0  0  0  0  0  0  0
   20.0057    8.5744    0.0000 H   0  0  0  0  0  0  0  0  0  0  0  0
   20.7462    8.5744    0.0000 H   0  0  0  0  0  0  0  0  0  0  0  0
   21.4606   10.4614    0.0000 H   0  0  0  0  0  0  0  0  0  0  0  0
   20.7201   10.4614    0.0000 H   0  0  0  0  0  0  0  0  0  0  0  0
   21.0904    8.8992    0.0000 H   0  0  0  0  0  0  0  0  0  0  0  0
   22.2582    7.7974    0.0000 H   0  0  0  0  0  0  0  0  0  0  0  0
   22.6285    8.4387    0.0000 H   0  0  0  0  0  0  0  0  0  0  0  0
   20.3026    7.8293    0.0000 H   0  0  0  0  0  0  0  0  0  0  0  0
   21.8049    7.6617    0.0000 H   0  0  0  0  0  0  0  0  0  0  0  0
   21.2336    6.4367    0.0000 H   0  0  0  0  0  0  0  0  0  0  0  0
   21.7224    6.7189    0.0000 H   0  0  0  0  0  0  0  0  0  0  0  0
   19.9226    7.5259    0.0000 H   0  0  0  0  0  0  0  0  0  0  0  0
   19.5523    6.8846    0.0000 H   0  0  0  0  0  0  0  0  0  0  0  0
   20.3584    5.1869    0.0000 H   0  0  0  0  0  0  0  0  0  0  0  0
   21.0723    5.5693    0.0000 H   0  0  0  0  0  0  0  0  0  0  0  0
   19.2081    6.2884    0.0000 H   0  0  0  0  0  0  0  0  0  0  0  0
   18.8378    5.6471    0.0000 H   0  0  0  0  0  0  0  0  0  0  0  0
   19.8082    3.9623    0.0000 H   0  0  0  0  0  0  0  0  0  0  0  0
   20.2970    4.2481    0.0000 H   0  0  0  0  0  0  0  0  0  0  0  0
   18.7157    5.1536    0.0000 H   0  0  0  0  0  0  0  0  0  0  0  0
   18.1228    4.3248    0.0000 H   0  0  0  0  0  0  0  0  0  0  0  0
   18.7873    3.5523    0.0000 H   0  0  0  0  0  0  0  0  0  0  0  0
   22.8896   10.4614    0.0000 H   0  0  0  0  0  0  0  0  0  0  0  0
   22.1491   10.4614    0.0000 H   0  0  0  0  0  0  0  0  0  0  0  0
   24.2925    8.5744    0.0000 H   0  0  0  0  0  0  0  0  0  0  0  0
   25.0330    8.5744    0.0000 H   0  0  0  0  0  0  0  0  0  0  0  0
   25.7475   10.4614    0.0000 H   0  0  0  0  0  0  0  0  0  0  0  0
   25.0070   10.4614    0.0000 H   0  0  0  0  0  0  0  0  0  0  0  0
   25.7214    8.5744    0.0000 H   0  0  0  0  0  0  0  0  0  0  0  0
   26.4619    8.5744    0.0000 H   0  0  0  0  0  0  0  0  0  0  0  0
   27.1764   10.4614    0.0000 H   0  0  0  0  0  0  0  0  0  0  0  0
   26.4359   10.4614    0.0000 H   0  0  0  0  0  0  0  0  0  0  0  0
   27.1504    8.5744    0.0000 H   0  0  0  0  0  0  0  0  0  0  0  0
   27.8909    8.5744    0.0000 H   0  0  0  0  0  0  0  0  0  0  0  0
   28.6054   10.4614    0.0000 H   0  0  0  0  0  0  0  0  0  0  0  0
   27.8648   10.4614    0.0000 H   0  0  0  0  0  0  0  0  0  0  0  0
   28.5793    8.5744    0.0000 H   0  0  0  0  0  0  0  0  0  0  0  0
   29.3198    8.5744    0.0000 H   0  0  0  0  0  0  0  0  0  0  0  0
   30.0343   10.4614    0.0000 H   0  0  0  0  0  0  0  0  0  0  0  0
   29.2938   10.4614    0.0000 H   0  0  0  0  0  0  0  0  0  0  0  0
   30.0082    8.5744    0.0000 H   0  0  0  0  0  0  0  0  0  0  0  0
   30.7488    8.5744    0.0000 H   0  0  0  0  0  0  0  0  0  0  0  0
   31.4632   10.4614    0.0000 H   0  0  0  0  0  0  0  0  0  0  0  0
   30.7227   10.4614    0.0000 H   0  0  0  0  0  0  0  0  0  0  0  0
   31.4372    8.5744    0.0000 H   0  0  0  0  0  0  0  0  0  0  0  0
   32.1777    8.5744    0.0000 H   0  0  0  0  0  0  0  0  0  0  0  0
   32.8922   10.4614    0.0000 H   0  0  0  0  0  0  0  0  0  0  0  0
   32.1517   10.4614    0.0000 H   0  0  0  0  0  0  0  0  0  0  0  0
   32.8661    8.5744    0.0000 H   0  0  0  0  0  0  0  0  0  0  0  0
   33.6067    8.5744    0.0000 H   0  0  0  0  0  0  0  0  0  0  0  0
   34.3211   10.4614    0.0000 H   0  0  0  0  0  0  0  0  0  0  0  0
   33.5806   10.4614    0.0000 H   0  0  0  0  0  0  0  0  0  0  0  0
   34.6653   10.1367    0.0000 H   0  0  0  0  0  0  0  0  0  0  0  0
   35.5933    8.9273    0.0000 H   0  0  0  0  0  0  0  0  0  0  0  0
   36.2048    9.7242    0.0000 H   0  0  0  0  0  0  0  0  0  0  0  0
   35.5933   10.5211    0.0000 H   0  0  0  0  0  0  0  0  0  0  0  0
   33.8403    8.4867    0.0000 H   0  0  0  0  0  0  0  0  0  0  0  0
   34.6653    7.6617    0.0000 H   0  0  0  0  0  0  0  0  0  0  0  0
   35.4903    8.4867    0.0000 H   0  0  0  0  0  0  0  0  0  0  0  0
  1  2  1  0  0  0  0
  2  3  1  0  0  0  0
  3  4  1  0  0  0  0
  4  5  1  0  0  0  0
  5  6  1  0  0  0  0
  6  7  1  0  0  0  0
  7  8  1  0  0  0  0
  8  9  1  0  0  0  0
  9 10  1  0  0  0  0
 10 11  1  0  0  0  0
 11 12  1  0  0  0  0
 12 13  1  0  0  0  0
 13 14  1  0  0  0  0
 14 15  1  0  0  0  0
 15 16  1  0  0  0  0
 16 17  1  0  0  0  0
 17 18  1  0  0  0  0
 18 19  1  0  0  0  0
 11 20  1  0  0  0  0
 20 21  1  0  0  0  0
 21 22  1  0  0  0  0
 22 23  2  0  0  0  0
 22 24  1  0  0  0  0
 24 25  1  0  0  0  0
 25 26  1  0  0  0  0
 26 27  1  0  0  0  0
 27 28  1  0  0  0  0
 28 29  1  0  0  0  0
 29 30  1  0  0  0  0
 30 31  1  0  0  0  0
 31 32  1  0  0  0  0
 32 33  1  0  0  0  0
 33 34  1  0  0  0  0
 34 35  1  0  0  0  0
 35 36  1  0  0  0  0
 36 37  1  0  0  0  0
 37 38  1  0  0  0  0
 38 39  1  0  0  0  0
 38 40  1  0  0  0  0
  1 41  1  0  0  0  0
  1 42  1  0  0  0  0
  1 43  1  0  0  0  0
  2 44  1  0  0  0  0
  2 45  1  0  0  0  0
  3 46  1  0  0  0  0
  3 47  1  0  0  0  0
  4 48  1  0  0  0  0
  4 49  1  0  0  0  0
  5 50  1  0  0  0  0
  5 51  1  0  0  0  0
  6 52  1  0  0  0  0
  6 53  1  0  0  0  0
  7 54  1  0  0  0  0
  7 55  1  0  0  0  0
  8 56  1  0  0  0  0
  8 57  1  0  0  0  0
  9 58  1  0  0  0  0
  9 59  1  0  0  0  0
 10 60  1  0  0  0  0
 10 61  1  0  0  0  0
 11 62  1  0  0  0  0
 12 63  1  0  0  0  0
 12 64  1  0  0  0  0
 13 65  1  0  0  0  0
 13 66  1  0  0  0  0
 14 67  1  0  0  0  0
 14 68  1  0  0  0  0
 15 69  1  0  0  0  0
 15 70  1  0  0  0  0
 16 71  1  0  0  0  0
 16 72  1  0  0  0  0
 17 73  1  0  0  0  0
 17 74  1  0  0  0  0
 18 75  1  0  0  0  0
 18 76  1  0  0  0  0
 19 77  1  0  0  0  0
 19 78  1  0  0  0  0
 19 79  1  0  0  0  0
 20 80  1  0  0  0  0
 20 81  1  0  0  0  0
 24 82  1  0  0  0  0
 24 83  1  0  0  0  0
 25 84  1  0  0  0  0
 25 85  1  0  0  0  0
 26 86  1  0  0  0  0
 26 87  1  0  0  0  0
 27 88  1  0  0  0  0
 27 89  1  0  0  0  0
 28 90  1  0  0  0  0
 28 91  1  0  0  0  0
 29 92  1  0  0  0  0
 29 93  1  0  0  0  0
 30 94  1  0  0  0  0
 30 95  1  0  0  0  0
 31 96  1  0  0  0  0
 31 97  1  0  0  0  0
 32 98  1  0  0  0  0
 32 99  1  0  0  0  0
 33100  1  0  0  0  0
 33101  1  0  0  0  0
 34102  1  0  0  0  0
 34103  1  0  0  0  0
 35104  1  0  0  0  0
 35105  1  0  0  0  0
 36106  1  0  0  0  0
 36107  1  0  0  0  0
 37108  1  0  0  0  0
 37109  1  0  0  0  0
 38110  1  0  0  0  0
 39111  1  0  0  0  0
 39112  1  0  0  0  0
 39113  1  0  0  0  0
 40114  1  0  0  0  0
 40115  1  0  0  0  0
 40116  1  0  0  0  0
M  END
>  <InChIKey>
QNJOVLAFLJQFBF-UHFFFAOYSA-N

>  <UN GHS>
Non-irritant

>  <CASRN>
93803-87-3

> <Outcome>
0

>  <Index>
645

>  <StandardizerResult>
Clear Stereo (ID: ClearStereo)
Wedge Clean (ID: WedgeClean)
Mesomerize (ID: Mesomerize)
Tautomerize (ID: Tautomerize)
Add Explicit Hydrogens (ID: AddExplicitH)
Neutralize (ID: Neutralize)
Clean 2D (ID: Clean2D)

> <knn Distance>
2.44948983192444

> <CpId>
645

$$$$
650
  Mrv1532301301811342D          

 18 18  0  0  0  0            999 V2000
   -0.0000    3.3000    0.0000 C   0  0  0  0  0  0  0  0  0  0  0  0
   -0.0000    2.4750    0.0000 O   0  0  0  0  0  0  0  0  0  0  0  0
    0.7145    2.0625    0.0000 C   0  0  0  0  0  0  0  0  0  0  0  0
    1.4289    2.4750    0.0000 O   0  0  0  0  0  0  0  0  0  0  0  0
    0.7145    1.2375    0.0000 C   0  0  0  0  0  0  0  0  0  0  0  0
    1.4289    0.8250    0.0000 C   0  0  0  0  0  0  0  0  0  0  0  0
    1.4289    0.0000    0.0000 C   0  0  0  0  0  0  0  0  0  0  0  0
    0.7145   -0.4125    0.0000 C   0  0  0  0  0  0  0  0  0  0  0  0
   -0.0000    0.0000    0.0000 C   0  0  0  0  0  0  0  0  0  0  0  0
   -0.0000    0.8250    0.0000 C   0  0  0  0  0  0  0  0  0  0  0  0
    0.8250    3.3000    0.0000 H   0  0  0  0  0  0  0  0  0  0  0  0
   -0.0000    4.1250    0.0000 H   0  0  0  0  0  0  0  0  0  0  0  0
   -0.8250    3.3000    0.0000 H   0  0  0  0  0  0  0  0  0  0  0  0
    2.1434    1.2375    0.0000 H   0  0  0  0  0  0  0  0  0  0  0  0
    2.1434   -0.4125    0.0000 H   0  0  0  0  0  0  0  0  0  0  0  0
    0.7145   -1.2375    0.0000 H   0  0  0  0  0  0  0  0  0  0  0  0
   -0.7145   -0.4125    0.0000 H   0  0  0  0  0  0  0  0  0  0  0  0
   -0.7145    1.2375    0.0000 H   0  0  0  0  0  0  0  0  0  0  0  0
  1  2  1  0  0  0  0
  2  3  1  0  0  0  0
  3  4  2  0  0  0  0
  3  5  1  0  0  0  0
  5  6  4  0  0  0  0
  6  7  4  0  0  0  0
  7  8  4  0  0  0  0
  8  9  4  0  0  0  0
  9 10  4  0  0  0  0
  5 10  4  0  0  0  0
  1 11  1  0  0  0  0
  1 12  1  0  0  0  0
  1 13  1  0  0  0  0
  6 14  1  0  0  0  0
  7 15  1  0  0  0  0
  8 16  1  0  0  0  0
  9 17  1  0  0  0  0
 10 18  1  0  0  0  0
M  END
>  <InChIKey>
QPJVMBTYPHYUOC-UHFFFAOYSA-N

>  <UN GHS>
Non-irritant

>  <CASRN>
93-58-3

> <Outcome>
0

>  <Index>
650

>  <StandardizerResult>
Dearomatize (ID: Dearomatize)
Clear Stereo (ID: ClearStereo)
Wedge Clean (ID: WedgeClean)
Mesomerize (ID: Mesomerize)
Tautomerize (ID: Tautomerize)
Aromatize (ID: Aromatize)
Add Explicit Hydrogens (ID: AddExplicitH)
Neutralize (ID: Neutralize)
Clean 2D (ID: Clean2D)

> <knn Distance>
2.44948983192444

> <CpId>
650

$$$$
670
  Mrv1532301301811342D          

 16 16  0  0  0  0            999 V2000
   -0.0000    2.4750    0.0000 C   0  0  0  0  0  0  0  0  0  0  0  0
    0.7145    2.0625    0.0000 O   0  0  0  0  0  0  0  0  0  0  0  0
    0.7145    1.2375    0.0000 C   0  0  0  0  0  0  0  0  0  0  0  0
    1.4289    0.8250    0.0000 C   0  0  0  0  0  0  0  0  0  0  0  0
    1.4289   -0.0000    0.0000 C   0  0  0  0  0  0  0  0  0  0  0  0
    0.7145   -0.4125    0.0000 C   0  0  0  0  0  0  0  0  0  0  0  0
   -0.0000   -0.0000    0.0000 C   0  0  0  0  0  0  0  0  0  0  0  0
   -0.0000    0.8250    0.0000 C   0  0  0  0  0  0  0  0  0  0  0  0
    0.4125    3.1895    0.0000 H   0  0  0  0  0  0  0  0  0  0  0  0
   -0.7145    2.8875    0.0000 H   0  0  0  0  0  0  0  0  0  0  0  0
   -0.4125    1.7605    0.0000 H   0  0  0  0  0  0  0  0  0  0  0  0
    2.1434    1.2375    0.0000 H   0  0  0  0  0  0  0  0  0  0  0  0
    2.1434   -0.4125    0.0000 H   0  0  0  0  0  0  0  0  0  0  0  0
    0.7145   -1.2375    0.0000 H   0  0  0  0  0  0  0  0  0  0  0  0
   -0.7145   -0.4125    0.0000 H   0  0  0  0  0  0  0  0  0  0  0  0
   -0.7145    1.2375    0.0000 H   0  0  0  0  0  0  0  0  0  0  0  0
  1  2  1  0  0  0  0
  2  3  1  0  0  0  0
  3  4  4  0  0  0  0
  4  5  4  0  0  0  0
  5  6  4  0  0  0  0
  6  7  4  0  0  0  0
  7  8  4  0  0  0  0
  3  8  4  0  0  0  0
  1  9  1  0  0  0  0
  1 10  1  0  0  0  0
  1 11  1  0  0  0  0
  4 12  1  0  0  0  0
  5 13  1  0  0  0  0
  6 14  1  0  0  0  0
  7 15  1  0  0  0  0
  8 16  1  0  0  0  0
M  END
>  <InChIKey>
RDOXTESZEPMUJZ-UHFFFAOYSA-N

>  <UN GHS>
Non-irritant

>  <CASRN>
100-66-3

> <Outcome>
0

>  <Index>
670

>  <StandardizerResult>
Dearomatize (ID: Dearomatize)
Clear Stereo (ID: ClearStereo)
Wedge Clean (ID: WedgeClean)
Mesomerize (ID: Mesomerize)
Tautomerize (ID: Tautomerize)
Aromatize (ID: Aromatize)
Add Explicit Hydrogens (ID: AddExplicitH)
Neutralize (ID: Neutralize)
Clean 2D (ID: Clean2D)

> <knn Distance>
2.44948983192444

> <CpId>
670

$$$$
685
  Mrv1532301301811342D          

 29 28  0  0  0  0            999 V2000
    4.2355    3.2716    0.0000 C   0  0  0  0  0  0  0  0  0  0  0  0
    4.9500    2.8591    0.0000 C   0  0  0  0  0  0  0  0  0  0  0  0
    5.6645    3.2716    0.0000 O   0  0  0  0  0  0  0  0  0  0  0  0
    6.3789    2.8591    0.0000 C   0  0  0  0  0  0  0  0  0  0  0  0
    7.0934    3.2716    0.0000 C   0  0  0  0  0  0  0  0  0  0  0  0
    7.8079    2.8591    0.0000 O   0  0  0  0  0  0  0  0  0  0  0  0
    8.5223    3.2716    0.0000 C   0  0  0  0  0  0  0  0  0  0  0  0
    9.2368    2.8591    0.0000 C   0  0  0  0  0  0  0  0  0  0  0  0
    9.9513    3.2716    0.0000 O   0  0  0  0  0  0  0  0  0  0  0  0
   10.6658    2.8591    0.0000 C   0  0  0  0  0  0  0  0  0  0  0  0
   11.3802    3.2716    0.0000 C   0  0  0  0  0  0  0  0  0  0  0  0
    4.6480    3.9861    0.0000 H   0  0  0  0  0  0  0  0  0  0  0  0
    3.5210    3.6841    0.0000 H   0  0  0  0  0  0  0  0  0  0  0  0
    3.8230    2.5571    0.0000 H   0  0  0  0  0  0  0  0  0  0  0  0
    4.5797    2.1219    0.0000 H   0  0  0  0  0  0  0  0  0  0  0  0
    5.3203    2.1219    0.0000 H   0  0  0  0  0  0  0  0  0  0  0  0
    6.0087    2.1219    0.0000 H   0  0  0  0  0  0  0  0  0  0  0  0
    6.7492    2.1219    0.0000 H   0  0  0  0  0  0  0  0  0  0  0  0
    7.4637    4.0089    0.0000 H   0  0  0  0  0  0  0  0  0  0  0  0
    6.7231    4.0089    0.0000 H   0  0  0  0  0  0  0  0  0  0  0  0
    8.8926    4.0089    0.0000 H   0  0  0  0  0  0  0  0  0  0  0  0
    8.1521    4.0089    0.0000 H   0  0  0  0  0  0  0  0  0  0  0  0
    8.8666    2.1219    0.0000 H   0  0  0  0  0  0  0  0  0  0  0  0
    9.6071    2.1219    0.0000 H   0  0  0  0  0  0  0  0  0  0  0  0
   10.2955    2.1219    0.0000 H   0  0  0  0  0  0  0  0  0  0  0  0
   11.0360    2.1219    0.0000 H   0  0  0  0  0  0  0  0  0  0  0  0
   11.7927    2.5571    0.0000 H   0  0  0  0  0  0  0  0  0  0  0  0
   12.0947    3.6841    0.0000 H   0  0  0  0  0  0  0  0  0  0  0  0
   10.9677    3.9861    0.0000 H   0  0  0  0  0  0  0  0  0  0  0  0
  1  2  1  0  0  0  0
  2  3  1  0  0  0  0
  3  4  1  0  0  0  0
  4  5  1  0  0  0  0
  5  6  1  0  0  0  0
  6  7  1  0  0  0  0
  7  8  1  0  0  0  0
  8  9  1  0  0  0  0
  9 10  1  0  0  0  0
 10 11  1  0  0  0  0
  1 12  1  0  0  0  0
  1 13  1  0  0  0  0
  1 14  1  0  0  0  0
  2 15  1  0  0  0  0
  2 16  1  0  0  0  0
  4 17  1  0  0  0  0
  4 18  1  0  0  0  0
  5 19  1  0  0  0  0
  5 20  1  0  0  0  0
  7 21  1  0  0  0  0
  7 22  1  0  0  0  0
  8 23  1  0  0  0  0
  8 24  1  0  0  0  0
 10 25  1  0  0  0  0
 10 26  1  0  0  0  0
 11 27  1  0  0  0  0
 11 28  1  0  0  0  0
 11 29  1  0  0  0  0
M  END
>  <InChIKey>
RRQYJINTUHWNHW-UHFFFAOYSA-N

>  <UN GHS>
Non-irritant

>  <CASRN>
112-36-7

> <Outcome>
0

>  <Index>
685

>  <StandardizerResult>
Clear Stereo (ID: ClearStereo)
Wedge Clean (ID: WedgeClean)
Mesomerize (ID: Mesomerize)
Tautomerize (ID: Tautomerize)
Add Explicit Hydrogens (ID: AddExplicitH)
Neutralize (ID: Neutralize)
Clean 2D (ID: Clean2D)

> <knn Distance>
2.44948983192444

> <CpId>
685

$$$$
686
  Mrv1532301301811342D          

 35 34  0  0  0  0            999 V2000
    4.2355    3.2709    0.0000 C   0  0  0  0  0  0  0  0  0  0  0  0
    4.9500    2.8584    0.0000 C   0  0  0  0  0  0  0  0  0  0  0  0
    5.6645    3.2709    0.0000 C   0  0  0  0  0  0  0  0  0  0  0  0
    6.3789    2.8584    0.0000 C   0  0  0  0  0  0  0  0  0  0  0  0
    7.0934    3.2709    0.0000 C   0  0  0  0  0  0  0  0  0  0  0  0
    7.8079    2.8584    0.0000 C   0  0  0  0  0  0  0  0  0  0  0  0
    8.5224    3.2709    0.0000 C   0  0  0  0  0  0  0  0  0  0  0  0
    9.2368    2.8584    0.0000 C   0  0  0  0  0  0  0  0  0  0  0  0
    9.9513    3.2709    0.0000 C   0  0  0  0  0  0  0  0  0  0  0  0
   10.6658    2.8584    0.0000 C   0  0  0  0  0  0  0  0  0  0  0  0
   11.3802    3.2709    0.0000 C   0  0  0  0  0  0  0  0  0  0  0  0
    4.6480    3.9854    0.0000 H   0  0  0  0  0  0  0  0  0  0  0  0
    3.5211    3.6834    0.0000 H   0  0  0  0  0  0  0  0  0  0  0  0
    3.8230    2.5564    0.0000 H   0  0  0  0  0  0  0  0  0  0  0  0
    4.5797    2.1212    0.0000 H   0  0  0  0  0  0  0  0  0  0  0  0
    5.3203    2.1212    0.0000 H   0  0  0  0  0  0  0  0  0  0  0  0
    6.0347    4.0082    0.0000 H   0  0  0  0  0  0  0  0  0  0  0  0
    5.2942    4.0082    0.0000 H   0  0  0  0  0  0  0  0  0  0  0  0
    6.0087    2.1212    0.0000 H   0  0  0  0  0  0  0  0  0  0  0  0
    6.7492    2.1212    0.0000 H   0  0  0  0  0  0  0  0  0  0  0  0
    7.4637    4.0082    0.0000 H   0  0  0  0  0  0  0  0  0  0  0  0
    6.7232    4.0082    0.0000 H   0  0  0  0  0  0  0  0  0  0  0  0
    7.4376    2.1212    0.0000 H   0  0  0  0  0  0  0  0  0  0  0  0
    8.1781    2.1212    0.0000 H   0  0  0  0  0  0  0  0  0  0  0  0
    8.8926    4.0082    0.0000 H   0  0  0  0  0  0  0  0  0  0  0  0
    8.1521    4.0082    0.0000 H   0  0  0  0  0  0  0  0  0  0  0  0
    8.8666    2.1212    0.0000 H   0  0  0  0  0  0  0  0  0  0  0  0
    9.6071    2.1212    0.0000 H   0  0  0  0  0  0  0  0  0  0  0  0
   10.3216    4.0082    0.0000 H   0  0  0  0  0  0  0  0  0  0  0  0
    9.5810    4.0082    0.0000 H   0  0  0  0  0  0  0  0  0  0  0  0
   10.2955    2.1212    0.0000 H   0  0  0  0  0  0  0  0  0  0  0  0
   11.0360    2.1212    0.0000 H   0  0  0  0  0  0  0  0  0  0  0  0
   11.7927    2.5564    0.0000 H   0  0  0  0  0  0  0  0  0  0  0  0
   12.0947    3.6834    0.0000 H   0  0  0  0  0  0  0  0  0  0  0  0
   10.9677    3.9854    0.0000 H   0  0  0  0  0  0  0  0  0  0  0  0
  1  2  1  0  0  0  0
  2  3  1  0  0  0  0
  3  4  1  0  0  0  0
  4  5  1  0  0  0  0
  5  6  1  0  0  0  0
  6  7  1  0  0  0  0
  7  8  1  0  0  0  0
  8  9  1  0  0  0  0
  9 10  1  0  0  0  0
 10 11  1  0  0  0  0
  1 12  1  0  0  0  0
  1 13  1  0  0  0  0
  1 14  1  0  0  0  0
  2 15  1  0  0  0  0
  2 16  1  0  0  0  0
  3 17  1  0  0  0  0
  3 18  1  0  0  0  0
  4 19  1  0  0  0  0
  4 20  1  0  0  0  0
  5 21  1  0  0  0  0
  5 22  1  0  0  0  0
  6 23  1  0  0  0  0
  6 24  1  0  0  0  0
  7 25  1  0  0  0  0
  7 26  1  0  0  0  0
  8 27  1  0  0  0  0
  8 28  1  0  0  0  0
  9 29  1  0  0  0  0
  9 30  1  0  0  0  0
 10 31  1  0  0  0  0
 10 32  1  0  0  0  0
 11 33  1  0  0  0  0
 11 34  1  0  0  0  0
 11 35  1  0  0  0  0
M  END
>  <InChIKey>
RSJKGSCJYJTIGS-UHFFFAOYSA-N

>  <UN GHS>
Non-irritant

>  <CASRN>
1120-21-4

> <Outcome>
0

>  <Index>
686

>  <StandardizerResult>
Clear Stereo (ID: ClearStereo)
Wedge Clean (ID: WedgeClean)
Mesomerize (ID: Mesomerize)
Tautomerize (ID: Tautomerize)
Add Explicit Hydrogens (ID: AddExplicitH)
Neutralize (ID: Neutralize)
Clean 2D (ID: Clean2D)

> <knn Distance>
2.44948983192444

> <CpId>
686

$$$$
696
  Mrv1532301301811342D          

 21 21  0  0  0  0            999 V2000
   -0.0306    2.5191    0.0000 C   0  0  0  0  0  0  0  0  0  0  0  0
    0.6839    2.1066    0.0000 C   0  0  0  0  0  0  0  0  0  0  0  0
    1.3984    2.5191    0.0000 C   0  0  0  0  0  0  0  0  0  0  0  0
    0.6839    1.2816    0.0000 C   0  0  0  0  0  0  0  0  0  0  0  0
    1.3984    0.8691    0.0000 C   0  0  0  0  0  0  0  0  0  0  0  0
    1.3984    0.0441    0.0000 C   0  0  0  0  0  0  0  0  0  0  0  0
    0.6839   -0.3684    0.0000 C   0  0  0  0  0  0  0  0  0  0  0  0
   -0.0306    0.0441    0.0000 C   0  0  0  0  0  0  0  0  0  0  0  0
   -0.0306    0.8691    0.0000 C   0  0  0  0  0  0  0  0  0  0  0  0
    0.3819    3.2336    0.0000 H   0  0  0  0  0  0  0  0  0  0  0  0
   -0.7450    2.9316    0.0000 H   0  0  0  0  0  0  0  0  0  0  0  0
   -0.4431    1.8046    0.0000 H   0  0  0  0  0  0  0  0  0  0  0  0
    0.6839    2.9316    0.0000 H   0  0  0  0  0  0  0  0  0  0  0  0
    1.6119    1.7222    0.0000 H   0  0  0  0  0  0  0  0  0  0  0  0
    2.2234    2.5191    0.0000 H   0  0  0  0  0  0  0  0  0  0  0  0
    1.6119    3.3160    0.0000 H   0  0  0  0  0  0  0  0  0  0  0  0
    2.2172    0.7682    0.0000 H   0  0  0  0  0  0  0  0  0  0  0  0
    2.1128   -0.3684    0.0000 H   0  0  0  0  0  0  0  0  0  0  0  0
    0.6839   -1.1934    0.0000 H   0  0  0  0  0  0  0  0  0  0  0  0
   -0.7450   -0.3684    0.0000 H   0  0  0  0  0  0  0  0  0  0  0  0
   -0.7450    1.2816    0.0000 H   0  0  0  0  0  0  0  0  0  0  0  0
  1  2  1  0  0  0  0
  2  3  1  0  0  0  0
  2  4  1  0  0  0  0
  4  5  4  0  0  0  0
  5  6  4  0  0  0  0
  6  7  4  0  0  0  0
  7  8  4  0  0  0  0
  8  9  4  0  0  0  0
  4  9  4  0  0  0  0
  1 10  1  0  0  0  0
  1 11  1  0  0  0  0
  1 12  1  0  0  0  0
  2 13  1  0  0  0  0
  3 14  1  0  0  0  0
  3 15  1  0  0  0  0
  3 16  1  0  0  0  0
  5 17  1  0  0  0  0
  6 18  1  0  0  0  0
  7 19  1  0  0  0  0
  8 20  1  0  0  0  0
  9 21  1  0  0  0  0
M  END
>  <InChIKey>
RWGFKTVRMDUZSP-UHFFFAOYSA-N

>  <UN GHS>
Non-irritant

>  <CASRN>
98-82-8

> <Outcome>
0

>  <Index>
696

>  <StandardizerResult>
Dearomatize (ID: Dearomatize)
Clear Stereo (ID: ClearStereo)
Wedge Clean (ID: WedgeClean)
Mesomerize (ID: Mesomerize)
Tautomerize (ID: Tautomerize)
Aromatize (ID: Aromatize)
Add Explicit Hydrogens (ID: AddExplicitH)
Neutralize (ID: Neutralize)
Clean 2D (ID: Clean2D)

> <knn Distance>
2.44948983192444

> <CpId>
696

$$$$
701
  Mrv1532301301811342D          

 39 38  0  0  0  0            999 V2000
    4.2067    3.2857    0.0000 C   0  0  0  0  0  0  0  0  0  0  0  0
    4.9211    2.8732    0.0000 C   0  0  0  0  0  0  0  0  0  0  0  0
    5.6356    3.2857    0.0000 C   0  0  0  0  0  0  0  0  0  0  0  0
    6.3501    2.8732    0.0000 C   0  0  0  0  0  0  0  0  0  0  0  0
    7.0646    3.2857    0.0000 C   0  0  0  0  0  0  0  0  0  0  0  0
    7.7790    2.8732    0.0000 C   0  0  0  0  0  0  0  0  0  0  0  0
    7.7790    2.0482    0.0000 C   0  0  0  0  0  0  0  0  0  0  0  0
    8.4935    1.6357    0.0000 C   0  0  0  0  0  0  0  0  0  0  0  0
    8.4935    0.8107    0.0000 C   0  0  0  0  0  0  0  0  0  0  0  0
    8.4935    3.2857    0.0000 C   0  0  0  0  0  0  0  0  0  0  0  0
    9.2080    2.8732    0.0000 O   0  0  0  0  0  0  0  0  0  0  0  0
    9.9224    3.2857    0.0000 C   0  0  0  0  0  0  0  0  0  0  0  0
    9.9224    4.1107    0.0000 O   0  0  0  0  0  0  0  0  0  0  0  0
   10.6369    2.8732    0.0000 C   0  0  0  0  0  0  0  0  0  0  0  0
   11.3514    3.2857    0.0000 C   0  0  0  0  0  0  0  0  0  0  0  0
    4.6192    4.0001    0.0000 H   0  0  0  0  0  0  0  0  0  0  0  0
    3.4922    3.6982    0.0000 H   0  0  0  0  0  0  0  0  0  0  0  0
    3.7942    2.5712    0.0000 H   0  0  0  0  0  0  0  0  0  0  0  0
    4.5509    2.1359    0.0000 H   0  0  0  0  0  0  0  0  0  0  0  0
    5.2914    2.1359    0.0000 H   0  0  0  0  0  0  0  0  0  0  0  0
    6.0059    4.0229    0.0000 H   0  0  0  0  0  0  0  0  0  0  0  0
    5.2654    4.0229    0.0000 H   0  0  0  0  0  0  0  0  0  0  0  0
    5.9798    2.1359    0.0000 H   0  0  0  0  0  0  0  0  0  0  0  0
    6.7203    2.1359    0.0000 H   0  0  0  0  0  0  0  0  0  0  0  0
    7.4348    4.0229    0.0000 H   0  0  0  0  0  0  0  0  0  0  0  0
    6.6943    4.0229    0.0000 H   0  0  0  0  0  0  0  0  0  0  0  0
    7.0646    2.4607    0.0000 H   0  0  0  0  0  0  0  0  0  0  0  0
    7.1470    1.5179    0.0000 H   0  0  0  0  0  0  0  0  0  0  0  0
    7.6358    1.2357    0.0000 H   0  0  0  0  0  0  0  0  0  0  0  0
    9.3171    1.6836    0.0000 H   0  0  0  0  0  0  0  0  0  0  0  0
    8.9468    2.3249    0.0000 H   0  0  0  0  0  0  0  0  0  0  0  0
    7.9386    0.2002    0.0000 H   0  0  0  0  0  0  0  0  0  0  0  0
    8.9285    0.1096    0.0000 H   0  0  0  0  0  0  0  0  0  0  0  0
    9.2869    1.0368    0.0000 H   0  0  0  0  0  0  0  0  0  0  0  0
    8.8638    4.0229    0.0000 H   0  0  0  0  0  0  0  0  0  0  0  0
    8.1232    4.0229    0.0000 H   0  0  0  0  0  0  0  0  0  0  0  0
   10.6369    2.0482    0.0000 H   0  0  0  0  0  0  0  0  0  0  0  0
   12.0658    2.8732    0.0000 H   0  0  0  0  0  0  0  0  0  0  0  0
   11.3514    4.1107    0.0000 H   0  0  0  0  0  0  0  0  0  0  0  0
  1  2  1  0  0  0  0
  2  3  1  0  0  0  0
  3  4  1  0  0  0  0
  4  5  1  0  0  0  0
  5  6  1  0  0  0  0
  6  7  1  0  0  0  0
  7  8  1  0  0  0  0
  8  9  1  0  0  0  0
  6 10  1  0  0  0  0
 10 11  1  0  0  0  0
 11 12  1  0  0  0  0
 12 13  2  0  0  0  0
 12 14  1  0  0  0  0
 14 15  2  0  0  0  0
  1 16  1  0  0  0  0
  1 17  1  0  0  0  0
  1 18  1  0  0  0  0
  2 19  1  0  0  0  0
  2 20  1  0  0  0  0
  3 21  1  0  0  0  0
  3 22  1  0  0  0  0
  4 23  1  0  0  0  0
  4 24  1  0  0  0  0
  5 25  1  0  0  0  0
  5 26  1  0  0  0  0
  6 27  1  0  0  0  0
  7 28  1  0  0  0  0
  7 29  1  0  0  0  0
  8 30  1  0  0  0  0
  8 31  1  0  0  0  0
  9 32  1  0  0  0  0
  9 33  1  0  0  0  0
  9 34  1  0  0  0  0
 10 35  1  0  0  0  0
 10 36  1  0  0  0  0
 14 37  1  0  0  0  0
 15 38  1  0  0  0  0
 15 39  1  0  0  0  0
M  END
>  <InChIKey>
RXBOCDZLKBPILN-UHFFFAOYSA-N

>  <UN GHS>
Non-irritant

>  <CASRN>
149021-58-9

> <Outcome>
0

>  <Index>
701

>  <StandardizerResult>
Clear Stereo (ID: ClearStereo)
Wedge Clean (ID: WedgeClean)
Mesomerize (ID: Mesomerize)
Tautomerize (ID: Tautomerize)
Add Explicit Hydrogens (ID: AddExplicitH)
Neutralize (ID: Neutralize)
Clean 2D (ID: Clean2D)

> <knn Distance>
2.44948983192444

> <CpId>
701

$$$$
708
  Mrv1532301301811342D          

 56 55  0  0  0  0            999 V2000
    7.2336    5.0013    0.0000 C   0  0  0  0  0  0  0  0  0  0  0  0
    7.9480    5.4138    0.0000 C   0  0  0  0  0  0  0  0  0  0  0  0
    8.6625    5.0013    0.0000 C   0  0  0  0  0  0  0  0  0  0  0  0
    9.3770    5.4138    0.0000 C   0  0  0  0  0  0  0  0  0  0  0  0
   10.0914    5.0013    0.0000 C   0  0  0  0  0  0  0  0  0  0  0  0
   10.8059    5.4138    0.0000 C   0  0  0  0  0  0  0  0  0  0  0  0
   11.5204    5.0013    0.0000 C   0  0  0  0  0  0  0  0  0  0  0  0
   12.2349    5.4138    0.0000 C   0  0  0  0  0  0  0  0  0  0  0  0
   12.9493    5.0013    0.0000 C   0  0  0  0  0  0  0  0  0  0  0  0
   13.6638    5.4138    0.0000 C   0  0  0  0  0  0  0  0  0  0  0  0
   14.3783    5.0013    0.0000 C   0  0  0  0  0  0  0  0  0  0  0  0
   15.0927    5.4138    0.0000 C   0  0  0  0  0  0  0  0  0  0  0  0
   15.8072    5.0013    0.0000 C   0  0  0  0  0  0  0  0  0  0  0  0
   16.5217    5.4138    0.0000 C   0  0  0  0  0  0  0  0  0  0  0  0
   17.2362    5.0013    0.0000 C   0  0  0  0  0  0  0  0  0  0  0  0
   17.9506    5.4138    0.0000 C   0  0  0  0  0  0  0  0  0  0  0  0
   18.6651    5.0013    0.0000 C   0  0  0  0  0  0  0  0  0  0  0  0
   19.3796    5.4138    0.0000 C   0  0  0  0  0  0  0  0  0  0  0  0
    6.8211    5.7158    0.0000 H   0  0  0  0  0  0  0  0  0  0  0  0
    6.5191    4.5888    0.0000 H   0  0  0  0  0  0  0  0  0  0  0  0
    7.6461    4.2868    0.0000 H   0  0  0  0  0  0  0  0  0  0  0  0
    8.3183    6.1510    0.0000 H   0  0  0  0  0  0  0  0  0  0  0  0
    7.5778    6.1510    0.0000 H   0  0  0  0  0  0  0  0  0  0  0  0
    8.2922    4.2641    0.0000 H   0  0  0  0  0  0  0  0  0  0  0  0
    9.0328    4.2641    0.0000 H   0  0  0  0  0  0  0  0  0  0  0  0
    9.7472    6.1510    0.0000 H   0  0  0  0  0  0  0  0  0  0  0  0
    9.0067    6.1510    0.0000 H   0  0  0  0  0  0  0  0  0  0  0  0
    9.7212    4.2641    0.0000 H   0  0  0  0  0  0  0  0  0  0  0  0
   10.4617    4.2641    0.0000 H   0  0  0  0  0  0  0  0  0  0  0  0
   11.1762    6.1510    0.0000 H   0  0  0  0  0  0  0  0  0  0  0  0
   10.4357    6.1510    0.0000 H   0  0  0  0  0  0  0  0  0  0  0  0
   11.1501    4.2641    0.0000 H   0  0  0  0  0  0  0  0  0  0  0  0
   11.8906    4.2641    0.0000 H   0  0  0  0  0  0  0  0  0  0  0  0
   12.6051    6.1510    0.0000 H   0  0  0  0  0  0  0  0  0  0  0  0
   11.8646    6.1510    0.0000 H   0  0  0  0  0  0  0  0  0  0  0  0
   12.5791    4.2641    0.0000 H   0  0  0  0  0  0  0  0  0  0  0  0
   13.3196    4.2641    0.0000 H   0  0  0  0  0  0  0  0  0  0  0  0
   14.0341    6.1510    0.0000 H   0  0  0  0  0  0  0  0  0  0  0  0
   13.2935    6.1510    0.0000 H   0  0  0  0  0  0  0  0  0  0  0  0
   14.0080    4.2641    0.0000 H   0  0  0  0  0  0  0  0  0  0  0  0
   14.7485    4.2641    0.0000 H   0  0  0  0  0  0  0  0  0  0  0  0
   15.4630    6.1510    0.0000 H   0  0  0  0  0  0  0  0  0  0  0  0
   14.7225    6.1510    0.0000 H   0  0  0  0  0  0  0  0  0  0  0  0
   15.4370    4.2641    0.0000 H   0  0  0  0  0  0  0  0  0  0  0  0
   16.1775    4.2641    0.0000 H   0  0  0  0  0  0  0  0  0  0  0  0
   16.8919    6.1510    0.0000 H   0  0  0  0  0  0  0  0  0  0  0  0
   16.1514    6.1510    0.0000 H   0  0  0  0  0  0  0  0  0  0  0  0
   16.8659    4.2641    0.0000 H   0  0  0  0  0  0  0  0  0  0  0  0
   17.6064    4.2641    0.0000 H   0  0  0  0  0  0  0  0  0  0  0  0
   18.3209    6.1510    0.0000 H   0  0  0  0  0  0  0  0  0  0  0  0
   17.5804    6.1510    0.0000 H   0  0  0  0  0  0  0  0  0  0  0  0
   18.2948    4.2641    0.0000 H   0  0  0  0  0  0  0  0  0  0  0  0
   19.0354    4.2641    0.0000 H   0  0  0  0  0  0  0  0  0  0  0  0
   19.7921    4.6993    0.0000 H   0  0  0  0  0  0  0  0  0  0  0  0
   20.0940    5.8263    0.0000 H   0  0  0  0  0  0  0  0  0  0  0  0
   18.9671    6.1283    0.0000 H   0  0  0  0  0  0  0  0  0  0  0  0
  1  2  1  0  0  0  0
  2  3  1  0  0  0  0
  3  4  1  0  0  0  0
  4  5  1  0  0  0  0
  5  6  1  0  0  0  0
  6  7  1  0  0  0  0
  7  8  1  0  0  0  0
  8  9  1  0  0  0  0
  9 10  1  0  0  0  0
 10 11  1  0  0  0  0
 11 12  1  0  0  0  0
 12 13  1  0  0  0  0
 13 14  1  0  0  0  0
 14 15  1  0  0  0  0
 15 16  1  0  0  0  0
 16 17  1  0  0  0  0
 17 18  1  0  0  0  0
  1 19  1  0  0  0  0
  1 20  1  0  0  0  0
  1 21  1  0  0  0  0
  2 22  1  0  0  0  0
  2 23  1  0  0  0  0
  3 24  1  0  0  0  0
  3 25  1  0  0  0  0
  4 26  1  0  0  0  0
  4 27  1  0  0  0  0
  5 28  1  0  0  0  0
  5 29  1  0  0  0  0
  6 30  1  0  0  0  0
  6 31  1  0  0  0  0
  7 32  1  0  0  0  0
  7 33  1  0  0  0  0
  8 34  1  0  0  0  0
  8 35  1  0  0  0  0
  9 36  1  0  0  0  0
  9 37  1  0  0  0  0
 10 38  1  0  0  0  0
 10 39  1  0  0  0  0
 11 40  1  0  0  0  0
 11 41  1  0  0  0  0
 12 42  1  0  0  0  0
 12 43  1  0  0  0  0
 13 44  1  0  0  0  0
 13 45  1  0  0  0  0
 14 46  1  0  0  0  0
 14 47  1  0  0  0  0
 15 48  1  0  0  0  0
 15 49  1  0  0  0  0
 16 50  1  0  0  0  0
 16 51  1  0  0  0  0
 17 52  1  0  0  0  0
 17 53  1  0  0  0  0
 18 54  1  0  0  0  0
 18 55  1  0  0  0  0
 18 56  1  0  0  0  0
M  END
>  <InChIKey>
RZJRJXONCZWCBN-UHFFFAOYSA-N

>  <UN GHS>
Non-irritant

>  <CASRN>
593-45-3

> <Outcome>
0

>  <Index>
708

>  <StandardizerResult>
Clear Stereo (ID: ClearStereo)
Wedge Clean (ID: WedgeClean)
Mesomerize (ID: Mesomerize)
Tautomerize (ID: Tautomerize)
Add Explicit Hydrogens (ID: AddExplicitH)
Neutralize (ID: Neutralize)
Clean 2D (ID: Clean2D)

> <knn Distance>
2.44948983192444

> <CpId>
708

$$$$
710
  Mrv1532301301811342D          

 17 17  0  0  0  0            999 V2000
    0.7145    2.0625    0.0000 C   0  0  0  0  0  0  0  0  0  0  0  0
    0.7145    1.2375    0.0000 C   0  0  0  0  0  0  0  0  0  0  0  0
    1.4289    0.8250    0.0000 C   0  0  0  0  0  0  0  0  0  0  0  0
    1.4289   -0.0000    0.0000 C   0  0  0  0  0  0  0  0  0  0  0  0
    0.7145   -0.4125    0.0000 C   0  0  0  0  0  0  0  0  0  0  0  0
    0.7145   -1.2375    0.0000 N   0  0  0  0  0  0  0  0  0  0  0  0
    0.0000    0.0000    0.0000 C   0  0  0  0  0  0  0  0  0  0  0  0
    0.0000    0.8250    0.0000 C   0  0  0  0  0  0  0  0  0  0  0  0
    1.5395    2.0625    0.0000 H   0  0  0  0  0  0  0  0  0  0  0  0
    0.7145    2.8875    0.0000 H   0  0  0  0  0  0  0  0  0  0  0  0
   -0.1105    2.0625    0.0000 H   0  0  0  0  0  0  0  0  0  0  0  0
    2.1434    1.2375    0.0000 H   0  0  0  0  0  0  0  0  0  0  0  0
    2.1434   -0.4125    0.0000 H   0  0  0  0  0  0  0  0  0  0  0  0
    0.0000   -1.6500    0.0000 H   0  0  0  0  0  0  0  0  0  0  0  0
    1.4289   -1.6500    0.0000 H   0  0  0  0  0  0  0  0  0  0  0  0
   -0.7145   -0.4125    0.0000 H   0  0  0  0  0  0  0  0  0  0  0  0
   -0.7145    1.2375    0.0000 H   0  0  0  0  0  0  0  0  0  0  0  0
  1  2  1  0  0  0  0
  2  3  4  0  0  0  0
  3  4  4  0  0  0  0
  4  5  4  0  0  0  0
  5  6  1  0  0  0  0
  5  7  4  0  0  0  0
  7  8  4  0  0  0  0
  2  8  4  0  0  0  0
  1  9  1  0  0  0  0
  1 10  1  0  0  0  0
  1 11  1  0  0  0  0
  3 12  1  0  0  0  0
  4 13  1  0  0  0  0
  6 14  1  0  0  0  0
  6 15  1  0  0  0  0
  7 16  1  0  0  0  0
  8 17  1  0  0  0  0
M  END
>  <InChIKey>
RZXMPPFPUUCRFN-UHFFFAOYSA-N

>  <UN GHS>
Non-irritant

>  <CASRN>
106-49-0

> <Outcome>
0

>  <Index>
710

>  <StandardizerResult>
Dearomatize (ID: Dearomatize)
Clear Stereo (ID: ClearStereo)
Wedge Clean (ID: WedgeClean)
Mesomerize (ID: Mesomerize)
Tautomerize (ID: Tautomerize)
Aromatize (ID: Aromatize)
Add Explicit Hydrogens (ID: AddExplicitH)
Neutralize (ID: Neutralize)
Clean 2D (ID: Clean2D)

> <knn Distance>
2.44948983192444

> <CpId>
710

$$$$
712
  Mrv1532301301811342D          

104103  0  0  0  0            999 V2000
   17.1288   10.7184    0.0000 C   0  0  0  0  0  0  0  0  0  0  0  0
   17.8432   11.1309    0.0000 C   0  0  0  0  0  0  0  0  0  0  0  0
   18.5577   10.7184    0.0000 C   0  0  0  0  0  0  0  0  0  0  0  0
   19.2722   11.1309    0.0000 C   0  0  0  0  0  0  0  0  0  0  0  0
   19.9867   10.7184    0.0000 C   0  0  0  0  0  0  0  0  0  0  0  0
   20.7011   11.1309    0.0000 C   0  0  0  0  0  0  0  0  0  0  0  0
   21.4156   10.7184    0.0000 C   0  0  0  0  0  0  0  0  0  0  0  0
   22.1301   11.1309    0.0000 C   0  0  0  0  0  0  0  0  0  0  0  0
   22.8445   10.7184    0.0000 C   0  0  0  0  0  0  0  0  0  0  0  0
   23.5590   11.1309    0.0000 C   0  0  0  0  0  0  0  0  0  0  0  0
   24.2735   10.7184    0.0000 C   0  0  0  0  0  0  0  0  0  0  0  0
   24.9880   11.1309    0.0000 C   0  0  0  0  0  0  0  0  0  0  0  0
   25.7024   10.7184    0.0000 C   0  0  0  0  0  0  0  0  0  0  0  0
   26.4169   11.1309    0.0000 C   0  0  0  0  0  0  0  0  0  0  0  0
   27.1314   10.7184    0.0000 C   0  0  0  0  0  0  0  0  0  0  0  0
   27.8458   11.1309    0.0000 C   0  0  0  0  0  0  0  0  0  0  0  0
   27.8458   11.9559    0.0000 O   0  0  0  0  0  0  0  0  0  0  0  0
   28.5603   10.7184    0.0000 O   0  0  0  0  0  0  0  0  0  0  0  0
   29.2748   11.1309    0.0000 C   0  0  0  0  0  0  0  0  0  0  0  0
   29.9893   10.7184    0.0000 C   0  0  0  0  0  0  0  0  0  0  0  0
   30.7037   11.1309    0.0000 C   0  0  0  0  0  0  0  0  0  0  0  0
   31.4182   10.7184    0.0000 C   0  0  0  0  0  0  0  0  0  0  0  0
   32.1327   11.1309    0.0000 C   0  0  0  0  0  0  0  0  0  0  0  0
   32.8471   10.7184    0.0000 C   0  0  0  0  0  0  0  0  0  0  0  0
   33.5616   11.1309    0.0000 C   0  0  0  0  0  0  0  0  0  0  0  0
   34.2761   10.7184    0.0000 C   0  0  0  0  0  0  0  0  0  0  0  0
   34.9906   11.1309    0.0000 C   0  0  0  0  0  0  0  0  0  0  0  0
   35.7050   10.7184    0.0000 C   0  0  0  0  0  0  0  0  0  0  0  0
   36.4195   11.1309    0.0000 C   0  0  0  0  0  0  0  0  0  0  0  0
   37.1340   10.7184    0.0000 C   0  0  0  0  0  0  0  0  0  0  0  0
   37.8484   11.1309    0.0000 C   0  0  0  0  0  0  0  0  0  0  0  0
   38.5629   10.7184    0.0000 C   0  0  0  0  0  0  0  0  0  0  0  0
   39.2774   11.1309    0.0000 C   0  0  0  0  0  0  0  0  0  0  0  0
   39.9918   10.7184    0.0000 C   0  0  0  0  0  0  0  0  0  0  0  0
   40.7063   11.1309    0.0000 C   0  0  0  0  0  0  0  0  0  0  0  0
   39.9918    9.8934    0.0000 C   0  0  0  0  0  0  0  0  0  0  0  0
   16.7163   11.4329    0.0000 H   0  0  0  0  0  0  0  0  0  0  0  0
   16.4143   10.3059    0.0000 H   0  0  0  0  0  0  0  0  0  0  0  0
   17.5413   10.0040    0.0000 H   0  0  0  0  0  0  0  0  0  0  0  0
   18.2135   11.8682    0.0000 H   0  0  0  0  0  0  0  0  0  0  0  0
   17.4730   11.8682    0.0000 H   0  0  0  0  0  0  0  0  0  0  0  0
   18.1875    9.9812    0.0000 H   0  0  0  0  0  0  0  0  0  0  0  0
   18.9280    9.9812    0.0000 H   0  0  0  0  0  0  0  0  0  0  0  0
   19.6425   11.8682    0.0000 H   0  0  0  0  0  0  0  0  0  0  0  0
   18.9019   11.8682    0.0000 H   0  0  0  0  0  0  0  0  0  0  0  0
   19.6164    9.9812    0.0000 H   0  0  0  0  0  0  0  0  0  0  0  0
   20.3569    9.9812    0.0000 H   0  0  0  0  0  0  0  0  0  0  0  0
   21.0714   11.8682    0.0000 H   0  0  0  0  0  0  0  0  0  0  0  0
   20.3309   11.8682    0.0000 H   0  0  0  0  0  0  0  0  0  0  0  0
   21.0453    9.9812    0.0000 H   0  0  0  0  0  0  0  0  0  0  0  0
   21.7859    9.9812    0.0000 H   0  0  0  0  0  0  0  0  0  0  0  0
   22.5003   11.8682    0.0000 H   0  0  0  0  0  0  0  0  0  0  0  0
   21.7598   11.8682    0.0000 H   0  0  0  0  0  0  0  0  0  0  0  0
   22.4743    9.9812    0.0000 H   0  0  0  0  0  0  0  0  0  0  0  0
   23.2148    9.9812    0.0000 H   0  0  0  0  0  0  0  0  0  0  0  0
   23.9293   11.8682    0.0000 H   0  0  0  0  0  0  0  0  0  0  0  0
   23.1888   11.8682    0.0000 H   0  0  0  0  0  0  0  0  0  0  0  0
   23.9032    9.9812    0.0000 H   0  0  0  0  0  0  0  0  0  0  0  0
   24.6437    9.9812    0.0000 H   0  0  0  0  0  0  0  0  0  0  0  0
   25.3582   11.8682    0.0000 H   0  0  0  0  0  0  0  0  0  0  0  0
   24.6177   11.8682    0.0000 H   0  0  0  0  0  0  0  0  0  0  0  0
   25.3322    9.9812    0.0000 H   0  0  0  0  0  0  0  0  0  0  0  0
   26.0727    9.9812    0.0000 H   0  0  0  0  0  0  0  0  0  0  0  0
   26.7872   11.8682    0.0000 H   0  0  0  0  0  0  0  0  0  0  0  0
   26.0466   11.8682    0.0000 H   0  0  0  0  0  0  0  0  0  0  0  0
   26.7611    9.9812    0.0000 H   0  0  0  0  0  0  0  0  0  0  0  0
   27.5016    9.9812    0.0000 H   0  0  0  0  0  0  0  0  0  0  0  0
   29.6450   11.8682    0.0000 H   0  0  0  0  0  0  0  0  0  0  0  0
   28.9045   11.8682    0.0000 H   0  0  0  0  0  0  0  0  0  0  0  0
   29.6190    9.9812    0.0000 H   0  0  0  0  0  0  0  0  0  0  0  0
   30.3595    9.9812    0.0000 H   0  0  0  0  0  0  0  0  0  0  0  0
   31.0740   11.8682    0.0000 H   0  0  0  0  0  0  0  0  0  0  0  0
   30.3335   11.8682    0.0000 H   0  0  0  0  0  0  0  0  0  0  0  0
   31.0479    9.9812    0.0000 H   0  0  0  0  0  0  0  0  0  0  0  0
   31.7885    9.9812    0.0000 H   0  0  0  0  0  0  0  0  0  0  0  0
   32.5029   11.8682    0.0000 H   0  0  0  0  0  0  0  0  0  0  0  0
   31.7624   11.8682    0.0000 H   0  0  0  0  0  0  0  0  0  0  0  0
   32.4769    9.9812    0.0000 H   0  0  0  0  0  0  0  0  0  0  0  0
   33.2174    9.9812    0.0000 H   0  0  0  0  0  0  0  0  0  0  0  0
   33.9319   11.8682    0.0000 H   0  0  0  0  0  0  0  0  0  0  0  0
   33.1914   11.8682    0.0000 H   0  0  0  0  0  0  0  0  0  0  0  0
   33.9058    9.9812    0.0000 H   0  0  0  0  0  0  0  0  0  0  0  0
   34.6463    9.9812    0.0000 H   0  0  0  0  0  0  0  0  0  0  0  0
   35.3608   11.8682    0.0000 H   0  0  0  0  0  0  0  0  0  0  0  0
   34.6203   11.8682    0.0000 H   0  0  0  0  0  0  0  0  0  0  0  0
   35.3348    9.9812    0.0000 H   0  0  0  0  0  0  0  0  0  0  0  0
   36.0753    9.9812    0.0000 H   0  0  0  0  0  0  0  0  0  0  0  0
   36.7898   11.8682    0.0000 H   0  0  0  0  0  0  0  0  0  0  0  0
   36.0492   11.8682    0.0000 H   0  0  0  0  0  0  0  0  0  0  0  0
   36.7637    9.9812    0.0000 H   0  0  0  0  0  0  0  0  0  0  0  0
   37.5042    9.9812    0.0000 H   0  0  0  0  0  0  0  0  0  0  0  0
   38.2187   11.8682    0.0000 H   0  0  0  0  0  0  0  0  0  0  0  0
   37.4782   11.8682    0.0000 H   0  0  0  0  0  0  0  0  0  0  0  0
   38.1926    9.9812    0.0000 H   0  0  0  0  0  0  0  0  0  0  0  0
   38.9332    9.9812    0.0000 H   0  0  0  0  0  0  0  0  0  0  0  0
   39.6476   11.8682    0.0000 H   0  0  0  0  0  0  0  0  0  0  0  0
   38.9071   11.8682    0.0000 H   0  0  0  0  0  0  0  0  0  0  0  0
   39.9918   11.5434    0.0000 H   0  0  0  0  0  0  0  0  0  0  0  0
   40.9198   10.3341    0.0000 H   0  0  0  0  0  0  0  0  0  0  0  0
   41.5313   11.1309    0.0000 H   0  0  0  0  0  0  0  0  0  0  0  0
   40.9198   11.9278    0.0000 H   0  0  0  0  0  0  0  0  0  0  0  0
   39.1668    9.8934    0.0000 H   0  0  0  0  0  0  0  0  0  0  0  0
   39.9918    9.0684    0.0000 H   0  0  0  0  0  0  0  0  0  0  0  0
   40.8168    9.8934    0.0000 H   0  0  0  0  0  0  0  0  0  0  0  0
  1  2  1  0  0  0  0
  2  3  1  0  0  0  0
  3  4  1  0  0  0  0
  4  5  1  0  0  0  0
  5  6  1  0  0  0  0
  6  7  1  0  0  0  0
  7  8  1  0  0  0  0
  8  9  1  0  0  0  0
  9 10  1  0  0  0  0
 10 11  1  0  0  0  0
 11 12  1  0  0  0  0
 12 13  1  0  0  0  0
 13 14  1  0  0  0  0
 14 15  1  0  0  0  0
 15 16  1  0  0  0  0
 16 17  2  0  0  0  0
 16 18  1  0  0  0  0
 18 19  1  0  0  0  0
 19 20  1  0  0  0  0
 20 21  1  0  0  0  0
 21 22  1  0  0  0  0
 22 23  1  0  0  0  0
 23 24  1  0  0  0  0
 24 25  1  0  0  0  0
 25 26  1  0  0  0  0
 26 27  1  0  0  0  0
 27 28  1  0  0  0  0
 28 29  1  0  0  0  0
 29 30  1  0  0  0  0
 30 31  1  0  0  0  0
 31 32  1  0  0  0  0
 32 33  1  0  0  0  0
 33 34  1  0  0  0  0
 34 35  1  0  0  0  0
 34 36  1  0  0  0  0
  1 37  1  0  0  0  0
  1 38  1  0  0  0  0
  1 39  1  0  0  0  0
  2 40  1  0  0  0  0
  2 41  1  0  0  0  0
  3 42  1  0  0  0  0
  3 43  1  0  0  0  0
  4 44  1  0  0  0  0
  4 45  1  0  0  0  0
  5 46  1  0  0  0  0
  5 47  1  0  0  0  0
  6 48  1  0  0  0  0
  6 49  1  0  0  0  0
  7 50  1  0  0  0  0
  7 51  1  0  0  0  0
  8 52  1  0  0  0  0
  8 53  1  0  0  0  0
  9 54  1  0  0  0  0
  9 55  1  0  0  0  0
 10 56  1  0  0  0  0
 10 57  1  0  0  0  0
 11 58  1  0  0  0  0
 11 59  1  0  0  0  0
 12 60  1  0  0  0  0
 12 61  1  0  0  0  0
 13 62  1  0  0  0  0
 13 63  1  0  0  0  0
 14 64  1  0  0  0  0
 14 65  1  0  0  0  0
 15 66  1  0  0  0  0
 15 67  1  0  0  0  0
 19 68  1  0  0  0  0
 19 69  1  0  0  0  0
 20 70  1  0  0  0  0
 20 71  1  0  0  0  0
 21 72  1  0  0  0  0
 21 73  1  0  0  0  0
 22 74  1  0  0  0  0
 22 75  1  0  0  0  0
 23 76  1  0  0  0  0
 23 77  1  0  0  0  0
 24 78  1  0  0  0  0
 24 79  1  0  0  0  0
 25 80  1  0  0  0  0
 25 81  1  0  0  0  0
 26 82  1  0  0  0  0
 26 83  1  0  0  0  0
 27 84  1  0  0  0  0
 27 85  1  0  0  0  0
 28 86  1  0  0  0  0
 28 87  1  0  0  0  0
 29 88  1  0  0  0  0
 29 89  1  0  0  0  0
 30 90  1  0  0  0  0
 30 91  1  0  0  0  0
 31 92  1  0  0  0  0
 31 93  1  0  0  0  0
 32 94  1  0  0  0  0
 32 95  1  0  0  0  0
 33 96  1  0  0  0  0
 33 97  1  0  0  0  0
 34 98  1  0  0  0  0
 35 99  1  0  0  0  0
 35100  1  0  0  0  0
 35101  1  0  0  0  0
 36102  1  0  0  0  0
 36103  1  0  0  0  0
 36104  1  0  0  0  0
M  END
>  <InChIKey>
SAMYFBLRCRWESN-UHFFFAOYSA-N

>  <UN GHS>
Non-irritant

>  <CASRN>
72576-80-8

> <Outcome>
0

>  <Index>
712

>  <StandardizerResult>
Clear Stereo (ID: ClearStereo)
Wedge Clean (ID: WedgeClean)
Mesomerize (ID: Mesomerize)
Tautomerize (ID: Tautomerize)
Add Explicit Hydrogens (ID: AddExplicitH)
Neutralize (ID: Neutralize)
Clean 2D (ID: Clean2D)

> <knn Distance>
2.44948983192444

> <CpId>
712

$$$$
733
  Mrv1532301301811342D          

 26 25  0  0  0  0            999 V2000
    0.1099   -5.3622    0.0000 C   0  0  0  0  0  0  0  0  0  0  0  0
    0.8244   -4.9497    0.0000 C   0  0  0  0  0  0  0  0  0  0  0  0
    0.8244   -4.1247    0.0000 C   0  0  0  0  0  0  0  0  0  0  0  0
    1.6494   -4.1247    0.0000 F   0  0  0  0  0  0  0  0  0  0  0  0
   -0.0006   -4.1247    0.0000 F   0  0  0  0  0  0  0  0  0  0  0  0
    0.8244   -3.2997    0.0000 C   0  0  0  0  0  0  0  0  0  0  0  0
    1.6494   -3.2997    0.0000 F   0  0  0  0  0  0  0  0  0  0  0  0
   -0.0006   -3.2997    0.0000 F   0  0  0  0  0  0  0  0  0  0  0  0
    0.8244   -2.4747    0.0000 C   0  0  0  0  0  0  0  0  0  0  0  0
    1.6494   -2.4747    0.0000 F   0  0  0  0  0  0  0  0  0  0  0  0
   -0.0006   -2.4747    0.0000 F   0  0  0  0  0  0  0  0  0  0  0  0
    0.8244   -1.6497    0.0000 C   0  0  0  0  0  0  0  0  0  0  0  0
    1.6494   -1.6497    0.0000 F   0  0  0  0  0  0  0  0  0  0  0  0
   -0.0006   -1.6497    0.0000 F   0  0  0  0  0  0  0  0  0  0  0  0
    0.8244   -0.8247    0.0000 C   0  0  0  0  0  0  0  0  0  0  0  0
    1.6494   -0.8247    0.0000 F   0  0  0  0  0  0  0  0  0  0  0  0
   -0.0006   -0.8247    0.0000 F   0  0  0  0  0  0  0  0  0  0  0  0
    0.8244    0.0003    0.0000 C   0  0  0  0  0  0  0  0  0  0  0  0
    0.8244    0.8253    0.0000 F   0  0  0  0  0  0  0  0  0  0  0  0
    1.6494    0.0003    0.0000 F   0  0  0  0  0  0  0  0  0  0  0  0
   -0.0006    0.0003    0.0000 F   0  0  0  0  0  0  0  0  0  0  0  0
   -0.3026   -4.6477    0.0000 H   0  0  0  0  0  0  0  0  0  0  0  0
   -0.6045   -5.7747    0.0000 H   0  0  0  0  0  0  0  0  0  0  0  0
    0.5224   -6.0766    0.0000 H   0  0  0  0  0  0  0  0  0  0  0  0
    1.2778   -5.6389    0.0000 H   0  0  0  0  0  0  0  0  0  0  0  0
    1.6480   -4.9976    0.0000 H   0  0  0  0  0  0  0  0  0  0  0  0
  1  2  1  0  0  0  0
  2  3  1  0  0  0  0
  3  4  1  0  0  0  0
  3  5  1  0  0  0  0
  3  6  1  0  0  0  0
  6  7  1  0  0  0  0
  6  8  1  0  0  0  0
  6  9  1  0  0  0  0
  9 10  1  0  0  0  0
  9 11  1  0  0  0  0
  9 12  1  0  0  0  0
 12 13  1  0  0  0  0
 12 14  1  0  0  0  0
 12 15  1  0  0  0  0
 15 16  1  0  0  0  0
 15 17  1  0  0  0  0
 15 18  1  0  0  0  0
 18 19  1  0  0  0  0
 18 20  1  0  0  0  0
 18 21  1  0  0  0  0
  1 22  1  0  0  0  0
  1 23  1  0  0  0  0
  1 24  1  0  0  0  0
  2 25  1  0  0  0  0
  2 26  1  0  0  0  0
M  END
>  <InChIKey>
SKRWRXWNQFQGRU-UHFFFAOYSA-N

>  <UN GHS>
Non-irritant

>  <CASRN>
80793-17-5

> <Outcome>
0

>  <Index>
733

>  <StandardizerResult>
Clear Stereo (ID: ClearStereo)
Wedge Clean (ID: WedgeClean)
Mesomerize (ID: Mesomerize)
Tautomerize (ID: Tautomerize)
Add Explicit Hydrogens (ID: AddExplicitH)
Neutralize (ID: Neutralize)
Clean 2D (ID: Clean2D)

> <knn Distance>
2.44948983192444

> <CpId>
733

$$$$
775
  Mrv1532301301811342D          

  3  2  0  0  0  0            999 V2000
    1.4289    0.8250    0.0000 S   0  0  0  0  0  0  0  0  0  0  0  0
    0.7145    0.4125    0.0000 H   0  0  0  0  0  0  0  0  0  0  0  0
    2.1434    0.4125    0.0000 H   0  0  0  0  0  0  0  0  0  0  0  0
  1  2  1  0  0  0  0
  1  3  1  0  0  0  0
M  END
>  <InChIKey>
UCKMPCXJQFINFW-UHFFFAOYSA-N

>  <UN GHS>
Non-irritant

>  <CASRN>
1345-07-9

> <Outcome>
0

>  <Index>
775

>  <StandardizerResult>
Clear Stereo (ID: ClearStereo)
Mesomerize (ID: Mesomerize)
Tautomerize (ID: Tautomerize)
Add Explicit Hydrogens (ID: AddExplicitH)
Neutralize (ID: Neutralize)
Clean 2D (ID: Clean2D)

> <knn Distance>
2.44948983192444

> <CpId>
775

$$$$
799
  Mrv1532301301811342D          

 28 27  0  0  0  0            999 V2000
    2.2836    2.1428    0.0000 C   0  0  0  0  0  0  0  0  0  0  0  0
    2.9980    2.5553    0.0000 C   0  0  0  0  0  0  0  0  0  0  0  0
    3.7125    2.1428    0.0000 C   0  0  0  0  0  0  0  0  0  0  0  0
    4.4270    2.5553    0.0000 C   0  0  0  0  0  0  0  0  0  0  0  0
    5.1414    2.1428    0.0000 C   0  0  0  0  0  0  0  0  0  0  0  0
    5.8559    2.5553    0.0000 C   0  0  0  0  0  0  0  0  0  0  0  0
    6.5704    2.1428    0.0000 O   0  0  0  0  0  0  0  0  0  0  0  0
    7.2849    2.5553    0.0000 C   0  0  0  0  0  0  0  0  0  0  0  0
    7.9993    2.1428    0.0000 C   0  0  0  0  0  0  0  0  0  0  0  0
    8.7138    2.5553    0.0000 O   0  0  0  0  0  0  0  0  0  0  0  0
    1.8711    2.8572    0.0000 H   0  0  0  0  0  0  0  0  0  0  0  0
    1.5691    1.7303    0.0000 H   0  0  0  0  0  0  0  0  0  0  0  0
    2.6961    1.4283    0.0000 H   0  0  0  0  0  0  0  0  0  0  0  0
    3.3683    3.2925    0.0000 H   0  0  0  0  0  0  0  0  0  0  0  0
    2.6278    3.2925    0.0000 H   0  0  0  0  0  0  0  0  0  0  0  0
    3.3422    1.4055    0.0000 H   0  0  0  0  0  0  0  0  0  0  0  0
    4.0828    1.4055    0.0000 H   0  0  0  0  0  0  0  0  0  0  0  0
    4.7972    3.2925    0.0000 H   0  0  0  0  0  0  0  0  0  0  0  0
    4.0567    3.2925    0.0000 H   0  0  0  0  0  0  0  0  0  0  0  0
    4.7712    1.4055    0.0000 H   0  0  0  0  0  0  0  0  0  0  0  0
    5.5117    1.4055    0.0000 H   0  0  0  0  0  0  0  0  0  0  0  0
    6.2262    3.2925    0.0000 H   0  0  0  0  0  0  0  0  0  0  0  0
    5.4857    3.2925    0.0000 H   0  0  0  0  0  0  0  0  0  0  0  0
    7.6551    3.2925    0.0000 H   0  0  0  0  0  0  0  0  0  0  0  0
    6.9146    3.2925    0.0000 H   0  0  0  0  0  0  0  0  0  0  0  0
    7.6291    1.4055    0.0000 H   0  0  0  0  0  0  0  0  0  0  0  0
    8.3696    1.4055    0.0000 H   0  0  0  0  0  0  0  0  0  0  0  0
    9.4283    2.1428    0.0000 H   0  0  0  0  0  0  0  0  0  0  0  0
  1  2  1  0  0  0  0
  2  3  1  0  0  0  0
  3  4  1  0  0  0  0
  4  5  1  0  0  0  0
  5  6  1  0  0  0  0
  6  7  1  0  0  0  0
  7  8  1  0  0  0  0
  8  9  1  0  0  0  0
  9 10  1  0  0  0  0
  1 11  1  0  0  0  0
  1 12  1  0  0  0  0
  1 13  1  0  0  0  0
  2 14  1  0  0  0  0
  2 15  1  0  0  0  0
  3 16  1  0  0  0  0
  3 17  1  0  0  0  0
  4 18  1  0  0  0  0
  4 19  1  0  0  0  0
  5 20  1  0  0  0  0
  5 21  1  0  0  0  0
  6 22  1  0  0  0  0
  6 23  1  0  0  0  0
  8 24  1  0  0  0  0
  8 25  1  0  0  0  0
  9 26  1  0  0  0  0
  9 27  1  0  0  0  0
 10 28  1  0  0  0  0
M  END
>  <InChIKey>
UPGSWASWQBLSKZ-UHFFFAOYSA-N

>  <UN GHS>
Non-irritant

>  <CASRN>
112-25-4

> <Outcome>
0

>  <Index>
799

>  <StandardizerResult>
Clear Stereo (ID: ClearStereo)
Wedge Clean (ID: WedgeClean)
Mesomerize (ID: Mesomerize)
Tautomerize (ID: Tautomerize)
Add Explicit Hydrogens (ID: AddExplicitH)
Neutralize (ID: Neutralize)
Clean 2D (ID: Clean2D)

> <knn Distance>
2.44948983192444

> <CpId>
799

$$$$
801
  Mrv1532301301811342D          

 41 40  0  0  0  0            999 V2000
    4.7586    3.5724    0.0000 C   0  0  0  0  0  0  0  0  0  0  0  0
    5.4730    3.9849    0.0000 C   0  0  0  0  0  0  0  0  0  0  0  0
    6.1875    3.5724    0.0000 C   0  0  0  0  0  0  0  0  0  0  0  0
    6.9020    3.9849    0.0000 C   0  0  0  0  0  0  0  0  0  0  0  0
    7.6164    3.5724    0.0000 C   0  0  0  0  0  0  0  0  0  0  0  0
    8.3309    3.9849    0.0000 C   0  0  0  0  0  0  0  0  0  0  0  0
    9.0454    3.5724    0.0000 C   0  0  0  0  0  0  0  0  0  0  0  0
    9.7599    3.9849    0.0000 C   0  0  0  0  0  0  0  0  0  0  0  0
   10.4743    3.5724    0.0000 C   0  0  0  0  0  0  0  0  0  0  0  0
   11.1888    3.9849    0.0000 C   0  0  0  0  0  0  0  0  0  0  0  0
   11.9033    3.5724    0.0000 C   0  0  0  0  0  0  0  0  0  0  0  0
   12.6177    3.9849    0.0000 C   0  0  0  0  0  0  0  0  0  0  0  0
   12.6177    4.8099    0.0000 O   0  0  0  0  0  0  0  0  0  0  0  0
   13.3322    3.5724    0.0000 O   0  0  0  0  0  0  0  0  0  0  0  0
   14.0467    3.9849    0.0000 C   0  0  0  0  0  0  0  0  0  0  0  0
    4.3461    4.2869    0.0000 H   0  0  0  0  0  0  0  0  0  0  0  0
    4.0441    3.1599    0.0000 H   0  0  0  0  0  0  0  0  0  0  0  0
    5.1711    2.8579    0.0000 H   0  0  0  0  0  0  0  0  0  0  0  0
    5.8433    4.7221    0.0000 H   0  0  0  0  0  0  0  0  0  0  0  0
    5.1028    4.7221    0.0000 H   0  0  0  0  0  0  0  0  0  0  0  0
    5.8172    2.8352    0.0000 H   0  0  0  0  0  0  0  0  0  0  0  0
    6.5578    2.8352    0.0000 H   0  0  0  0  0  0  0  0  0  0  0  0
    7.2722    4.7221    0.0000 H   0  0  0  0  0  0  0  0  0  0  0  0
    6.5317    4.7221    0.0000 H   0  0  0  0  0  0  0  0  0  0  0  0
    7.2462    2.8352    0.0000 H   0  0  0  0  0  0  0  0  0  0  0  0
    7.9867    2.8352    0.0000 H   0  0  0  0  0  0  0  0  0  0  0  0
    8.7012    4.7221    0.0000 H   0  0  0  0  0  0  0  0  0  0  0  0
    7.9607    4.7221    0.0000 H   0  0  0  0  0  0  0  0  0  0  0  0
    8.6751    2.8352    0.0000 H   0  0  0  0  0  0  0  0  0  0  0  0
    9.4156    2.8352    0.0000 H   0  0  0  0  0  0  0  0  0  0  0  0
   10.1301    4.7221    0.0000 H   0  0  0  0  0  0  0  0  0  0  0  0
    9.3896    4.7221    0.0000 H   0  0  0  0  0  0  0  0  0  0  0  0
   10.1041    2.8352    0.0000 H   0  0  0  0  0  0  0  0  0  0  0  0
   10.8446    2.8352    0.0000 H   0  0  0  0  0  0  0  0  0  0  0  0
   11.5591    4.7221    0.0000 H   0  0  0  0  0  0  0  0  0  0  0  0
   10.8185    4.7221    0.0000 H   0  0  0  0  0  0  0  0  0  0  0  0
   11.5330    2.8352    0.0000 H   0  0  0  0  0  0  0  0  0  0  0  0
   12.2735    2.8352    0.0000 H   0  0  0  0  0  0  0  0  0  0  0  0
   14.4592    3.2704    0.0000 H   0  0  0  0  0  0  0  0  0  0  0  0
   14.7612    4.3974    0.0000 H   0  0  0  0  0  0  0  0  0  0  0  0
   13.6342    4.6994    0.0000 H   0  0  0  0  0  0  0  0  0  0  0  0
  1  2  1  0  0  0  0
  2  3  1  0  0  0  0
  3  4  1  0  0  0  0
  4  5  1  0  0  0  0
  5  6  1  0  0  0  0
  6  7  1  0  0  0  0
  7  8  1  0  0  0  0
  8  9  1  0  0  0  0
  9 10  1  0  0  0  0
 10 11  1  0  0  0  0
 11 12  1  0  0  0  0
 12 13  2  0  0  0  0
 12 14  1  0  0  0  0
 14 15  1  0  0  0  0
  1 16  1  0  0  0  0
  1 17  1  0  0  0  0
  1 18  1  0  0  0  0
  2 19  1  0  0  0  0
  2 20  1  0  0  0  0
  3 21  1  0  0  0  0
  3 22  1  0  0  0  0
  4 23  1  0  0  0  0
  4 24  1  0  0  0  0
  5 25  1  0  0  0  0
  5 26  1  0  0  0  0
  6 27  1  0  0  0  0
  6 28  1  0  0  0  0
  7 29  1  0  0  0  0
  7 30  1  0  0  0  0
  8 31  1  0  0  0  0
  8 32  1  0  0  0  0
  9 33  1  0  0  0  0
  9 34  1  0  0  0  0
 10 35  1  0  0  0  0
 10 36  1  0  0  0  0
 11 37  1  0  0  0  0
 11 38  1  0  0  0  0
 15 39  1  0  0  0  0
 15 40  1  0  0  0  0
 15 41  1  0  0  0  0
M  END
>  <InChIKey>
UQDUPQYQJKYHQI-UHFFFAOYSA-N

>  <UN GHS>
Non-irritant

>  <CASRN>
111-82-0

> <Outcome>
0

>  <Index>
801

>  <StandardizerResult>
Clear Stereo (ID: ClearStereo)
Wedge Clean (ID: WedgeClean)
Mesomerize (ID: Mesomerize)
Tautomerize (ID: Tautomerize)
Add Explicit Hydrogens (ID: AddExplicitH)
Neutralize (ID: Neutralize)
Clean 2D (ID: Clean2D)

> <knn Distance>
2.44948983192444

> <CpId>
801

$$$$
825
  Mrv1532301301811342D          

 14 13  0  0  0  0            999 V2000
    2.4744   -1.4300    0.0000 C   0  0  0  0  0  0  0  0  0  0  0  0
    2.0619   -0.7156    0.0000 C   0  0  0  0  0  0  0  0  0  0  0  0
    1.2369   -0.7156    0.0000 C   0  0  0  0  0  0  0  0  0  0  0  0
    0.8244   -0.0011    0.0000 C   0  0  0  0  0  0  0  0  0  0  0  0
   -0.0006   -0.0011    0.0000 Cl  0  0  0  0  0  0  0  0  0  0  0  0
    1.7599   -1.8425    0.0000 H   0  0  0  0  0  0  0  0  0  0  0  0
    2.8869   -2.1445    0.0000 H   0  0  0  0  0  0  0  0  0  0  0  0
    3.1888   -1.0175    0.0000 H   0  0  0  0  0  0  0  0  0  0  0  0
    2.7511   -0.2622    0.0000 H   0  0  0  0  0  0  0  0  0  0  0  0
    2.1098    0.1080    0.0000 H   0  0  0  0  0  0  0  0  0  0  0  0
    0.5476   -1.1689    0.0000 H   0  0  0  0  0  0  0  0  0  0  0  0
    1.1889   -1.5392    0.0000 H   0  0  0  0  0  0  0  0  0  0  0  0
    1.5136    0.4523    0.0000 H   0  0  0  0  0  0  0  0  0  0  0  0
    0.8723    0.8225    0.0000 H   0  0  0  0  0  0  0  0  0  0  0  0
  1  2  1  0  0  0  0
  2  3  1  0  0  0  0
  3  4  1  0  0  0  0
  4  5  1  0  0  0  0
  1  6  1  0  0  0  0
  1  7  1  0  0  0  0
  1  8  1  0  0  0  0
  2  9  1  0  0  0  0
  2 10  1  0  0  0  0
  3 11  1  0  0  0  0
  3 12  1  0  0  0  0
  4 13  1  0  0  0  0
  4 14  1  0  0  0  0
M  END
>  <InChIKey>
VFWCMGCRMGJXDK-UHFFFAOYSA-N

>  <UN GHS>
Non-irritant

>  <CASRN>
109-69-3

> <Outcome>
0

>  <Index>
825

>  <StandardizerResult>
Clear Stereo (ID: ClearStereo)
Wedge Clean (ID: WedgeClean)
Mesomerize (ID: Mesomerize)
Tautomerize (ID: Tautomerize)
Add Explicit Hydrogens (ID: AddExplicitH)
Neutralize (ID: Neutralize)
Clean 2D (ID: Clean2D)

> <knn Distance>
2.44948983192444

> <CpId>
825

$$$$
829
  Mrv1532301301811342D          

 80 79  0  0  0  0            999 V2000
   10.9100    7.1537    0.0000 C   0  0  0  0  0  0  0  0  0  0  0  0
   11.6245    7.5662    0.0000 C   0  0  0  0  0  0  0  0  0  0  0  0
   12.3389    7.1537    0.0000 C   0  0  0  0  0  0  0  0  0  0  0  0
   13.0534    7.5662    0.0000 C   0  0  0  0  0  0  0  0  0  0  0  0
   13.7679    7.1537    0.0000 C   0  0  0  0  0  0  0  0  0  0  0  0
   13.7679    6.3287    0.0000 C   0  0  0  0  0  0  0  0  0  0  0  0
   14.4823    5.9162    0.0000 C   0  0  0  0  0  0  0  0  0  0  0  0
   14.4823    7.5662    0.0000 C   0  0  0  0  0  0  0  0  0  0  0  0
   15.1968    7.1537    0.0000 O   0  0  0  0  0  0  0  0  0  0  0  0
   15.9113    7.5662    0.0000 C   0  0  0  0  0  0  0  0  0  0  0  0
   15.9113    8.3912    0.0000 O   0  0  0  0  0  0  0  0  0  0  0  0
   16.6257    7.1537    0.0000 C   0  0  0  0  0  0  0  0  0  0  0  0
   17.3402    7.5662    0.0000 C   0  0  0  0  0  0  0  0  0  0  0  0
   18.0547    7.1537    0.0000 C   0  0  0  0  0  0  0  0  0  0  0  0
   18.7692    7.5662    0.0000 C   0  0  0  0  0  0  0  0  0  0  0  0
   19.4836    7.1537    0.0000 C   0  0  0  0  0  0  0  0  0  0  0  0
   20.1981    7.5662    0.0000 C   0  0  0  0  0  0  0  0  0  0  0  0
   20.9126    7.1537    0.0000 C   0  0  0  0  0  0  0  0  0  0  0  0
   21.6270    7.5662    0.0000 C   0  0  0  0  0  0  0  0  0  0  0  0
   22.3415    7.1537    0.0000 C   0  0  0  0  0  0  0  0  0  0  0  0
   22.3415    6.3287    0.0000 O   0  0  0  0  0  0  0  0  0  0  0  0
   23.0560    7.5662    0.0000 O   0  0  0  0  0  0  0  0  0  0  0  0
   23.7705    7.1537    0.0000 C   0  0  0  0  0  0  0  0  0  0  0  0
   24.4849    7.5662    0.0000 C   0  0  0  0  0  0  0  0  0  0  0  0
   24.4849    8.3912    0.0000 C   0  0  0  0  0  0  0  0  0  0  0  0
   25.1994    8.8037    0.0000 C   0  0  0  0  0  0  0  0  0  0  0  0
   25.1994    7.1537    0.0000 C   0  0  0  0  0  0  0  0  0  0  0  0
   25.9139    7.5662    0.0000 C   0  0  0  0  0  0  0  0  0  0  0  0
   26.6283    7.1537    0.0000 C   0  0  0  0  0  0  0  0  0  0  0  0
   27.3428    7.5662    0.0000 C   0  0  0  0  0  0  0  0  0  0  0  0
   10.4975    7.8682    0.0000 H   0  0  0  0  0  0  0  0  0  0  0  0
   10.1955    6.7412    0.0000 H   0  0  0  0  0  0  0  0  0  0  0  0
   11.3225    6.4392    0.0000 H   0  0  0  0  0  0  0  0  0  0  0  0
   11.9947    8.3034    0.0000 H   0  0  0  0  0  0  0  0  0  0  0  0
   11.2542    8.3034    0.0000 H   0  0  0  0  0  0  0  0  0  0  0  0
   11.9687    6.4164    0.0000 H   0  0  0  0  0  0  0  0  0  0  0  0
   12.7092    6.4164    0.0000 H   0  0  0  0  0  0  0  0  0  0  0  0
   13.4237    8.3034    0.0000 H   0  0  0  0  0  0  0  0  0  0  0  0
   12.6831    8.3034    0.0000 H   0  0  0  0  0  0  0  0  0  0  0  0
   13.0534    6.7412    0.0000 H   0  0  0  0  0  0  0  0  0  0  0  0
   13.1359    5.7984    0.0000 H   0  0  0  0  0  0  0  0  0  0  0  0
   13.6246    5.5162    0.0000 H   0  0  0  0  0  0  0  0  0  0  0  0
   14.6433    5.1070    0.0000 H   0  0  0  0  0  0  0  0  0  0  0  0
   15.3065    5.8802    0.0000 H   0  0  0  0  0  0  0  0  0  0  0  0
   14.7132    6.7082    0.0000 H   0  0  0  0  0  0  0  0  0  0  0  0
   14.8526    8.3034    0.0000 H   0  0  0  0  0  0  0  0  0  0  0  0
   14.1121    8.3034    0.0000 H   0  0  0  0  0  0  0  0  0  0  0  0
   16.2555    6.4164    0.0000 H   0  0  0  0  0  0  0  0  0  0  0  0
   16.9960    6.4164    0.0000 H   0  0  0  0  0  0  0  0  0  0  0  0
   17.7105    8.3034    0.0000 H   0  0  0  0  0  0  0  0  0  0  0  0
   16.9700    8.3034    0.0000 H   0  0  0  0  0  0  0  0  0  0  0  0
   17.6844    6.4164    0.0000 H   0  0  0  0  0  0  0  0  0  0  0  0
   18.4249    6.4164    0.0000 H   0  0  0  0  0  0  0  0  0  0  0  0
   19.1394    8.3034    0.0000 H   0  0  0  0  0  0  0  0  0  0  0  0
   18.3989    8.3034    0.0000 H   0  0  0  0  0  0  0  0  0  0  0  0
   19.1134    6.4164    0.0000 H   0  0  0  0  0  0  0  0  0  0  0  0
   19.8539    6.4164    0.0000 H   0  0  0  0  0  0  0  0  0  0  0  0
   20.5684    8.3034    0.0000 H   0  0  0  0  0  0  0  0  0  0  0  0
   19.8278    8.3034    0.0000 H   0  0  0  0  0  0  0  0  0  0  0  0
   20.5423    6.4164    0.0000 H   0  0  0  0  0  0  0  0  0  0  0  0
   21.2828    6.4164    0.0000 H   0  0  0  0  0  0  0  0  0  0  0  0
   21.9973    8.3034    0.0000 H   0  0  0  0  0  0  0  0  0  0  0  0
   21.2568    8.3034    0.0000 H   0  0  0  0  0  0  0  0  0  0  0  0
   23.4002    6.4164    0.0000 H   0  0  0  0  0  0  0  0  0  0  0  0
   24.1407    6.4164    0.0000 H   0  0  0  0  0  0  0  0  0  0  0  0
   23.7705    7.9787    0.0000 H   0  0  0  0  0  0  0  0  0  0  0  0
   24.3417    9.2037    0.0000 H   0  0  0  0  0  0  0  0  0  0  0  0
   23.8529    8.9215    0.0000 H   0  0  0  0  0  0  0  0  0  0  0  0
   25.4303    8.0117    0.0000 H   0  0  0  0  0  0  0  0  0  0  0  0
   26.0236    8.8397    0.0000 H   0  0  0  0  0  0  0  0  0  0  0  0
   25.3603    9.6128    0.0000 H   0  0  0  0  0  0  0  0  0  0  0  0
   24.8291    6.4164    0.0000 H   0  0  0  0  0  0  0  0  0  0  0  0
   25.5697    6.4164    0.0000 H   0  0  0  0  0  0  0  0  0  0  0  0
   26.4026    8.2309    0.0000 H   0  0  0  0  0  0  0  0  0  0  0  0
   25.9139    6.7412    0.0000 H   0  0  0  0  0  0  0  0  0  0  0  0
   26.7716    6.3412    0.0000 H   0  0  0  0  0  0  0  0  0  0  0  0
   27.2603    6.6234    0.0000 H   0  0  0  0  0  0  0  0  0  0  0  0
   28.1240    7.3010    0.0000 H   0  0  0  0  0  0  0  0  0  0  0  0
   27.7861    8.2620    0.0000 H   0  0  0  0  0  0  0  0  0  0  0  0
   26.7723    8.1621    0.0000 H   0  0  0  0  0  0  0  0  0  0  0  0
  1  2  1  0  0  0  0
  2  3  1  0  0  0  0
  3  4  1  0  0  0  0
  4  5  1  0  0  0  0
  5  6  1  0  0  0  0
  6  7  1  0  0  0  0
  5  8  1  0  0  0  0
  8  9  1  0  0  0  0
  9 10  1  0  0  0  0
 10 11  2  0  0  0  0
 10 12  1  0  0  0  0
 12 13  1  0  0  0  0
 13 14  1  0  0  0  0
 14 15  1  0  0  0  0
 15 16  1  0  0  0  0
 16 17  1  0  0  0  0
 17 18  1  0  0  0  0
 18 19  1  0  0  0  0
 19 20  1  0  0  0  0
 20 21  2  0  0  0  0
 20 22  1  0  0  0  0
 22 23  1  0  0  0  0
 23 24  1  0  0  0  0
 24 25  1  0  0  0  0
 25 26  1  0  0  0  0
 24 27  1  0  0  0  0
 27 28  1  0  0  0  0
 28 29  1  0  0  0  0
 29 30  1  0  0  0  0
  1 31  1  0  0  0  0
  1 32  1  0  0  0  0
  1 33  1  0  0  0  0
  2 34  1  0  0  0  0
  2 35  1  0  0  0  0
  3 36  1  0  0  0  0
  3 37  1  0  0  0  0
  4 38  1  0  0  0  0
  4 39  1  0  0  0  0
  5 40  1  0  0  0  0
  6 41  1  0  0  0  0
  6 42  1  0  0  0  0
  7 43  1  0  0  0  0
  7 44  1  0  0  0  0
  7 45  1  0  0  0  0
  8 46  1  0  0  0  0
  8 47  1  0  0  0  0
 12 48  1  0  0  0  0
 12 49  1  0  0  0  0
 13 50  1  0  0  0  0
 13 51  1  0  0  0  0
 14 52  1  0  0  0  0
 14 53  1  0  0  0  0
 15 54  1  0  0  0  0
 15 55  1  0  0  0  0
 16 56  1  0  0  0  0
 16 57  1  0  0  0  0
 17 58  1  0  0  0  0
 17 59  1  0  0  0  0
 18 60  1  0  0  0  0
 18 61  1  0  0  0  0
 19 62  1  0  0  0  0
 19 63  1  0  0  0  0
 23 64  1  0  0  0  0
 23 65  1  0  0  0  0
 24 66  1  0  0  0  0
 25 67  1  0  0  0  0
 25 68  1  0  0  0  0
 26 69  1  0  0  0  0
 26 70  1  0  0  0  0
 26 71  1  0  0  0  0
 27 72  1  0  0  0  0
 27 73  1  0  0  0  0
 28 74  1  0  0  0  0
 28 75  1  0  0  0  0
 29 76  1  0  0  0  0
 29 77  1  0  0  0  0
 30 78  1  0  0  0  0
 30 79  1  0  0  0  0
 30 80  1  0  0  0  0
M  END
>  <InChIKey>
VJHINFRRDQUWOJ-UHFFFAOYSA-N

>  <UN GHS>
Non-irritant

>  <CASRN>
122-62-3

> <Outcome>
0

>  <Index>
829

>  <StandardizerResult>
Clear Stereo (ID: ClearStereo)
Wedge Clean (ID: WedgeClean)
Mesomerize (ID: Mesomerize)
Tautomerize (ID: Tautomerize)
Add Explicit Hydrogens (ID: AddExplicitH)
Neutralize (ID: Neutralize)
Clean 2D (ID: Clean2D)

> <knn Distance>
2.44948983192444

> <CpId>
829

$$$$
832
  Mrv1532301301811342D          

 20 19  0  0  0  0            999 V2000
   -0.1914    0.7145    0.0000 C   0  0  0  0  0  0  0  0  0  0  0  0
    0.5230    1.1270    0.0000 C   0  0  0  0  0  0  0  0  0  0  0  0
    1.2375    0.7145    0.0000 C   0  0  0  0  0  0  0  0  0  0  0  0
    1.9520    1.1270    0.0000 C   0  0  0  0  0  0  0  0  0  0  0  0
    2.6664    0.7145    0.0000 C   0  0  0  0  0  0  0  0  0  0  0  0
    3.3809    1.1270    0.0000 C   0  0  0  0  0  0  0  0  0  0  0  0
   -0.6039    1.4290    0.0000 H   0  0  0  0  0  0  0  0  0  0  0  0
   -0.9059    0.3020    0.0000 H   0  0  0  0  0  0  0  0  0  0  0  0
    0.2211    0.0000    0.0000 H   0  0  0  0  0  0  0  0  0  0  0  0
    0.8933    1.8642    0.0000 H   0  0  0  0  0  0  0  0  0  0  0  0
    0.1528    1.8642    0.0000 H   0  0  0  0  0  0  0  0  0  0  0  0
    0.8672   -0.0227    0.0000 H   0  0  0  0  0  0  0  0  0  0  0  0
    1.6078   -0.0227    0.0000 H   0  0  0  0  0  0  0  0  0  0  0  0
    2.3222    1.8642    0.0000 H   0  0  0  0  0  0  0  0  0  0  0  0
    1.5817    1.8642    0.0000 H   0  0  0  0  0  0  0  0  0  0  0  0
    2.2962   -0.0227    0.0000 H   0  0  0  0  0  0  0  0  0  0  0  0
    3.0367   -0.0227    0.0000 H   0  0  0  0  0  0  0  0  0  0  0  0
    3.7934    0.4125    0.0000 H   0  0  0  0  0  0  0  0  0  0  0  0
    4.0954    1.5395    0.0000 H   0  0  0  0  0  0  0  0  0  0  0  0
    2.9684    1.8415    0.0000 H   0  0  0  0  0  0  0  0  0  0  0  0
  1  2  1  0  0  0  0
  2  3  1  0  0  0  0
  3  4  1  0  0  0  0
  4  5  1  0  0  0  0
  5  6  1  0  0  0  0
  1  7  1  0  0  0  0
  1  8  1  0  0  0  0
  1  9  1  0  0  0  0
  2 10  1  0  0  0  0
  2 11  1  0  0  0  0
  3 12  1  0  0  0  0
  3 13  1  0  0  0  0
  4 14  1  0  0  0  0
  4 15  1  0  0  0  0
  5 16  1  0  0  0  0
  5 17  1  0  0  0  0
  6 18  1  0  0  0  0
  6 19  1  0  0  0  0
  6 20  1  0  0  0  0
M  END
>  <InChIKey>
VLKZOEOYAKHREP-UHFFFAOYSA-N

>  <UN GHS>
Non-irritant

>  <CASRN>
64742-82-1

> <Outcome>
0

>  <Index>
832

>  <StandardizerResult>
Clear Stereo (ID: ClearStereo)
Wedge Clean (ID: WedgeClean)
Mesomerize (ID: Mesomerize)
Tautomerize (ID: Tautomerize)
Add Explicit Hydrogens (ID: AddExplicitH)
Neutralize (ID: Neutralize)
Clean 2D (ID: Clean2D)

> <knn Distance>
2.44948983192444

> <CpId>
832

$$$$
846
  Mrv1532301301811342D          

 12 11  0  0  0  0            999 V2000
    2.0632   -0.7132    0.0000 C   0  0  0  0  0  0  0  0  0  0  0  0
    1.2382   -0.7132    0.0000 C   0  0  0  0  0  0  0  0  0  0  0  0
    0.8257    0.0013    0.0000 C   0  0  0  0  0  0  0  0  0  0  0  0
    0.0007    0.0013    0.0000 C   0  0  0  0  0  0  0  0  0  0  0  0
    2.0632   -1.5382    0.0000 H   0  0  0  0  0  0  0  0  0  0  0  0
    2.8882   -0.7132    0.0000 H   0  0  0  0  0  0  0  0  0  0  0  0
    2.0632    0.1118    0.0000 H   0  0  0  0  0  0  0  0  0  0  0  0
    0.5490   -1.1666    0.0000 H   0  0  0  0  0  0  0  0  0  0  0  0
    1.1903   -1.5368    0.0000 H   0  0  0  0  0  0  0  0  0  0  0  0
    1.2382    0.7157    0.0000 H   0  0  0  0  0  0  0  0  0  0  0  0
   -0.4118    0.7157    0.0000 H   0  0  0  0  0  0  0  0  0  0  0  0
   -0.4118   -0.7132    0.0000 H   0  0  0  0  0  0  0  0  0  0  0  0
  1  2  1  0  0  0  0
  2  3  1  0  0  0  0
  3  4  2  0  0  0  0
  1  5  1  0  0  0  0
  1  6  1  0  0  0  0
  1  7  1  0  0  0  0
  2  8  1  0  0  0  0
  2  9  1  0  0  0  0
  3 10  1  0  0  0  0
  4 11  1  0  0  0  0
  4 12  1  0  0  0  0
M  END
>  <InChIKey>
VXNZUUAINFGPBY-UHFFFAOYSA-N

>  <UN GHS>
Non-irritant

>  <CASRN>
9003-29-6

> <Outcome>
0

>  <Index>
846

>  <StandardizerResult>
Clear Stereo (ID: ClearStereo)
Wedge Clean (ID: WedgeClean)
Mesomerize (ID: Mesomerize)
Tautomerize (ID: Tautomerize)
Add Explicit Hydrogens (ID: AddExplicitH)
Neutralize (ID: Neutralize)
Clean 2D (ID: Clean2D)

> <knn Distance>
2.44948983192444

> <CpId>
846

$$$$
868
  Mrv1532301301811342D          

 62 61  0  0  0  0            999 V2000
    7.1870    5.0129    0.0000 C   0  0  0  0  0  0  0  0  0  0  0  0
    7.9015    5.4254    0.0000 C   0  0  0  0  0  0  0  0  0  0  0  0
    8.6160    5.0129    0.0000 C   0  0  0  0  0  0  0  0  0  0  0  0
    9.3304    5.4254    0.0000 C   0  0  0  0  0  0  0  0  0  0  0  0
   10.0449    5.0129    0.0000 C   0  0  0  0  0  0  0  0  0  0  0  0
   10.0449    4.1879    0.0000 C   0  0  0  0  0  0  0  0  0  0  0  0
   10.7594    3.7754    0.0000 C   0  0  0  0  0  0  0  0  0  0  0  0
   10.7594    5.4254    0.0000 C   0  0  0  0  0  0  0  0  0  0  0  0
   11.4738    5.0129    0.0000 O   0  0  0  0  0  0  0  0  0  0  0  0
   12.1883    5.4254    0.0000 C   0  0  0  0  0  0  0  0  0  0  0  0
   12.1883    6.2504    0.0000 O   0  0  0  0  0  0  0  0  0  0  0  0
   12.9028    5.0129    0.0000 C   0  0  0  0  0  0  0  0  0  0  0  0
   13.6173    5.4254    0.0000 C   0  0  0  0  0  0  0  0  0  0  0  0
   14.3317    5.0129    0.0000 C   0  0  0  0  0  0  0  0  0  0  0  0
   14.3317    4.1879    0.0000 O   0  0  0  0  0  0  0  0  0  0  0  0
   15.0462    5.4254    0.0000 O   0  0  0  0  0  0  0  0  0  0  0  0
   15.7607    5.0129    0.0000 C   0  0  0  0  0  0  0  0  0  0  0  0
   16.4751    5.4254    0.0000 C   0  0  0  0  0  0  0  0  0  0  0  0
   16.4751    6.2504    0.0000 C   0  0  0  0  0  0  0  0  0  0  0  0
   17.1896    6.6629    0.0000 C   0  0  0  0  0  0  0  0  0  0  0  0
   17.1896    5.0129    0.0000 C   0  0  0  0  0  0  0  0  0  0  0  0
   17.9041    5.4254    0.0000 C   0  0  0  0  0  0  0  0  0  0  0  0
   18.6186    5.0129    0.0000 C   0  0  0  0  0  0  0  0  0  0  0  0
   19.3330    5.4254    0.0000 C   0  0  0  0  0  0  0  0  0  0  0  0
    6.7745    5.7274    0.0000 H   0  0  0  0  0  0  0  0  0  0  0  0
    6.4725    4.6004    0.0000 H   0  0  0  0  0  0  0  0  0  0  0  0
    7.5995    4.2984    0.0000 H   0  0  0  0  0  0  0  0  0  0  0  0
    8.2717    6.1627    0.0000 H   0  0  0  0  0  0  0  0  0  0  0  0
    7.5312    6.1627    0.0000 H   0  0  0  0  0  0  0  0  0  0  0  0
    8.2457    4.2757    0.0000 H   0  0  0  0  0  0  0  0  0  0  0  0
    8.9862    4.2757    0.0000 H   0  0  0  0  0  0  0  0  0  0  0  0
    9.7007    6.1627    0.0000 H   0  0  0  0  0  0  0  0  0  0  0  0
    8.9602    6.1627    0.0000 H   0  0  0  0  0  0  0  0  0  0  0  0
    9.3304    4.6004    0.0000 H   0  0  0  0  0  0  0  0  0  0  0  0
    9.4129    3.6576    0.0000 H   0  0  0  0  0  0  0  0  0  0  0  0
    9.9016    3.3754    0.0000 H   0  0  0  0  0  0  0  0  0  0  0  0
   10.9203    2.9663    0.0000 H   0  0  0  0  0  0  0  0  0  0  0  0
   11.5836    3.7394    0.0000 H   0  0  0  0  0  0  0  0  0  0  0  0
   10.9902    4.5674    0.0000 H   0  0  0  0  0  0  0  0  0  0  0  0
   11.1296    6.1627    0.0000 H   0  0  0  0  0  0  0  0  0  0  0  0
   10.3891    6.1627    0.0000 H   0  0  0  0  0  0  0  0  0  0  0  0
   12.5325    4.2757    0.0000 H   0  0  0  0  0  0  0  0  0  0  0  0
   13.2730    4.2757    0.0000 H   0  0  0  0  0  0  0  0  0  0  0  0
   13.9875    6.1627    0.0000 H   0  0  0  0  0  0  0  0  0  0  0  0
   13.2470    6.1627    0.0000 H   0  0  0  0  0  0  0  0  0  0  0  0
   15.3904    4.2757    0.0000 H   0  0  0  0  0  0  0  0  0  0  0  0
   16.1309    4.2757    0.0000 H   0  0  0  0  0  0  0  0  0  0  0  0
   15.7607    5.8379    0.0000 H   0  0  0  0  0  0  0  0  0  0  0  0
   16.3319    7.0629    0.0000 H   0  0  0  0  0  0  0  0  0  0  0  0
   15.8432    6.7807    0.0000 H   0  0  0  0  0  0  0  0  0  0  0  0
   17.4205    5.8709    0.0000 H   0  0  0  0  0  0  0  0  0  0  0  0
   18.0138    6.6989    0.0000 H   0  0  0  0  0  0  0  0  0  0  0  0
   17.3506    7.4721    0.0000 H   0  0  0  0  0  0  0  0  0  0  0  0
   16.8193    4.2757    0.0000 H   0  0  0  0  0  0  0  0  0  0  0  0
   17.5599    4.2757    0.0000 H   0  0  0  0  0  0  0  0  0  0  0  0
   18.3928    6.0901    0.0000 H   0  0  0  0  0  0  0  0  0  0  0  0
   17.9041    4.6004    0.0000 H   0  0  0  0  0  0  0  0  0  0  0  0
   18.7618    4.2004    0.0000 H   0  0  0  0  0  0  0  0  0  0  0  0
   19.2505    4.4826    0.0000 H   0  0  0  0  0  0  0  0  0  0  0  0
   20.1142    5.1602    0.0000 H   0  0  0  0  0  0  0  0  0  0  0  0
   19.7763    6.1212    0.0000 H   0  0  0  0  0  0  0  0  0  0  0  0
   18.7625    6.0214    0.0000 H   0  0  0  0  0  0  0  0  0  0  0  0
  1  2  1  0  0  0  0
  2  3  1  0  0  0  0
  3  4  1  0  0  0  0
  4  5  1  0  0  0  0
  5  6  1  0  0  0  0
  6  7  1  0  0  0  0
  5  8  1  0  0  0  0
  8  9  1  0  0  0  0
  9 10  1  0  0  0  0
 10 11  2  0  0  0  0
 10 12  1  0  0  0  0
 12 13  1  0  0  0  0
 13 14  1  0  0  0  0
 14 15  2  0  0  0  0
 14 16  1  0  0  0  0
 16 17  1  0  0  0  0
 17 18  1  0  0  0  0
 18 19  1  0  0  0  0
 19 20  1  0  0  0  0
 18 21  1  0  0  0  0
 21 22  1  0  0  0  0
 22 23  1  0  0  0  0
 23 24  1  0  0  0  0
  1 25  1  0  0  0  0
  1 26  1  0  0  0  0
  1 27  1  0  0  0  0
  2 28  1  0  0  0  0
  2 29  1  0  0  0  0
  3 30  1  0  0  0  0
  3 31  1  0  0  0  0
  4 32  1  0  0  0  0
  4 33  1  0  0  0  0
  5 34  1  0  0  0  0
  6 35  1  0  0  0  0
  6 36  1  0  0  0  0
  7 37  1  0  0  0  0
  7 38  1  0  0  0  0
  7 39  1  0  0  0  0
  8 40  1  0  0  0  0
  8 41  1  0  0  0  0
 12 42  1  0  0  0  0
 12 43  1  0  0  0  0
 13 44  1  0  0  0  0
 13 45  1  0  0  0  0
 17 46  1  0  0  0  0
 17 47  1  0  0  0  0
 18 48  1  0  0  0  0
 19 49  1  0  0  0  0
 19 50  1  0  0  0  0
 20 51  1  0  0  0  0
 20 52  1  0  0  0  0
 20 53  1  0  0  0  0
 21 54  1  0  0  0  0
 21 55  1  0  0  0  0
 22 56  1  0  0  0  0
 22 57  1  0  0  0  0
 23 58  1  0  0  0  0
 23 59  1  0  0  0  0
 24 60  1  0  0  0  0
 24 61  1  0  0  0  0
 24 62  1  0  0  0  0
M  END
>  <InChIKey>
WMNULTDOANGXRT-UHFFFAOYSA-N

>  <UN GHS>
Non-irritant

>  <CASRN>
2915-57-3

> <Outcome>
0

>  <Index>
868

>  <StandardizerResult>
Clear Stereo (ID: ClearStereo)
Wedge Clean (ID: WedgeClean)
Mesomerize (ID: Mesomerize)
Tautomerize (ID: Tautomerize)
Add Explicit Hydrogens (ID: AddExplicitH)
Neutralize (ID: Neutralize)
Clean 2D (ID: Clean2D)

> <knn Distance>
2.44948983192444

> <CpId>
868

$$$$
937
  Mrv1532301301811342D          

 44 43  0  0  0  0            999 V2000
    5.9961    4.2868    0.0000 C   0  0  0  0  0  0  0  0  0  0  0  0
    6.7105    4.6993    0.0000 C   0  0  0  0  0  0  0  0  0  0  0  0
    7.4250    4.2868    0.0000 C   0  0  0  0  0  0  0  0  0  0  0  0
    8.1395    4.6993    0.0000 C   0  0  0  0  0  0  0  0  0  0  0  0
    8.8540    4.2868    0.0000 O   0  0  0  0  0  0  0  0  0  0  0  0
    9.5684    4.6993    0.0000 C   0  0  0  0  0  0  0  0  0  0  0  0
    9.5684    5.5243    0.0000 O   0  0  0  0  0  0  0  0  0  0  0  0
   10.2829    4.2868    0.0000 C   0  0  0  0  0  0  0  0  0  0  0  0
   10.9974    4.6993    0.0000 C   0  0  0  0  0  0  0  0  0  0  0  0
   11.7118    4.2868    0.0000 C   0  0  0  0  0  0  0  0  0  0  0  0
   12.4263    4.6993    0.0000 C   0  0  0  0  0  0  0  0  0  0  0  0
   13.1408    4.2868    0.0000 C   0  0  0  0  0  0  0  0  0  0  0  0
   13.1408    3.4618    0.0000 O   0  0  0  0  0  0  0  0  0  0  0  0
   13.8552    4.6993    0.0000 O   0  0  0  0  0  0  0  0  0  0  0  0
   14.5697    4.2868    0.0000 C   0  0  0  0  0  0  0  0  0  0  0  0
   15.2842    4.6993    0.0000 C   0  0  0  0  0  0  0  0  0  0  0  0
   15.9987    4.2868    0.0000 C   0  0  0  0  0  0  0  0  0  0  0  0
   16.7131    4.6993    0.0000 C   0  0  0  0  0  0  0  0  0  0  0  0
    5.5836    5.0013    0.0000 H   0  0  0  0  0  0  0  0  0  0  0  0
    5.2816    3.8743    0.0000 H   0  0  0  0  0  0  0  0  0  0  0  0
    6.4086    3.5723    0.0000 H   0  0  0  0  0  0  0  0  0  0  0  0
    7.0808    5.4365    0.0000 H   0  0  0  0  0  0  0  0  0  0  0  0
    6.3403    5.4365    0.0000 H   0  0  0  0  0  0  0  0  0  0  0  0
    7.0547    3.5496    0.0000 H   0  0  0  0  0  0  0  0  0  0  0  0
    7.7953    3.5496    0.0000 H   0  0  0  0  0  0  0  0  0  0  0  0
    8.5097    5.4365    0.0000 H   0  0  0  0  0  0  0  0  0  0  0  0
    7.7692    5.4365    0.0000 H   0  0  0  0  0  0  0  0  0  0  0  0
    9.9126    3.5496    0.0000 H   0  0  0  0  0  0  0  0  0  0  0  0
   10.6532    3.5496    0.0000 H   0  0  0  0  0  0  0  0  0  0  0  0
   11.3676    5.4365    0.0000 H   0  0  0  0  0  0  0  0  0  0  0  0
   10.6271    5.4365    0.0000 H   0  0  0  0  0  0  0  0  0  0  0  0
   11.3416    3.5496    0.0000 H   0  0  0  0  0  0  0  0  0  0  0  0
   12.0821    3.5496    0.0000 H   0  0  0  0  0  0  0  0  0  0  0  0
   12.7966    5.4365    0.0000 H   0  0  0  0  0  0  0  0  0  0  0  0
   12.0560    5.4365    0.0000 H   0  0  0  0  0  0  0  0  0  0  0  0
   14.1995    3.5496    0.0000 H   0  0  0  0  0  0  0  0  0  0  0  0
   14.9400    3.5496    0.0000 H   0  0  0  0  0  0  0  0  0  0  0  0
   15.6544    5.4365    0.0000 H   0  0  0  0  0  0  0  0  0  0  0  0
   14.9139    5.4365    0.0000 H   0  0  0  0  0  0  0  0  0  0  0  0
   15.6284    3.5496    0.0000 H   0  0  0  0  0  0  0  0  0  0  0  0
   16.3689    3.5496    0.0000 H   0  0  0  0  0  0  0  0  0  0  0  0
   17.1256    3.9848    0.0000 H   0  0  0  0  0  0  0  0  0  0  0  0
   17.4276    5.1118    0.0000 H   0  0  0  0  0  0  0  0  0  0  0  0
   16.3006    5.4138    0.0000 H   0  0  0  0  0  0  0  0  0  0  0  0
  1  2  1  0  0  0  0
  2  3  1  0  0  0  0
  3  4  1  0  0  0  0
  4  5  1  0  0  0  0
  5  6  1  0  0  0  0
  6  7  2  0  0  0  0
  6  8  1  0  0  0  0
  8  9  1  0  0  0  0
  9 10  1  0  0  0  0
 10 11  1  0  0  0  0
 11 12  1  0  0  0  0
 12 13  2  0  0  0  0
 12 14  1  0  0  0  0
 14 15  1  0  0  0  0
 15 16  1  0  0  0  0
 16 17  1  0  0  0  0
 17 18  1  0  0  0  0
  1 19  1  0  0  0  0
  1 20  1  0  0  0  0
  1 21  1  0  0  0  0
  2 22  1  0  0  0  0
  2 23  1  0  0  0  0
  3 24  1  0  0  0  0
  3 25  1  0  0  0  0
  4 26  1  0  0  0  0
  4 27  1  0  0  0  0
  8 28  1  0  0  0  0
  8 29  1  0  0  0  0
  9 30  1  0  0  0  0
  9 31  1  0  0  0  0
 10 32  1  0  0  0  0
 10 33  1  0  0  0  0
 11 34  1  0  0  0  0
 11 35  1  0  0  0  0
 15 36  1  0  0  0  0
 15 37  1  0  0  0  0
 16 38  1  0  0  0  0
 16 39  1  0  0  0  0
 17 40  1  0  0  0  0
 17 41  1  0  0  0  0
 18 42  1  0  0  0  0
 18 43  1  0  0  0  0
 18 44  1  0  0  0  0
M  END
>  <InChIKey>
XTJFFFGAUHQWII-UHFFFAOYSA-N

>  <UN GHS>
Non-irritant

>  <CASRN>
105-99-7

> <Outcome>
0

>  <Index>
937

>  <StandardizerResult>
Clear Stereo (ID: ClearStereo)
Wedge Clean (ID: WedgeClean)
Mesomerize (ID: Mesomerize)
Tautomerize (ID: Tautomerize)
Add Explicit Hydrogens (ID: AddExplicitH)
Neutralize (ID: Neutralize)
Clean 2D (ID: Clean2D)

> <knn Distance>
2.44948983192444

> <CpId>
937

$$$$
953
  Mrv1532301301811342D          

 47 46  0  0  0  0            999 V2000
    6.7105    4.6997    0.0000 C   0  0  0  0  0  0  0  0  0  0  0  0
    7.4250    4.2872    0.0000 C   0  0  0  0  0  0  0  0  0  0  0  0
    8.1395    4.6997    0.0000 C   0  0  0  0  0  0  0  0  0  0  0  0
    8.8539    4.2872    0.0000 C   0  0  0  0  0  0  0  0  0  0  0  0
    9.5684    4.6997    0.0000 C   0  0  0  0  0  0  0  0  0  0  0  0
   10.2829    4.2872    0.0000 C   0  0  0  0  0  0  0  0  0  0  0  0
   10.9974    4.6997    0.0000 C   0  0  0  0  0  0  0  0  0  0  0  0
   11.7118    4.2872    0.0000 C   0  0  0  0  0  0  0  0  0  0  0  0
   12.4263    4.6997    0.0000 C   0  0  0  0  0  0  0  0  0  0  0  0
   13.1408    4.2872    0.0000 C   0  0  0  0  0  0  0  0  0  0  0  0
   13.8552    4.6997    0.0000 C   0  0  0  0  0  0  0  0  0  0  0  0
   14.5697    4.2872    0.0000 C   0  0  0  0  0  0  0  0  0  0  0  0
   15.2842    4.6997    0.0000 C   0  0  0  0  0  0  0  0  0  0  0  0
   15.9987    4.2872    0.0000 C   0  0  0  0  0  0  0  0  0  0  0  0
   16.7131    4.6997    0.0000 C   0  0  0  0  0  0  0  0  0  0  0  0
    7.1230    5.4141    0.0000 H   0  0  0  0  0  0  0  0  0  0  0  0
    5.9961    5.1122    0.0000 H   0  0  0  0  0  0  0  0  0  0  0  0
    6.2980    3.9852    0.0000 H   0  0  0  0  0  0  0  0  0  0  0  0
    7.0547    3.5499    0.0000 H   0  0  0  0  0  0  0  0  0  0  0  0
    7.7953    3.5499    0.0000 H   0  0  0  0  0  0  0  0  0  0  0  0
    8.5097    5.4369    0.0000 H   0  0  0  0  0  0  0  0  0  0  0  0
    7.7692    5.4369    0.0000 H   0  0  0  0  0  0  0  0  0  0  0  0
    8.4837    3.5499    0.0000 H   0  0  0  0  0  0  0  0  0  0  0  0
    9.2242    3.5499    0.0000 H   0  0  0  0  0  0  0  0  0  0  0  0
    9.9387    5.4369    0.0000 H   0  0  0  0  0  0  0  0  0  0  0  0
    9.1982    5.4369    0.0000 H   0  0  0  0  0  0  0  0  0  0  0  0
    9.9126    3.5499    0.0000 H   0  0  0  0  0  0  0  0  0  0  0  0
   10.6531    3.5499    0.0000 H   0  0  0  0  0  0  0  0  0  0  0  0
   11.3676    5.4369    0.0000 H   0  0  0  0  0  0  0  0  0  0  0  0
   10.6271    5.4369    0.0000 H   0  0  0  0  0  0  0  0  0  0  0  0
   11.3416    3.5499    0.0000 H   0  0  0  0  0  0  0  0  0  0  0  0
   12.0821    3.5499    0.0000 H   0  0  0  0  0  0  0  0  0  0  0  0
   12.7966    5.4369    0.0000 H   0  0  0  0  0  0  0  0  0  0  0  0
   12.0560    5.4369    0.0000 H   0  0  0  0  0  0  0  0  0  0  0  0
   12.7705    3.5499    0.0000 H   0  0  0  0  0  0  0  0  0  0  0  0
   13.5110    3.5499    0.0000 H   0  0  0  0  0  0  0  0  0  0  0  0
   14.2255    5.4369    0.0000 H   0  0  0  0  0  0  0  0  0  0  0  0
   13.4850    5.4369    0.0000 H   0  0  0  0  0  0  0  0  0  0  0  0
   14.1995    3.5499    0.0000 H   0  0  0  0  0  0  0  0  0  0  0  0
   14.9400    3.5499    0.0000 H   0  0  0  0  0  0  0  0  0  0  0  0
   15.6544    5.4369    0.0000 H   0  0  0  0  0  0  0  0  0  0  0  0
   14.9139    5.4369    0.0000 H   0  0  0  0  0  0  0  0  0  0  0  0
   15.6284    3.5499    0.0000 H   0  0  0  0  0  0  0  0  0  0  0  0
   16.3689    3.5499    0.0000 H   0  0  0  0  0  0  0  0  0  0  0  0
   17.1256    3.9852    0.0000 H   0  0  0  0  0  0  0  0  0  0  0  0
   17.4276    5.1122    0.0000 H   0  0  0  0  0  0  0  0  0  0  0  0
   16.3006    5.4141    0.0000 H   0  0  0  0  0  0  0  0  0  0  0  0
  1  2  1  0  0  0  0
  2  3  1  0  0  0  0
  3  4  1  0  0  0  0
  4  5  1  0  0  0  0
  5  6  1  0  0  0  0
  6  7  1  0  0  0  0
  7  8  1  0  0  0  0
  8  9  1  0  0  0  0
  9 10  1  0  0  0  0
 10 11  1  0  0  0  0
 11 12  1  0  0  0  0
 12 13  1  0  0  0  0
 13 14  1  0  0  0  0
 14 15  1  0  0  0  0
  1 16  1  0  0  0  0
  1 17  1  0  0  0  0
  1 18  1  0  0  0  0
  2 19  1  0  0  0  0
  2 20  1  0  0  0  0
  3 21  1  0  0  0  0
  3 22  1  0  0  0  0
  4 23  1  0  0  0  0
  4 24  1  0  0  0  0
  5 25  1  0  0  0  0
  5 26  1  0  0  0  0
  6 27  1  0  0  0  0
  6 28  1  0  0  0  0
  7 29  1  0  0  0  0
  7 30  1  0  0  0  0
  8 31  1  0  0  0  0
  8 32  1  0  0  0  0
  9 33  1  0  0  0  0
  9 34  1  0  0  0  0
 10 35  1  0  0  0  0
 10 36  1  0  0  0  0
 11 37  1  0  0  0  0
 11 38  1  0  0  0  0
 12 39  1  0  0  0  0
 12 40  1  0  0  0  0
 13 41  1  0  0  0  0
 13 42  1  0  0  0  0
 14 43  1  0  0  0  0
 14 44  1  0  0  0  0
 15 45  1  0  0  0  0
 15 46  1  0  0  0  0
 15 47  1  0  0  0  0
M  END
>  <InChIKey>
YCOZIPAWZNQLMR-UHFFFAOYSA-N

>  <UN GHS>
Non-irritant

>  <CASRN>
629-62-9

> <Outcome>
0

>  <Index>
953

>  <StandardizerResult>
Clear Stereo (ID: ClearStereo)
Wedge Clean (ID: WedgeClean)
Mesomerize (ID: Mesomerize)
Tautomerize (ID: Tautomerize)
Add Explicit Hydrogens (ID: AddExplicitH)
Neutralize (ID: Neutralize)
Clean 2D (ID: Clean2D)

> <knn Distance>
2.44948983192444

> <CpId>
953

$$$$
1089
  Mrv1532301301811342D          

 55 54  0  0  0  0            999 V2000
   -4.1467    2.5562    0.0000 C   0  0  0  0  0  0  0  0  0  0  0  0
   -3.4322    2.1437    0.0000 C   0  0  0  0  0  0  0  0  0  0  0  0
   -2.7177    2.5562    0.0000 C   0  0  0  0  0  0  0  0  0  0  0  0
   -2.0033    2.1437    0.0000 C   0  0  0  0  0  0  0  0  0  0  0  0
   -1.2888    2.5562    0.0000 C   0  0  0  0  0  0  0  0  0  0  0  0
   -0.5743    2.1437    0.0000 C   0  0  0  0  0  0  0  0  0  0  0  0
    0.1401    2.5562    0.0000 C   0  0  0  0  0  0  0  0  0  0  0  0
    0.8546    2.1437    0.0000 C   0  0  0  0  0  0  0  0  0  0  0  0
    1.5691    2.5562    0.0000 C   0  0  0  0  0  0  0  0  0  0  0  0
    2.2836    2.1437    0.0000 C   0  0  0  0  0  0  0  0  0  0  0  0
    2.9980    2.5562    0.0000 C   0  0  0  0  0  0  0  0  0  0  0  0
    3.7125    2.1437    0.0000 C   0  0  0  0  0  0  0  0  0  0  0  0
    4.4270    2.5562    0.0000 C   0  0  0  0  0  0  0  0  0  0  0  0
    5.1414    2.1437    0.0000 C   0  0  0  0  0  0  0  0  0  0  0  0
    5.8559    2.5562    0.0000 C   0  0  0  0  0  0  0  0  0  0  0  0
    6.5704    2.1437    0.0000 C   0  0  0  0  0  0  0  0  0  0  0  0
    7.2849    2.5562    0.0000 C   0  0  0  0  0  0  0  0  0  0  0  0
    7.9993    2.1437    0.0000 C   0  0  0  0  0  0  0  0  0  0  0  0
    8.7138    2.5562    0.0000 O   0  0  0  0  0  0  0  0  0  0  0  0
   -3.7342    3.2707    0.0000 H   0  0  0  0  0  0  0  0  0  0  0  0
   -4.8612    2.9687    0.0000 H   0  0  0  0  0  0  0  0  0  0  0  0
   -4.5592    1.8417    0.0000 H   0  0  0  0  0  0  0  0  0  0  0  0
   -3.8025    1.4065    0.0000 H   0  0  0  0  0  0  0  0  0  0  0  0
   -3.0620    1.4065    0.0000 H   0  0  0  0  0  0  0  0  0  0  0  0
   -2.3475    3.2935    0.0000 H   0  0  0  0  0  0  0  0  0  0  0  0
   -3.0880    3.2935    0.0000 H   0  0  0  0  0  0  0  0  0  0  0  0
   -2.3735    1.4065    0.0000 H   0  0  0  0  0  0  0  0  0  0  0  0
   -1.6330    1.4065    0.0000 H   0  0  0  0  0  0  0  0  0  0  0  0
   -0.9185    3.2935    0.0000 H   0  0  0  0  0  0  0  0  0  0  0  0
   -1.6591    3.2935    0.0000 H   0  0  0  0  0  0  0  0  0  0  0  0
   -0.9446    1.4065    0.0000 H   0  0  0  0  0  0  0  0  0  0  0  0
   -0.2041    1.4065    0.0000 H   0  0  0  0  0  0  0  0  0  0  0  0
    0.5104    3.2935    0.0000 H   0  0  0  0  0  0  0  0  0  0  0  0
   -0.2301    3.2935    0.0000 H   0  0  0  0  0  0  0  0  0  0  0  0
    0.4844    1.4065    0.0000 H   0  0  0  0  0  0  0  0  0  0  0  0
    1.2249    1.4065    0.0000 H   0  0  0  0  0  0  0  0  0  0  0  0
    1.5691    3.3812    0.0000 H   0  0  0  0  0  0  0  0  0  0  0  0
    2.2836    1.3187    0.0000 H   0  0  0  0  0  0  0  0  0  0  0  0
    3.3683    3.2935    0.0000 H   0  0  0  0  0  0  0  0  0  0  0  0
    2.6278    3.2935    0.0000 H   0  0  0  0  0  0  0  0  0  0  0  0
    3.3422    1.4065    0.0000 H   0  0  0  0  0  0  0  0  0  0  0  0
    4.0828    1.4065    0.0000 H   0  0  0  0  0  0  0  0  0  0  0  0
    4.7972    3.2935    0.0000 H   0  0  0  0  0  0  0  0  0  0  0  0
    4.0567    3.2935    0.0000 H   0  0  0  0  0  0  0  0  0  0  0  0
    4.7712    1.4065    0.0000 H   0  0  0  0  0  0  0  0  0  0  0  0
    5.5117    1.4065    0.0000 H   0  0  0  0  0  0  0  0  0  0  0  0
    6.2262    3.2935    0.0000 H   0  0  0  0  0  0  0  0  0  0  0  0
    5.4857    3.2935    0.0000 H   0  0  0  0  0  0  0  0  0  0  0  0
    6.2001    1.4065    0.0000 H   0  0  0  0  0  0  0  0  0  0  0  0
    6.9406    1.4065    0.0000 H   0  0  0  0  0  0  0  0  0  0  0  0
    7.6551    3.2935    0.0000 H   0  0  0  0  0  0  0  0  0  0  0  0
    6.9146    3.2935    0.0000 H   0  0  0  0  0  0  0  0  0  0  0  0
    7.6291    1.4065    0.0000 H   0  0  0  0  0  0  0  0  0  0  0  0
    8.3696    1.4065    0.0000 H   0  0  0  0  0  0  0  0  0  0  0  0
    9.4283    2.1437    0.0000 H   0  0  0  0  0  0  0  0  0  0  0  0
  1  2  1  0  0  0  0
  2  3  1  0  0  0  0
  3  4  1  0  0  0  0
  4  5  1  0  0  0  0
  5  6  1  0  0  0  0
  6  7  1  0  0  0  0
  7  8  1  0  0  0  0
  9  8  1  4  0  0  0
  9 10  2  0  0  0  0
 10 11  1  0  0  0  0
 11 12  1  0  0  0  0
 12 13  1  0  0  0  0
 13 14  1  0  0  0  0
 14 15  1  0  0  0  0
 15 16  1  0  0  0  0
 16 17  1  0  0  0  0
 17 18  1  0  0  0  0
 18 19  1  0  0  0  0
  1 20  1  0  0  0  0
  1 21  1  0  0  0  0
  1 22  1  0  0  0  0
  2 23  1  0  0  0  0
  2 24  1  0  0  0  0
  3 25  1  0  0  0  0
  3 26  1  0  0  0  0
  4 27  1  0  0  0  0
  4 28  1  0  0  0  0
  5 29  1  0  0  0  0
  5 30  1  0  0  0  0
  6 31  1  0  0  0  0
  6 32  1  0  0  0  0
  7 33  1  0  0  0  0
  7 34  1  0  0  0  0
  8 35  1  0  0  0  0
  8 36  1  0  0  0  0
  9 37  1  0  0  0  0
 10 38  1  0  0  0  0
 11 39  1  0  0  0  0
 11 40  1  0  0  0  0
 12 41  1  0  0  0  0
 12 42  1  0  0  0  0
 13 43  1  0  0  0  0
 13 44  1  0  0  0  0
 14 45  1  0  0  0  0
 14 46  1  0  0  0  0
 15 47  1  0  0  0  0
 15 48  1  0  0  0  0
 16 49  1  0  0  0  0
 16 50  1  0  0  0  0
 17 51  1  0  0  0  0
 17 52  1  0  0  0  0
 18 53  1  0  0  0  0
 18 54  1  0  0  0  0
 19 55  1  0  0  0  0
M  END
>  <InChIKey>
InChI=1S/C18H36O/c1-2-3-4-5-6-7-8-9-10-11-12-13-14-15-16-17-18-19/h9-10,19H,2-8,11-18H2,1H3

>  <CASRN>
143-28-2

> <Outcome>
0

>  <Index>
1089

>  <StandardizerResult>
Clear Stereo (ID: ClearStereo)
Wedge Clean (ID: WedgeClean)
Mesomerize (ID: Mesomerize)
Tautomerize (ID: Tautomerize)
Add Explicit Hydrogens (ID: AddExplicitH)
Neutralize (ID: Neutralize)
Clean 2D (ID: Clean2D)

> <knn Distance>
2.44948983192444

> <CpId>
1089

$$$$
1130
  Mrv1532301301811342D          

 11 10  0  0  0  0            999 V2000
    2.4849   -1.3902    0.0000 C   0  0  0  0  0  0  0  0  0  0  0  0
    2.0724   -0.6758    0.0000 C   0  0  0  0  0  0  0  0  0  0  0  0
    1.2474   -0.6758    0.0000 C   0  0  0  0  0  0  0  0  0  0  0  0
    1.7705   -1.8027    0.0000 H   0  0  0  0  0  0  0  0  0  0  0  0
    2.8974   -2.1047    0.0000 H   0  0  0  0  0  0  0  0  0  0  0  0
    3.1994   -0.9777    0.0000 H   0  0  0  0  0  0  0  0  0  0  0  0
    2.7617   -0.2224    0.0000 H   0  0  0  0  0  0  0  0  0  0  0  0
    2.1204    0.1478    0.0000 H   0  0  0  0  0  0  0  0  0  0  0  0
    1.2474    0.1492    0.0000 H   0  0  0  0  0  0  0  0  0  0  0  0
    0.4224   -0.6758    0.0000 H   0  0  0  0  0  0  0  0  0  0  0  0
    1.2474   -1.5008    0.0000 H   0  0  0  0  0  0  0  0  0  0  0  0
  1  2  1  0  0  0  0
  2  3  1  0  0  0  0
  1  4  1  0  0  0  0
  1  5  1  0  0  0  0
  1  6  1  0  0  0  0
  2  7  1  0  0  0  0
  2  8  1  0  0  0  0
  3  9  1  0  0  0  0
  3 10  1  0  0  0  0
  3 11  1  0  0  0  0
M  END
>  <InChIKey>
InChI=1S/C3H8/c1-3-2/h3H2,1-2H3

>  <CASRN>
74-98-6

> <Outcome>
0

>  <Index>
1130

>  <StandardizerResult>
Mesomerize (ID: Mesomerize)
Tautomerize (ID: Tautomerize)
Add Explicit Hydrogens (ID: AddExplicitH)
Neutralize (ID: Neutralize)
Clean 2D (ID: Clean2D)

> <knn Distance>
2.44948983192444

> <CpId>
1130

$$$$
1161
  Mrv1532301301811342D          

 39 38  0  0  0  0            999 V2000
    1.7374   -2.7187    0.0000 C   0  0  0  0  0  0  0  0  0  0  0  0
    1.7374   -1.8937    0.0000 C   0  0  0  0  0  0  0  0  0  0  0  0
    2.4519   -1.4812    0.0000 C   0  0  0  0  0  0  0  0  0  0  0  0
    3.1664   -1.8937    0.0000 C   0  0  0  0  0  0  0  0  0  0  0  0
    3.8808   -1.4812    0.0000 O   0  0  0  0  0  0  0  0  0  0  0  0
    4.5953   -1.8937    0.0000 C   0  0  0  0  0  0  0  0  0  0  0  0
    4.5953   -2.7187    0.0000 O   0  0  0  0  0  0  0  0  0  0  0  0
    5.3098   -1.4812    0.0000 C   0  0  0  0  0  0  0  0  0  0  0  0
    6.0243   -1.8937    0.0000 C   0  0  0  0  0  0  0  0  0  0  0  0
    5.3098   -0.6562    0.0000 C   0  0  0  0  0  0  0  0  0  0  0  0
    1.0230   -1.4812    0.0000 C   0  0  0  0  0  0  0  0  0  0  0  0
    0.3085   -1.8937    0.0000 C   0  0  0  0  0  0  0  0  0  0  0  0
   -0.4060   -2.3062    0.0000 C   0  0  0  0  0  0  0  0  0  0  0  0
   -0.1040   -1.1792    0.0000 C   0  0  0  0  0  0  0  0  0  0  0  0
    0.7210   -2.6082    0.0000 C   0  0  0  0  0  0  0  0  0  0  0  0
    0.9124   -2.7187    0.0000 H   0  0  0  0  0  0  0  0  0  0  0  0
    1.7374   -3.5437    0.0000 H   0  0  0  0  0  0  0  0  0  0  0  0
    2.5624   -2.7187    0.0000 H   0  0  0  0  0  0  0  0  0  0  0  0
    2.4519   -2.3062    0.0000 H   0  0  0  0  0  0  0  0  0  0  0  0
    2.8222   -0.7440    0.0000 H   0  0  0  0  0  0  0  0  0  0  0  0
    2.0816   -0.7440    0.0000 H   0  0  0  0  0  0  0  0  0  0  0  0
    3.3096   -2.7062    0.0000 H   0  0  0  0  0  0  0  0  0  0  0  0
    3.7984   -2.4240    0.0000 H   0  0  0  0  0  0  0  0  0  0  0  0
    5.6118   -2.6082    0.0000 H   0  0  0  0  0  0  0  0  0  0  0  0
    6.7387   -2.3062    0.0000 H   0  0  0  0  0  0  0  0  0  0  0  0
    6.4368   -1.1792    0.0000 H   0  0  0  0  0  0  0  0  0  0  0  0
    6.0243   -0.2437    0.0000 H   0  0  0  0  0  0  0  0  0  0  0  0
    4.5953   -0.2437    0.0000 H   0  0  0  0  0  0  0  0  0  0  0  0
    1.3932   -0.7440    0.0000 H   0  0  0  0  0  0  0  0  0  0  0  0
    0.6527   -0.7440    0.0000 H   0  0  0  0  0  0  0  0  0  0  0  0
   -0.8185   -1.5917    0.0000 H   0  0  0  0  0  0  0  0  0  0  0  0
   -1.1204   -2.7187    0.0000 H   0  0  0  0  0  0  0  0  0  0  0  0
    0.0065   -3.0207    0.0000 H   0  0  0  0  0  0  0  0  0  0  0  0
    0.1105   -0.3826    0.0000 H   0  0  0  0  0  0  0  0  0  0  0  0
   -0.5159   -0.4644    0.0000 H   0  0  0  0  0  0  0  0  0  0  0  0
   -0.9008   -0.9654    0.0000 H   0  0  0  0  0  0  0  0  0  0  0  0
    1.4962   -2.3260    0.0000 H   0  0  0  0  0  0  0  0  0  0  0  0
    1.0032   -1.8329    0.0000 H   0  0  0  0  0  0  0  0  0  0  0  0
    0.7210   -3.4332    0.0000 H   0  0  0  0  0  0  0  0  0  0  0  0
  1  2  1  0  0  0  0
  2  3  1  0  0  0  0
  3  4  1  0  0  0  0
  4  5  1  0  0  0  0
  5  6  1  0  0  0  0
  6  7  2  0  0  0  0
  6  8  1  0  0  0  0
  8  9  1  0  0  0  0
  8 10  2  0  0  0  0
  2 11  1  0  0  0  0
 11 12  1  0  0  0  0
 12 13  1  0  0  0  0
 12 14  1  0  0  0  0
 12 15  1  0  0  0  0
  1 16  1  0  0  0  0
  1 17  1  0  0  0  0
  1 18  1  0  0  0  0
  2 19  1  0  0  0  0
  3 20  1  0  0  0  0
  3 21  1  0  0  0  0
  4 22  1  0  0  0  0
  4 23  1  0  0  0  0
  9 24  1  0  0  0  0
  9 25  1  0  0  0  0
  9 26  1  0  0  0  0
 10 27  1  0  0  0  0
 10 28  1  0  0  0  0
 11 29  1  0  0  0  0
 11 30  1  0  0  0  0
 13 31  1  0  0  0  0
 13 32  1  0  0  0  0
 13 33  1  0  0  0  0
 14 34  1  0  0  0  0
 14 35  1  0  0  0  0
 14 36  1  0  0  0  0
 15 37  1  0  0  0  0
 15 38  1  0  0  0  0
 15 39  1  0  0  0  0
M  END
>  <InChIKey>
InChI=1S/C13H24O2/c1-10(2)12(14)15-8-7-11(3)9-13(4,5)6/h11H,1,7-9H2,2-6H3

>  <UN GHS>
Non-irritant

>  <CASRN>
13453-03-7

> <Outcome>
0

>  <Index>
1161

>  <StandardizerResult>
Clear Stereo (ID: ClearStereo)
Wedge Clean (ID: WedgeClean)
Mesomerize (ID: Mesomerize)
Tautomerize (ID: Tautomerize)
Add Explicit Hydrogens (ID: AddExplicitH)
Neutralize (ID: Neutralize)
Clean 2D (ID: Clean2D)

> <knn Distance>
2.44948983192444

> <CpId>
1161

$$$$
1173
  Mrv1532301301811342D          

  6  5  0  0  0  0            999 V2000
    1.2375    0.7145    0.0000 F   0  0  0  0  0  0  0  0  0  0  0  0
    0.8250   -0.0000    0.0000 C   0  0  0  0  0  0  0  0  0  0  0  0
    1.2375   -0.7145    0.0000 F   0  0  0  0  0  0  0  0  0  0  0  0
    0.0000   -0.0000    0.0000 C   0  0  0  0  0  0  0  0  0  0  0  0
   -0.4125   -0.7145    0.0000 F   0  0  0  0  0  0  0  0  0  0  0  0
   -0.4125    0.7145    0.0000 F   0  0  0  0  0  0  0  0  0  0  0  0
  1  2  1  0  0  0  0
  2  3  1  0  0  0  0
  2  4  2  0  0  0  0
  4  5  1  0  0  0  0
  4  6  1  0  0  0  0
M  END
>  <InChIKey>
InChI=1S/C2F4/c3-1(4)2(5)6

>  <CASRN>
116-14-3

> <Outcome>
0

>  <Index>
1173

>  <StandardizerResult>
Clear Stereo (ID: ClearStereo)
Wedge Clean (ID: WedgeClean)
Mesomerize (ID: Mesomerize)
Tautomerize (ID: Tautomerize)
Clean 2D (ID: Clean2D)

> <knn Distance>
2.44948983192444

> <CpId>
1173

$$$$
1301
  Mrv1532301301811342D          

 25 25  0  0  0  0            999 V2000
   -0.7360    3.7290    0.0000 C   0  0  0  0  0  0  0  0  0  0  0  0
   -0.0215    3.3165    0.0000 C   0  0  0  0  0  0  0  0  0  0  0  0
    0.6930    3.7290    0.0000 C   0  0  0  0  0  0  0  0  0  0  0  0
   -0.0215    2.4915    0.0000 O   0  0  0  0  0  0  0  0  0  0  0  0
    0.6930    2.0790    0.0000 C   0  0  0  0  0  0  0  0  0  0  0  0
    1.4074    2.4915    0.0000 O   0  0  0  0  0  0  0  0  0  0  0  0
    0.6930    1.2540    0.0000 C   0  0  0  0  0  0  0  0  0  0  0  0
    1.4074    0.8415    0.0000 C   0  0  0  0  0  0  0  0  0  0  0  0
    1.4074    0.0165    0.0000 C   0  0  0  0  0  0  0  0  0  0  0  0
    0.6930   -0.3960    0.0000 C   0  0  0  0  0  0  0  0  0  0  0  0
    0.6930   -1.2210    0.0000 O   0  0  0  0  0  0  0  0  0  0  0  0
   -0.0215    0.0165    0.0000 C   0  0  0  0  0  0  0  0  0  0  0  0
   -0.0215    0.8415    0.0000 C   0  0  0  0  0  0  0  0  0  0  0  0
   -0.3235    4.4435    0.0000 H   0  0  0  0  0  0  0  0  0  0  0  0
   -1.4504    4.1415    0.0000 H   0  0  0  0  0  0  0  0  0  0  0  0
   -1.1485    3.0145    0.0000 H   0  0  0  0  0  0  0  0  0  0  0  0
   -0.0215    4.1415    0.0000 H   0  0  0  0  0  0  0  0  0  0  0  0
    0.9065    2.9321    0.0000 H   0  0  0  0  0  0  0  0  0  0  0  0
    1.5180    3.7290    0.0000 H   0  0  0  0  0  0  0  0  0  0  0  0
    0.9065    4.5259    0.0000 H   0  0  0  0  0  0  0  0  0  0  0  0
    2.1219    1.2540    0.0000 H   0  0  0  0  0  0  0  0  0  0  0  0
    2.1219   -0.3960    0.0000 H   0  0  0  0  0  0  0  0  0  0  0  0
   -0.0215   -1.6335    0.0000 H   0  0  0  0  0  0  0  0  0  0  0  0
   -0.7360   -0.3960    0.0000 H   0  0  0  0  0  0  0  0  0  0  0  0
   -0.7360    1.2540    0.0000 H   0  0  0  0  0  0  0  0  0  0  0  0
  1  2  1  0  0  0  0
  2  3  1  0  0  0  0
  2  4  1  0  0  0  0
  4  5  1  0  0  0  0
  5  6  2  0  0  0  0
  5  7  1  0  0  0  0
  7  8  4  0  0  0  0
  8  9  4  0  0  0  0
  9 10  4  0  0  0  0
 10 11  1  0  0  0  0
 10 12  4  0  0  0  0
 12 13  4  0  0  0  0
  7 13  4  0  0  0  0
  1 14  1  0  0  0  0
  1 15  1  0  0  0  0
  1 16  1  0  0  0  0
  2 17  1  0  0  0  0
  3 18  1  0  0  0  0
  3 19  1  0  0  0  0
  3 20  1  0  0  0  0
  8 21  1  0  0  0  0
  9 22  1  0  0  0  0
 11 23  1  0  0  0  0
 12 24  1  0  0  0  0
 13 25  1  0  0  0  0
M  END
>  <InChIKey>
InChI=1S/C10H12O3/c1-7(2)13-10(12)8-3-5-9(11)6-4-8/h3-7,11H,1-2H3

>  <CASRN>
4191-73-5

> <Outcome>
0

>  <Index>
1301

>  <StandardizerResult>
Dearomatize (ID: Dearomatize)
Clear Stereo (ID: ClearStereo)
Wedge Clean (ID: WedgeClean)
Mesomerize (ID: Mesomerize)
Tautomerize (ID: Tautomerize)
Aromatize (ID: Aromatize)
Add Explicit Hydrogens (ID: AddExplicitH)
Neutralize (ID: Neutralize)
Clean 2D (ID: Clean2D)

> <knn Distance>
2.44948983192444

> <CpId>
1301

$$$$
1305
  Mrv1532301301811342D          

 20 19  0  0  0  0            999 V2000
    0.1105   -1.9753    0.0000 C   0  0  0  0  0  0  0  0  0  0  0  0
    0.1105   -1.1503    0.0000 O   0  0  0  0  0  0  0  0  0  0  0  0
    0.8250   -0.7378    0.0000 C   0  0  0  0  0  0  0  0  0  0  0  0
    1.5395   -1.1503    0.0000 O   0  0  0  0  0  0  0  0  0  0  0  0
    0.8250    0.0872    0.0000 C   0  0  0  0  0  0  0  0  0  0  0  0
    0.8250    0.9122    0.0000 C   0  0  0  0  0  0  0  0  0  0  0  0
    1.6500    0.0872    0.0000 C   0  0  0  0  0  0  0  0  0  0  0  0
   -0.0000    0.0872    0.0000 C   0  0  0  0  0  0  0  0  0  0  0  0
   -0.7145   -1.9753    0.0000 H   0  0  0  0  0  0  0  0  0  0  0  0
    0.1105   -2.8003    0.0000 H   0  0  0  0  0  0  0  0  0  0  0  0
    0.9355   -1.9753    0.0000 H   0  0  0  0  0  0  0  0  0  0  0  0
    1.6500    0.9122    0.0000 H   0  0  0  0  0  0  0  0  0  0  0  0
    0.8250    1.7372    0.0000 H   0  0  0  0  0  0  0  0  0  0  0  0
   -0.0000    0.9122    0.0000 H   0  0  0  0  0  0  0  0  0  0  0  0
    1.3343   -0.6750    0.0000 H   0  0  0  0  0  0  0  0  0  0  0  0
    2.2334   -0.4961    0.0000 H   0  0  0  0  0  0  0  0  0  0  0  0
    2.4122    0.4029    0.0000 H   0  0  0  0  0  0  0  0  0  0  0  0
   -0.7622    0.4029    0.0000 H   0  0  0  0  0  0  0  0  0  0  0  0
   -0.5834   -0.4961    0.0000 H   0  0  0  0  0  0  0  0  0  0  0  0
    0.3157   -0.6750    0.0000 H   0  0  0  0  0  0  0  0  0  0  0  0
  1  2  1  0  0  0  0
  2  3  1  0  0  0  0
  3  4  2  0  0  0  0
  3  5  1  0  0  0  0
  5  6  1  0  0  0  0
  5  7  1  0  0  0  0
  5  8  1  0  0  0  0
  1  9  1  0  0  0  0
  1 10  1  0  0  0  0
  1 11  1  0  0  0  0
  6 12  1  0  0  0  0
  6 13  1  0  0  0  0
  6 14  1  0  0  0  0
  7 15  1  0  0  0  0
  7 16  1  0  0  0  0
  7 17  1  0  0  0  0
  8 18  1  0  0  0  0
  8 19  1  0  0  0  0
  8 20  1  0  0  0  0
M  END
>  <InChIKey>
InChI=1S/C6H12O2/c1-6(2,3)5(7)8-4/h1-4H3

>  <UN GHS>
Non-irritant

>  <CASRN>
598-98-1

> <Outcome>
0

>  <Index>
1305

>  <StandardizerResult>
Clear Stereo (ID: ClearStereo)
Wedge Clean (ID: WedgeClean)
Mesomerize (ID: Mesomerize)
Tautomerize (ID: Tautomerize)
Add Explicit Hydrogens (ID: AddExplicitH)
Neutralize (ID: Neutralize)
Clean 2D (ID: Clean2D)

> <knn Distance>
2.44948983192444

> <CpId>
1305

$$$$
1412
  Mrv1532301301811342D          

 12 11  0  0  0  0            999 V2000
   -0.6039   -2.4750    0.0000 F   0  0  0  0  0  0  0  0  0  0  0  0
    0.1105   -2.0625    0.0000 C   0  0  0  0  0  0  0  0  0  0  0  0
    0.8250   -2.4750    0.0000 F   0  0  0  0  0  0  0  0  0  0  0  0
    0.1105   -1.2375    0.0000 O   0  0  0  0  0  0  0  0  0  0  0  0
    0.8250   -0.8250    0.0000 C   0  0  0  0  0  0  0  0  0  0  0  0
    1.5395   -1.2375    0.0000 F   0  0  0  0  0  0  0  0  0  0  0  0
    0.8250    0.0000    0.0000 C   0  0  0  0  0  0  0  0  0  0  0  0
    0.8250    0.8250    0.0000 F   0  0  0  0  0  0  0  0  0  0  0  0
    1.6500    0.0000    0.0000 F   0  0  0  0  0  0  0  0  0  0  0  0
    0.0000    0.0000    0.0000 F   0  0  0  0  0  0  0  0  0  0  0  0
    0.1105   -2.8875    0.0000 H   0  0  0  0  0  0  0  0  0  0  0  0
    0.8250   -1.6500    0.0000 H   0  0  0  0  0  0  0  0  0  0  0  0
  1  2  1  0  0  0  0
  2  3  1  0  0  0  0
  2  4  1  0  0  0  0
  4  5  1  0  0  0  0
  5  6  1  0  0  0  0
  5  7  1  0  0  0  0
  7  8  1  0  0  0  0
  7  9  1  0  0  0  0
  7 10  1  0  0  0  0
  2 11  1  0  0  0  0
  5 12  1  0  0  0  0
M  END
>  <InChIKey>
InChI=1S/C3H2F6O/c4-1(3(7,8)9)10-2(5)6/h1-2H

>  <CASRN>
57041-67-5

> <Outcome>
0

>  <Index>
1412

>  <StandardizerResult>
Clear Stereo (ID: ClearStereo)
Wedge Clean (ID: WedgeClean)
Mesomerize (ID: Mesomerize)
Tautomerize (ID: Tautomerize)
Add Explicit Hydrogens (ID: AddExplicitH)
Neutralize (ID: Neutralize)
Clean 2D (ID: Clean2D)

> <knn Distance>
2.44948983192444

> <CpId>
1412

$$$$
1434
  Mrv1532301301811342D          

 33 32  0  0  0  0            999 V2000
    4.1624    3.2371    0.0000 C   0  0  0  0  0  0  0  0  0  0  0  0
    4.8769    2.8246    0.0000 C   0  0  0  0  0  0  0  0  0  0  0  0
    4.8769    1.9996    0.0000 C   0  0  0  0  0  0  0  0  0  0  0  0
    5.5914    3.2371    0.0000 C   0  0  0  0  0  0  0  0  0  0  0  0
    6.3059    2.8246    0.0000 C   0  0  0  0  0  0  0  0  0  0  0  0
    7.0203    3.2371    0.0000 C   0  0  0  0  0  0  0  0  0  0  0  0
    7.7348    2.8246    0.0000 C   0  0  0  0  0  0  0  0  0  0  0  0
    8.4493    3.2371    0.0000 C   0  0  0  0  0  0  0  0  0  0  0  0
    9.1637    2.8246    0.0000 O   0  0  0  0  0  0  0  0  0  0  0  0
    9.8782    3.2371    0.0000 C   0  0  0  0  0  0  0  0  0  0  0  0
    9.8782    4.0621    0.0000 O   0  0  0  0  0  0  0  0  0  0  0  0
   10.5927    2.8246    0.0000 C   0  0  0  0  0  0  0  0  0  0  0  0
   11.3071    3.2371    0.0000 C   0  0  0  0  0  0  0  0  0  0  0  0
    4.5749    3.9516    0.0000 H   0  0  0  0  0  0  0  0  0  0  0  0
    3.4480    3.6496    0.0000 H   0  0  0  0  0  0  0  0  0  0  0  0
    3.7499    2.5226    0.0000 H   0  0  0  0  0  0  0  0  0  0  0  0
    4.1624    2.4121    0.0000 H   0  0  0  0  0  0  0  0  0  0  0  0
    4.2935    1.4162    0.0000 H   0  0  0  0  0  0  0  0  0  0  0  0
    5.2894    1.2851    0.0000 H   0  0  0  0  0  0  0  0  0  0  0  0
    5.6738    2.2131    0.0000 H   0  0  0  0  0  0  0  0  0  0  0  0
    5.9616    3.9744    0.0000 H   0  0  0  0  0  0  0  0  0  0  0  0
    5.2211    3.9744    0.0000 H   0  0  0  0  0  0  0  0  0  0  0  0
    6.8026    2.1660    0.0000 H   0  0  0  0  0  0  0  0  0  0  0  0
    6.3059    3.6496    0.0000 H   0  0  0  0  0  0  0  0  0  0  0  0
    7.6523    3.7674    0.0000 H   0  0  0  0  0  0  0  0  0  0  0  0
    7.1636    4.0496    0.0000 H   0  0  0  0  0  0  0  0  0  0  0  0
    7.3645    2.0874    0.0000 H   0  0  0  0  0  0  0  0  0  0  0  0
    8.1051    2.0874    0.0000 H   0  0  0  0  0  0  0  0  0  0  0  0
    9.1723    3.6344    0.0000 H   0  0  0  0  0  0  0  0  0  0  0  0
    8.4842    4.0614    0.0000 H   0  0  0  0  0  0  0  0  0  0  0  0
   10.5927    1.9996    0.0000 H   0  0  0  0  0  0  0  0  0  0  0  0
   12.0216    2.8246    0.0000 H   0  0  0  0  0  0  0  0  0  0  0  0
   11.3071    4.0621    0.0000 H   0  0  0  0  0  0  0  0  0  0  0  0
  1  2  1  0  0  0  0
  2  3  1  0  0  0  0
  2  4  1  0  0  0  0
  4  5  1  0  0  0  0
  5  6  1  0  0  0  0
  6  7  1  0  0  0  0
  7  8  1  0  0  0  0
  8  9  1  0  0  0  0
  9 10  1  0  0  0  0
 10 11  2  0  0  0  0
 10 12  1  0  0  0  0
 12 13  2  0  0  0  0
  1 14  1  0  0  0  0
  1 15  1  0  0  0  0
  1 16  1  0  0  0  0
  2 17  1  0  0  0  0
  3 18  1  0  0  0  0
  3 19  1  0  0  0  0
  3 20  1  0  0  0  0
  4 21  1  0  0  0  0
  4 22  1  0  0  0  0
  5 23  1  0  0  0  0
  5 24  1  0  0  0  0
  6 25  1  0  0  0  0
  6 26  1  0  0  0  0
  7 27  1  0  0  0  0
  7 28  1  0  0  0  0
  8 29  1  0  0  0  0
  8 30  1  0  0  0  0
 12 31  1  0  0  0  0
 13 32  1  0  0  0  0
 13 33  1  0  0  0  0
M  END
>  <InChIKey>
InChI=1S/C11H20O2/c1-4-11(12)13-9-7-5-6-8-10(2)3/h4,10H,1,5-9H2,2-3H3

>  <UN GHS>
Non-irritant

>  <CASRN>
29590-42-9

> <Outcome>
0

>  <Index>
1434

>  <StandardizerResult>
Clear Stereo (ID: ClearStereo)
Wedge Clean (ID: WedgeClean)
Mesomerize (ID: Mesomerize)
Tautomerize (ID: Tautomerize)
Add Explicit Hydrogens (ID: AddExplicitH)
Neutralize (ID: Neutralize)
Clean 2D (ID: Clean2D)

> <knn Distance>
2.44948983192444

> <CpId>
1434

$$$$
1650
  Mrv1532301301811342D          

 24 24  0  0  0  0            999 V2000
   -0.0268    2.5136    0.0000 C   0  0  0  0  0  0  0  0  0  0  0  0
    0.6877    2.1011    0.0000 C   0  0  0  0  0  0  0  0  0  0  0  0
    1.4022    2.5136    0.0000 C   0  0  0  0  0  0  0  0  0  0  0  0
    0.6877    1.2761    0.0000 C   0  0  0  0  0  0  0  0  0  0  0  0
    1.4022    0.8636    0.0000 C   0  0  0  0  0  0  0  0  0  0  0  0
    1.4022    0.0386    0.0000 C   0  0  0  0  0  0  0  0  0  0  0  0
    0.6877   -0.3739    0.0000 C   0  0  0  0  0  0  0  0  0  0  0  0
    0.6877   -1.1989    0.0000 C   0  0  0  0  0  0  0  0  0  0  0  0
   -0.0268    0.0386    0.0000 C   0  0  0  0  0  0  0  0  0  0  0  0
   -0.0268    0.8636    0.0000 C   0  0  0  0  0  0  0  0  0  0  0  0
    0.3857    3.2281    0.0000 H   0  0  0  0  0  0  0  0  0  0  0  0
   -0.7412    2.9261    0.0000 H   0  0  0  0  0  0  0  0  0  0  0  0
   -0.4393    1.7991    0.0000 H   0  0  0  0  0  0  0  0  0  0  0  0
    0.6877    2.9261    0.0000 H   0  0  0  0  0  0  0  0  0  0  0  0
    1.6157    1.7167    0.0000 H   0  0  0  0  0  0  0  0  0  0  0  0
    2.2272    2.5136    0.0000 H   0  0  0  0  0  0  0  0  0  0  0  0
    1.6157    3.3105    0.0000 H   0  0  0  0  0  0  0  0  0  0  0  0
    2.2210    0.7627    0.0000 H   0  0  0  0  0  0  0  0  0  0  0  0
    2.1167   -0.3739    0.0000 H   0  0  0  0  0  0  0  0  0  0  0  0
   -0.1373   -1.1989    0.0000 H   0  0  0  0  0  0  0  0  0  0  0  0
    0.6877   -2.0239    0.0000 H   0  0  0  0  0  0  0  0  0  0  0  0
    1.5127   -1.1989    0.0000 H   0  0  0  0  0  0  0  0  0  0  0  0
   -0.7412   -0.3739    0.0000 H   0  0  0  0  0  0  0  0  0  0  0  0
   -0.7412    1.2761    0.0000 H   0  0  0  0  0  0  0  0  0  0  0  0
  1  2  1  0  0  0  0
  2  3  1  0  0  0  0
  2  4  1  0  0  0  0
  4  5  4  0  0  0  0
  5  6  4  0  0  0  0
  6  7  4  0  0  0  0
  7  8  1  0  0  0  0
  7  9  4  0  0  0  0
  9 10  4  0  0  0  0
  4 10  4  0  0  0  0
  1 11  1  0  0  0  0
  1 12  1  0  0  0  0
  1 13  1  0  0  0  0
  2 14  1  0  0  0  0
  3 15  1  0  0  0  0
  3 16  1  0  0  0  0
  3 17  1  0  0  0  0
  5 18  1  0  0  0  0
  6 19  1  0  0  0  0
  8 20  1  0  0  0  0
  8 21  1  0  0  0  0
  8 22  1  0  0  0  0
  9 23  1  0  0  0  0
 10 24  1  0  0  0  0
M  END
>  <InChIKey>
InChI=1S/C10H14/c1-8(2)10-6-4-9(3)5-7-10/h4-8H,1-3H3

>  <CASRN>
99-87-6

> <Outcome>
0

>  <Index>
1650

>  <StandardizerResult>
Dearomatize (ID: Dearomatize)
Clear Stereo (ID: ClearStereo)
Wedge Clean (ID: WedgeClean)
Mesomerize (ID: Mesomerize)
Tautomerize (ID: Tautomerize)
Aromatize (ID: Aromatize)
Add Explicit Hydrogens (ID: AddExplicitH)
Neutralize (ID: Neutralize)
Clean 2D (ID: Clean2D)

> <knn Distance>
2.44948983192444

> <CpId>
1650

$$$$
1683
  Mrv1532301301811342D          

 59 58  0  0  0  0            999 V2000
    8.4711    5.7158    0.0000 C   0  0  0  0  0  0  0  0  0  0  0  0
    9.1855    6.1283    0.0000 C   0  0  0  0  0  0  0  0  0  0  0  0
    9.9000    5.7158    0.0000 C   0  0  0  0  0  0  0  0  0  0  0  0
   10.6145    6.1283    0.0000 C   0  0  0  0  0  0  0  0  0  0  0  0
   11.3289    5.7158    0.0000 C   0  0  0  0  0  0  0  0  0  0  0  0
   12.0434    6.1283    0.0000 C   0  0  0  0  0  0  0  0  0  0  0  0
   12.7579    5.7158    0.0000 C   0  0  0  0  0  0  0  0  0  0  0  0
   13.4724    6.1283    0.0000 C   0  0  0  0  0  0  0  0  0  0  0  0
   14.1868    5.7158    0.0000 C   0  0  0  0  0  0  0  0  0  0  0  0
   14.9013    6.1283    0.0000 C   0  0  0  0  0  0  0  0  0  0  0  0
   15.6158    5.7158    0.0000 C   0  0  0  0  0  0  0  0  0  0  0  0
   16.3302    6.1283    0.0000 C   0  0  0  0  0  0  0  0  0  0  0  0
   17.0447    5.7158    0.0000 C   0  0  0  0  0  0  0  0  0  0  0  0
   17.7592    6.1283    0.0000 C   0  0  0  0  0  0  0  0  0  0  0  0
   18.4737    5.7158    0.0000 C   0  0  0  0  0  0  0  0  0  0  0  0
   19.1881    6.1283    0.0000 C   0  0  0  0  0  0  0  0  0  0  0  0
   19.9026    5.7158    0.0000 C   0  0  0  0  0  0  0  0  0  0  0  0
   20.6171    6.1283    0.0000 C   0  0  0  0  0  0  0  0  0  0  0  0
   20.6171    6.9533    0.0000 O   0  0  0  0  0  0  0  0  0  0  0  0
   21.3315    5.7158    0.0000 O   0  0  0  0  0  0  0  0  0  0  0  0
   22.0460    6.1283    0.0000 C   0  0  0  0  0  0  0  0  0  0  0  0
    8.0586    6.4303    0.0000 H   0  0  0  0  0  0  0  0  0  0  0  0
    7.7566    5.3033    0.0000 H   0  0  0  0  0  0  0  0  0  0  0  0
    8.8836    5.0013    0.0000 H   0  0  0  0  0  0  0  0  0  0  0  0
    9.5558    6.8655    0.0000 H   0  0  0  0  0  0  0  0  0  0  0  0
    8.8153    6.8655    0.0000 H   0  0  0  0  0  0  0  0  0  0  0  0
    9.5297    4.9786    0.0000 H   0  0  0  0  0  0  0  0  0  0  0  0
   10.2703    4.9786    0.0000 H   0  0  0  0  0  0  0  0  0  0  0  0
   10.9847    6.8655    0.0000 H   0  0  0  0  0  0  0  0  0  0  0  0
   10.2442    6.8655    0.0000 H   0  0  0  0  0  0  0  0  0  0  0  0
   10.9587    4.9786    0.0000 H   0  0  0  0  0  0  0  0  0  0  0  0
   11.6992    4.9786    0.0000 H   0  0  0  0  0  0  0  0  0  0  0  0
   12.4137    6.8655    0.0000 H   0  0  0  0  0  0  0  0  0  0  0  0
   11.6732    6.8655    0.0000 H   0  0  0  0  0  0  0  0  0  0  0  0
   12.3876    4.9786    0.0000 H   0  0  0  0  0  0  0  0  0  0  0  0
   13.1281    4.9786    0.0000 H   0  0  0  0  0  0  0  0  0  0  0  0
   13.8426    6.8655    0.0000 H   0  0  0  0  0  0  0  0  0  0  0  0
   13.1021    6.8655    0.0000 H   0  0  0  0  0  0  0  0  0  0  0  0
   13.8166    4.9786    0.0000 H   0  0  0  0  0  0  0  0  0  0  0  0
   14.5571    4.9786    0.0000 H   0  0  0  0  0  0  0  0  0  0  0  0
   15.2716    6.8655    0.0000 H   0  0  0  0  0  0  0  0  0  0  0  0
   14.5310    6.8655    0.0000 H   0  0  0  0  0  0  0  0  0  0  0  0
   15.2455    4.9786    0.0000 H   0  0  0  0  0  0  0  0  0  0  0  0
   15.9860    4.9786    0.0000 H   0  0  0  0  0  0  0  0  0  0  0  0
   16.7005    6.8655    0.0000 H   0  0  0  0  0  0  0  0  0  0  0  0
   15.9600    6.8655    0.0000 H   0  0  0  0  0  0  0  0  0  0  0  0
   16.6745    4.9786    0.0000 H   0  0  0  0  0  0  0  0  0  0  0  0
   17.4150    4.9786    0.0000 H   0  0  0  0  0  0  0  0  0  0  0  0
   18.1294    6.8655    0.0000 H   0  0  0  0  0  0  0  0  0  0  0  0
   17.3889    6.8655    0.0000 H   0  0  0  0  0  0  0  0  0  0  0  0
   18.1034    4.9786    0.0000 H   0  0  0  0  0  0  0  0  0  0  0  0
   18.8439    4.9786    0.0000 H   0  0  0  0  0  0  0  0  0  0  0  0
   19.5584    6.8655    0.0000 H   0  0  0  0  0  0  0  0  0  0  0  0
   18.8179    6.8655    0.0000 H   0  0  0  0  0  0  0  0  0  0  0  0
   19.5323    4.9786    0.0000 H   0  0  0  0  0  0  0  0  0  0  0  0
   20.2729    4.9786    0.0000 H   0  0  0  0  0  0  0  0  0  0  0  0
   22.4585    5.4138    0.0000 H   0  0  0  0  0  0  0  0  0  0  0  0
   22.7605    6.5408    0.0000 H   0  0  0  0  0  0  0  0  0  0  0  0
   21.6335    6.8428    0.0000 H   0  0  0  0  0  0  0  0  0  0  0  0
  1  2  1  0  0  0  0
  2  3  1  0  0  0  0
  3  4  1  0  0  0  0
  4  5  1  0  0  0  0
  5  6  1  0  0  0  0
  6  7  1  0  0  0  0
  7  8  1  0  0  0  0
  8  9  1  0  0  0  0
  9 10  1  0  0  0  0
 10 11  1  0  0  0  0
 11 12  1  0  0  0  0
 12 13  1  0  0  0  0
 13 14  1  0  0  0  0
 14 15  1  0  0  0  0
 15 16  1  0  0  0  0
 16 17  1  0  0  0  0
 17 18  1  0  0  0  0
 18 19  2  0  0  0  0
 18 20  1  0  0  0  0
 20 21  1  0  0  0  0
  1 22  1  0  0  0  0
  1 23  1  0  0  0  0
  1 24  1  0  0  0  0
  2 25  1  0  0  0  0
  2 26  1  0  0  0  0
  3 27  1  0  0  0  0
  3 28  1  0  0  0  0
  4 29  1  0  0  0  0
  4 30  1  0  0  0  0
  5 31  1  0  0  0  0
  5 32  1  0  0  0  0
  6 33  1  0  0  0  0
  6 34  1  0  0  0  0
  7 35  1  0  0  0  0
  7 36  1  0  0  0  0
  8 37  1  0  0  0  0
  8 38  1  0  0  0  0
  9 39  1  0  0  0  0
  9 40  1  0  0  0  0
 10 41  1  0  0  0  0
 10 42  1  0  0  0  0
 11 43  1  0  0  0  0
 11 44  1  0  0  0  0
 12 45  1  0  0  0  0
 12 46  1  0  0  0  0
 13 47  1  0  0  0  0
 13 48  1  0  0  0  0
 14 49  1  0  0  0  0
 14 50  1  0  0  0  0
 15 51  1  0  0  0  0
 15 52  1  0  0  0  0
 16 53  1  0  0  0  0
 16 54  1  0  0  0  0
 17 55  1  0  0  0  0
 17 56  1  0  0  0  0
 21 57  1  0  0  0  0
 21 58  1  0  0  0  0
 21 59  1  0  0  0  0
M  END
>  <InChIKey>
InChI=1S/C19H38O2/c1-3-4-5-6-7-8-9-10-11-12-13-14-15-16-17-18-19(20)21-2/h3-18H2,1-2H3

>  <CASRN>
112-61-8

> <Outcome>
0

>  <Index>
1683

>  <StandardizerResult>
Clear Stereo (ID: ClearStereo)
Wedge Clean (ID: WedgeClean)
Mesomerize (ID: Mesomerize)
Tautomerize (ID: Tautomerize)
Add Explicit Hydrogens (ID: AddExplicitH)
Neutralize (ID: Neutralize)
Clean 2D (ID: Clean2D)

> <knn Distance>
2.44948983192444

> <CpId>
1683

$$$$
1736
  Mrv1532301301811342D          

 12 11  0  0  0  0            999 V2000
    1.2375    0.7145    0.0000 C   0  0  0  0  0  0  0  0  0  0  0  0
    0.8250    0.0000    0.0000 C   0  0  0  0  0  0  0  0  0  0  0  0
    0.0000    0.0000    0.0000 C   0  0  0  0  0  0  0  0  0  0  0  0
   -0.4125   -0.7145    0.0000 C   0  0  0  0  0  0  0  0  0  0  0  0
    1.9520    0.3020    0.0000 H   0  0  0  0  0  0  0  0  0  0  0  0
    1.6500    1.4289    0.0000 H   0  0  0  0  0  0  0  0  0  0  0  0
    0.5230    1.1270    0.0000 H   0  0  0  0  0  0  0  0  0  0  0  0
    1.2375   -0.7145    0.0000 H   0  0  0  0  0  0  0  0  0  0  0  0
   -0.4125    0.7145    0.0000 H   0  0  0  0  0  0  0  0  0  0  0  0
   -1.1270   -0.3020    0.0000 H   0  0  0  0  0  0  0  0  0  0  0  0
   -0.8250   -1.4289    0.0000 H   0  0  0  0  0  0  0  0  0  0  0  0
    0.3020   -1.1270    0.0000 H   0  0  0  0  0  0  0  0  0  0  0  0
  2  1  1  4  0  0  0
  2  3  2  0  0  0  0
  3  4  1  0  0  0  0
  1  5  1  0  0  0  0
  1  6  1  0  0  0  0
  1  7  1  0  0  0  0
  2  8  1  0  0  0  0
  3  9  1  0  0  0  0
  4 10  1  0  0  0  0
  4 11  1  0  0  0  0
  4 12  1  0  0  0  0
M  END
>  <InChIKey>
InChI=1S/C4H8/c1-3-4-2/h3-4H,1-2H3

>  <CASRN>
624-64-6

> <Outcome>
0

>  <Index>
1736

>  <StandardizerResult>
Clear Stereo (ID: ClearStereo)
Wedge Clean (ID: WedgeClean)
Mesomerize (ID: Mesomerize)
Tautomerize (ID: Tautomerize)
Add Explicit Hydrogens (ID: AddExplicitH)
Neutralize (ID: Neutralize)
Clean 2D (ID: Clean2D)

> <knn Distance>
2.44948983192444

> <CpId>
1736

$$$$
1770
  Mrv1532301301811342D          

 14 13  0  0  0  0            999 V2000
    2.0625   -0.7145    0.0000 C   0  0  0  0  0  0  0  0  0  0  0  0
    1.2375   -0.7145    0.0000 C   0  0  0  0  0  0  0  0  0  0  0  0
    0.8250   -0.0000    0.0000 C   0  0  0  0  0  0  0  0  0  0  0  0
    0.0000   -0.0000    0.0000 C   0  0  0  0  0  0  0  0  0  0  0  0
    2.0625   -1.5395    0.0000 H   0  0  0  0  0  0  0  0  0  0  0  0
    2.8875   -0.7145    0.0000 H   0  0  0  0  0  0  0  0  0  0  0  0
    2.0625    0.1105    0.0000 H   0  0  0  0  0  0  0  0  0  0  0  0
    0.5482   -1.1678    0.0000 H   0  0  0  0  0  0  0  0  0  0  0  0
    1.1895   -1.5381    0.0000 H   0  0  0  0  0  0  0  0  0  0  0  0
    1.5143    0.4533    0.0000 H   0  0  0  0  0  0  0  0  0  0  0  0
    0.8730    0.8236    0.0000 H   0  0  0  0  0  0  0  0  0  0  0  0
    0.0000    0.8250    0.0000 H   0  0  0  0  0  0  0  0  0  0  0  0
   -0.8250   -0.0000    0.0000 H   0  0  0  0  0  0  0  0  0  0  0  0
    0.0000   -0.8250    0.0000 H   0  0  0  0  0  0  0  0  0  0  0  0
  1  2  1  0  0  0  0
  2  3  1  0  0  0  0
  3  4  1  0  0  0  0
  1  5  1  0  0  0  0
  1  6  1  0  0  0  0
  1  7  1  0  0  0  0
  2  8  1  0  0  0  0
  2  9  1  0  0  0  0
  3 10  1  0  0  0  0
  3 11  1  0  0  0  0
  4 12  1  0  0  0  0
  4 13  1  0  0  0  0
  4 14  1  0  0  0  0
M  END
>  <InChIKey>
InChI=1S/C4H10/c1-3-4-2/h3-4H2,1-2H3

>  <CASRN>
106-97-8

> <Outcome>
0

>  <Index>
1770

>  <StandardizerResult>
Clear Stereo (ID: ClearStereo)
Wedge Clean (ID: WedgeClean)
Mesomerize (ID: Mesomerize)
Tautomerize (ID: Tautomerize)
Add Explicit Hydrogens (ID: AddExplicitH)
Neutralize (ID: Neutralize)
Clean 2D (ID: Clean2D)

> <knn Distance>
2.44948983192444

> <CpId>
1770

$$$$
1916
  Mrv1532301301811342D          

 71 70  0  0  0  0            999 V2000
    7.1671    5.0165    0.0000 C   0  0  0  0  0  0  0  0  0  0  0  0
    7.8815    5.4290    0.0000 C   0  0  0  0  0  0  0  0  0  0  0  0
    7.8815    6.2540    0.0000 C   0  0  0  0  0  0  0  0  0  0  0  0
    8.5960    5.0165    0.0000 C   0  0  0  0  0  0  0  0  0  0  0  0
    9.3105    5.4290    0.0000 C   0  0  0  0  0  0  0  0  0  0  0  0
   10.0250    5.0165    0.0000 C   0  0  0  0  0  0  0  0  0  0  0  0
   10.7394    5.4290    0.0000 C   0  0  0  0  0  0  0  0  0  0  0  0
   11.4539    5.0165    0.0000 C   0  0  0  0  0  0  0  0  0  0  0  0
   12.1684    5.4290    0.0000 C   0  0  0  0  0  0  0  0  0  0  0  0
   12.8828    5.0165    0.0000 C   0  0  0  0  0  0  0  0  0  0  0  0
   13.5973    5.4290    0.0000 C   0  0  0  0  0  0  0  0  0  0  0  0
   14.3118    5.0165    0.0000 C   0  0  0  0  0  0  0  0  0  0  0  0
   15.0263    5.4290    0.0000 C   0  0  0  0  0  0  0  0  0  0  0  0
   15.7407    5.0165    0.0000 C   0  0  0  0  0  0  0  0  0  0  0  0
   16.4552    5.4290    0.0000 C   0  0  0  0  0  0  0  0  0  0  0  0
   17.1697    5.0165    0.0000 C   0  0  0  0  0  0  0  0  0  0  0  0
   17.8841    5.4290    0.0000 C   0  0  0  0  0  0  0  0  0  0  0  0
   18.5986    5.0165    0.0000 C   0  0  0  0  0  0  0  0  0  0  0  0
   19.3131    5.4290    0.0000 O   0  0  0  0  0  0  0  0  0  0  0  0
   20.0275    5.0165    0.0000 C   0  0  0  0  0  0  0  0  0  0  0  0
   20.0275    4.1915    0.0000 O   0  0  0  0  0  0  0  0  0  0  0  0
   20.7420    5.4290    0.0000 C   0  0  0  0  0  0  0  0  0  0  0  0
   21.4565    5.8415    0.0000 C   0  0  0  0  0  0  0  0  0  0  0  0
   21.1545    4.7145    0.0000 C   0  0  0  0  0  0  0  0  0  0  0  0
   20.3295    6.1435    0.0000 C   0  0  0  0  0  0  0  0  0  0  0  0
    6.7546    5.7310    0.0000 H   0  0  0  0  0  0  0  0  0  0  0  0
    6.4526    4.6040    0.0000 H   0  0  0  0  0  0  0  0  0  0  0  0
    7.5796    4.3020    0.0000 H   0  0  0  0  0  0  0  0  0  0  0  0
    7.1671    5.8415    0.0000 H   0  0  0  0  0  0  0  0  0  0  0  0
    8.6784    6.0405    0.0000 H   0  0  0  0  0  0  0  0  0  0  0  0
    8.2940    6.9685    0.0000 H   0  0  0  0  0  0  0  0  0  0  0  0
    7.2982    6.8374    0.0000 H   0  0  0  0  0  0  0  0  0  0  0  0
    8.2258    4.2793    0.0000 H   0  0  0  0  0  0  0  0  0  0  0  0
    8.9663    4.2793    0.0000 H   0  0  0  0  0  0  0  0  0  0  0  0
    9.8073    6.0877    0.0000 H   0  0  0  0  0  0  0  0  0  0  0  0
    9.3105    4.6040    0.0000 H   0  0  0  0  0  0  0  0  0  0  0  0
   10.1682    4.2040    0.0000 H   0  0  0  0  0  0  0  0  0  0  0  0
   10.6569    4.4862    0.0000 H   0  0  0  0  0  0  0  0  0  0  0  0
   11.1097    6.1663    0.0000 H   0  0  0  0  0  0  0  0  0  0  0  0
   10.3692    6.1663    0.0000 H   0  0  0  0  0  0  0  0  0  0  0  0
   11.4888    4.1923    0.0000 H   0  0  0  0  0  0  0  0  0  0  0  0
   12.1769    4.6192    0.0000 H   0  0  0  0  0  0  0  0  0  0  0  0
   12.5386    6.1663    0.0000 H   0  0  0  0  0  0  0  0  0  0  0  0
   11.7981    6.1663    0.0000 H   0  0  0  0  0  0  0  0  0  0  0  0
   13.0206    4.2031    0.0000 H   0  0  0  0  0  0  0  0  0  0  0  0
   13.5126    4.4835    0.0000 H   0  0  0  0  0  0  0  0  0  0  0  0
   13.9676    6.1663    0.0000 H   0  0  0  0  0  0  0  0  0  0  0  0
   13.2270    6.1663    0.0000 H   0  0  0  0  0  0  0  0  0  0  0  0
   14.3473    4.1923    0.0000 H   0  0  0  0  0  0  0  0  0  0  0  0
   15.0350    4.6195    0.0000 H   0  0  0  0  0  0  0  0  0  0  0  0
   15.3965    6.1663    0.0000 H   0  0  0  0  0  0  0  0  0  0  0  0
   14.6560    6.1663    0.0000 H   0  0  0  0  0  0  0  0  0  0  0  0
   15.8784    4.2031    0.0000 H   0  0  0  0  0  0  0  0  0  0  0  0
   16.3704    4.4835    0.0000 H   0  0  0  0  0  0  0  0  0  0  0  0
   16.8255    6.1663    0.0000 H   0  0  0  0  0  0  0  0  0  0  0  0
   16.0849    6.1663    0.0000 H   0  0  0  0  0  0  0  0  0  0  0  0
   17.2052    4.1923    0.0000 H   0  0  0  0  0  0  0  0  0  0  0  0
   17.8928    4.6195    0.0000 H   0  0  0  0  0  0  0  0  0  0  0  0
   18.2544    6.1663    0.0000 H   0  0  0  0  0  0  0  0  0  0  0  0
   17.5139    6.1663    0.0000 H   0  0  0  0  0  0  0  0  0  0  0  0
   18.7363    4.2031    0.0000 H   0  0  0  0  0  0  0  0  0  0  0  0
   19.2283    4.4835    0.0000 H   0  0  0  0  0  0  0  0  0  0  0  0
   21.8690    5.1270    0.0000 H   0  0  0  0  0  0  0  0  0  0  0  0
   22.1710    6.2540    0.0000 H   0  0  0  0  0  0  0  0  0  0  0  0
   21.0440    6.5560    0.0000 H   0  0  0  0  0  0  0  0  0  0  0  0
   20.3366    4.6069    0.0000 H   0  0  0  0  0  0  0  0  0  0  0  0
   20.9410    3.9177    0.0000 H   0  0  0  0  0  0  0  0  0  0  0  0
   21.8090    4.2123    0.0000 H   0  0  0  0  0  0  0  0  0  0  0  0
   20.2218    6.9614    0.0000 H   0  0  0  0  0  0  0  0  0  0  0  0
   19.5326    6.3570    0.0000 H   0  0  0  0  0  0  0  0  0  0  0  0
   19.8273    5.4890    0.0000 H   0  0  0  0  0  0  0  0  0  0  0  0
  1  2  1  0  0  0  0
  2  3  1  0  0  0  0
  2  4  1  0  0  0  0
  4  5  1  0  0  0  0
  5  6  1  0  0  0  0
  6  7  1  0  0  0  0
  7  8  1  0  0  0  0
  8  9  1  0  0  0  0
  9 10  1  0  0  0  0
 10 11  1  0  0  0  0
 11 12  1  0  0  0  0
 12 13  1  0  0  0  0
 13 14  1  0  0  0  0
 14 15  1  0  0  0  0
 15 16  1  0  0  0  0
 16 17  1  0  0  0  0
 17 18  1  0  0  0  0
 18 19  1  0  0  0  0
 19 20  1  0  0  0  0
 20 21  2  0  0  0  0
 20 22  1  0  0  0  0
 22 23  1  0  0  0  0
 22 24  1  0  0  0  0
 22 25  1  0  0  0  0
  1 26  1  0  0  0  0
  1 27  1  0  0  0  0
  1 28  1  0  0  0  0
  2 29  1  0  0  0  0
  3 30  1  0  0  0  0
  3 31  1  0  0  0  0
  3 32  1  0  0  0  0
  4 33  1  0  0  0  0
  4 34  1  0  0  0  0
  5 35  1  0  0  0  0
  5 36  1  0  0  0  0
  6 37  1  0  0  0  0
  6 38  1  0  0  0  0
  7 39  1  0  0  0  0
  7 40  1  0  0  0  0
  8 41  1  0  0  0  0
  8 42  1  0  0  0  0
  9 43  1  0  0  0  0
  9 44  1  0  0  0  0
 10 45  1  0  0  0  0
 10 46  1  0  0  0  0
 11 47  1  0  0  0  0
 11 48  1  0  0  0  0
 12 49  1  0  0  0  0
 12 50  1  0  0  0  0
 13 51  1  0  0  0  0
 13 52  1  0  0  0  0
 14 53  1  0  0  0  0
 14 54  1  0  0  0  0
 15 55  1  0  0  0  0
 15 56  1  0  0  0  0
 16 57  1  0  0  0  0
 16 58  1  0  0  0  0
 17 59  1  0  0  0  0
 17 60  1  0  0  0  0
 18 61  1  0  0  0  0
 18 62  1  0  0  0  0
 23 63  1  0  0  0  0
 23 64  1  0  0  0  0
 23 65  1  0  0  0  0
 24 66  1  0  0  0  0
 24 67  1  0  0  0  0
 24 68  1  0  0  0  0
 25 69  1  0  0  0  0
 25 70  1  0  0  0  0
 25 71  1  0  0  0  0
M  END
>  <InChIKey>
InChI=1S/C23H46O2/c1-21(2)19-17-15-13-11-9-7-6-8-10-12-14-16-18-20-25-22(24)23(3,4)5/h21H,6-20H2,1-5H3

>  <CASRN>
58958-60-4

> <Outcome>
0

>  <Index>
1916

>  <StandardizerResult>
Clear Stereo (ID: ClearStereo)
Wedge Clean (ID: WedgeClean)
Mesomerize (ID: Mesomerize)
Tautomerize (ID: Tautomerize)
Add Explicit Hydrogens (ID: AddExplicitH)
Neutralize (ID: Neutralize)
Clean 2D (ID: Clean2D)

> <knn Distance>
2.44948983192444

> <CpId>
1916

$$$$
1943
  Mrv1532301301811342D          

  8  7  0  0  0  0            999 V2000
    0.8250    1.4289    0.0000 O   0  0  0  0  0  0  0  0  0  0  0  0
    1.2375    0.7145    0.0000 C   0  0  0  0  0  0  0  0  0  0  0  0
    2.0625    0.7145    0.0000 O   0  0  0  0  0  0  0  0  0  0  0  0
    0.8250   -0.0000    0.0000 C   0  0  0  0  0  0  0  0  0  0  0  0
    1.2375   -0.7145    0.0000 Cl  0  0  0  0  0  0  0  0  0  0  0  0
   -0.0000   -0.0000    0.0000 Cl  0  0  0  0  0  0  0  0  0  0  0  0
    1.2375    2.1434    0.0000 H   0  0  0  0  0  0  0  0  0  0  0  0
    1.6500   -0.0000    0.0000 H   0  0  0  0  0  0  0  0  0  0  0  0
  1  2  1  0  0  0  0
  2  3  2  0  0  0  0
  2  4  1  0  0  0  0
  4  5  1  0  0  0  0
  4  6  1  0  0  0  0
  1  7  1  0  0  0  0
  4  8  1  0  0  0  0
M  END
>  <InChIKey>
InChI=1S/C2H2Cl2O2/c3-1(4)2(5)6/h1H,(H,5,6)

>  <CASRN>
79-43-6

> <Outcome>
0

>  <Index>
1943

>  <StandardizerResult>
Clear Stereo (ID: ClearStereo)
Wedge Clean (ID: WedgeClean)
Mesomerize (ID: Mesomerize)
Tautomerize (ID: Tautomerize)
Add Explicit Hydrogens (ID: AddExplicitH)
Neutralize (ID: Neutralize)
Clean 2D (ID: Clean2D)

> <knn Distance>
2.44948983192444

> <CpId>
1943

$$$$
1958
  Mrv1532301301811342D          

 10  9  0  0  0  0            999 V2000
    2.0625   -0.7145    0.0000 C   0  0  0  0  0  0  0  0  0  0  0  0
    1.2375   -0.7145    0.0000 C   0  0  0  0  0  0  0  0  0  0  0  0
    0.8250   -0.0000    0.0000 C   0  0  0  0  0  0  0  0  0  0  0  0
    0.0000   -0.0000    0.0000 C   0  0  0  0  0  0  0  0  0  0  0  0
    2.4750   -1.4290    0.0000 H   0  0  0  0  0  0  0  0  0  0  0  0
    2.4750   -0.0000    0.0000 H   0  0  0  0  0  0  0  0  0  0  0  0
    0.8250   -1.4290    0.0000 H   0  0  0  0  0  0  0  0  0  0  0  0
    1.2375    0.7145    0.0000 H   0  0  0  0  0  0  0  0  0  0  0  0
   -0.4125    0.7145    0.0000 H   0  0  0  0  0  0  0  0  0  0  0  0
   -0.4125   -0.7145    0.0000 H   0  0  0  0  0  0  0  0  0  0  0  0
  1  2  2  0  0  0  0
  2  3  1  0  0  0  0
  3  4  2  0  0  0  0
  1  5  1  0  0  0  0
  1  6  1  0  0  0  0
  2  7  1  0  0  0  0
  3  8  1  0  0  0  0
  4  9  1  0  0  0  0
  4 10  1  0  0  0  0
M  END
>  <InChIKey>
InChI=1S/C4H6/c1-3-4-2/h3-4H,1-2H2

>  <CASRN>
106-99-0

> <Outcome>
0

>  <Index>
1958

>  <StandardizerResult>
Clear Stereo (ID: ClearStereo)
Wedge Clean (ID: WedgeClean)
Mesomerize (ID: Mesomerize)
Tautomerize (ID: Tautomerize)
Add Explicit Hydrogens (ID: AddExplicitH)
Neutralize (ID: Neutralize)
Clean 2D (ID: Clean2D)

> <knn Distance>
2.44948983192444

> <CpId>
1958

$$$$
2059
  Mrv1532301301811342D          

104103  0  0  0  0            999 V2000
   17.1288   10.7184    0.0000 C   0  0  0  0  0  0  0  0  0  0  0  0
   17.8432   11.1309    0.0000 C   0  0  0  0  0  0  0  0  0  0  0  0
   18.5577   10.7184    0.0000 C   0  0  0  0  0  0  0  0  0  0  0  0
   19.2722   11.1309    0.0000 C   0  0  0  0  0  0  0  0  0  0  0  0
   19.9867   10.7184    0.0000 C   0  0  0  0  0  0  0  0  0  0  0  0
   20.7011   11.1309    0.0000 C   0  0  0  0  0  0  0  0  0  0  0  0
   21.4156   10.7184    0.0000 C   0  0  0  0  0  0  0  0  0  0  0  0
   22.1301   11.1309    0.0000 C   0  0  0  0  0  0  0  0  0  0  0  0
   22.8445   10.7184    0.0000 C   0  0  0  0  0  0  0  0  0  0  0  0
   23.5590   11.1309    0.0000 C   0  0  0  0  0  0  0  0  0  0  0  0
   24.2735   10.7184    0.0000 C   0  0  0  0  0  0  0  0  0  0  0  0
   24.9880   11.1309    0.0000 C   0  0  0  0  0  0  0  0  0  0  0  0
   25.7024   10.7184    0.0000 C   0  0  0  0  0  0  0  0  0  0  0  0
   26.4169   11.1309    0.0000 C   0  0  0  0  0  0  0  0  0  0  0  0
   27.1314   10.7184    0.0000 C   0  0  0  0  0  0  0  0  0  0  0  0
   27.8458   11.1309    0.0000 C   0  0  0  0  0  0  0  0  0  0  0  0
   28.5603   10.7184    0.0000 C   0  0  0  0  0  0  0  0  0  0  0  0
   29.2748   11.1309    0.0000 C   0  0  0  0  0  0  0  0  0  0  0  0
   29.2748   11.9559    0.0000 O   0  0  0  0  0  0  0  0  0  0  0  0
   29.9893   10.7184    0.0000 O   0  0  0  0  0  0  0  0  0  0  0  0
   30.7037   11.1309    0.0000 C   0  0  0  0  0  0  0  0  0  0  0  0
   31.4182   10.7184    0.0000 C   0  0  0  0  0  0  0  0  0  0  0  0
   32.1327   11.1309    0.0000 C   0  0  0  0  0  0  0  0  0  0  0  0
   32.8471   10.7184    0.0000 C   0  0  0  0  0  0  0  0  0  0  0  0
   33.5616   11.1309    0.0000 C   0  0  0  0  0  0  0  0  0  0  0  0
   34.2761   10.7184    0.0000 C   0  0  0  0  0  0  0  0  0  0  0  0
   34.9906   11.1309    0.0000 C   0  0  0  0  0  0  0  0  0  0  0  0
   35.7050   10.7184    0.0000 C   0  0  0  0  0  0  0  0  0  0  0  0
   36.4195   11.1309    0.0000 C   0  0  0  0  0  0  0  0  0  0  0  0
   37.1340   10.7184    0.0000 C   0  0  0  0  0  0  0  0  0  0  0  0
   37.8484   11.1309    0.0000 C   0  0  0  0  0  0  0  0  0  0  0  0
   38.5629   10.7184    0.0000 C   0  0  0  0  0  0  0  0  0  0  0  0
   39.2774   11.1309    0.0000 C   0  0  0  0  0  0  0  0  0  0  0  0
   39.9918   10.7184    0.0000 C   0  0  0  0  0  0  0  0  0  0  0  0
   40.7063   11.1309    0.0000 C   0  0  0  0  0  0  0  0  0  0  0  0
   39.9918    9.8934    0.0000 C   0  0  0  0  0  0  0  0  0  0  0  0
   16.7163   11.4329    0.0000 H   0  0  0  0  0  0  0  0  0  0  0  0
   16.4143   10.3059    0.0000 H   0  0  0  0  0  0  0  0  0  0  0  0
   17.5413   10.0040    0.0000 H   0  0  0  0  0  0  0  0  0  0  0  0
   18.2135   11.8682    0.0000 H   0  0  0  0  0  0  0  0  0  0  0  0
   17.4730   11.8682    0.0000 H   0  0  0  0  0  0  0  0  0  0  0  0
   18.1875    9.9812    0.0000 H   0  0  0  0  0  0  0  0  0  0  0  0
   18.9280    9.9812    0.0000 H   0  0  0  0  0  0  0  0  0  0  0  0
   19.6425   11.8682    0.0000 H   0  0  0  0  0  0  0  0  0  0  0  0
   18.9019   11.8682    0.0000 H   0  0  0  0  0  0  0  0  0  0  0  0
   19.6164    9.9812    0.0000 H   0  0  0  0  0  0  0  0  0  0  0  0
   20.3569    9.9812    0.0000 H   0  0  0  0  0  0  0  0  0  0  0  0
   21.0714   11.8682    0.0000 H   0  0  0  0  0  0  0  0  0  0  0  0
   20.3309   11.8682    0.0000 H   0  0  0  0  0  0  0  0  0  0  0  0
   21.0453    9.9812    0.0000 H   0  0  0  0  0  0  0  0  0  0  0  0
   21.7859    9.9812    0.0000 H   0  0  0  0  0  0  0  0  0  0  0  0
   22.5003   11.8682    0.0000 H   0  0  0  0  0  0  0  0  0  0  0  0
   21.7598   11.8682    0.0000 H   0  0  0  0  0  0  0  0  0  0  0  0
   22.4743    9.9812    0.0000 H   0  0  0  0  0  0  0  0  0  0  0  0
   23.2148    9.9812    0.0000 H   0  0  0  0  0  0  0  0  0  0  0  0
   23.9293   11.8682    0.0000 H   0  0  0  0  0  0  0  0  0  0  0  0
   23.1888   11.8682    0.0000 H   0  0  0  0  0  0  0  0  0  0  0  0
   23.9032    9.9812    0.0000 H   0  0  0  0  0  0  0  0  0  0  0  0
   24.6437    9.9812    0.0000 H   0  0  0  0  0  0  0  0  0  0  0  0
   25.3582   11.8682    0.0000 H   0  0  0  0  0  0  0  0  0  0  0  0
   24.6177   11.8682    0.0000 H   0  0  0  0  0  0  0  0  0  0  0  0
   25.3322    9.9812    0.0000 H   0  0  0  0  0  0  0  0  0  0  0  0
   26.0727    9.9812    0.0000 H   0  0  0  0  0  0  0  0  0  0  0  0
   26.7872   11.8682    0.0000 H   0  0  0  0  0  0  0  0  0  0  0  0
   26.0466   11.8682    0.0000 H   0  0  0  0  0  0  0  0  0  0  0  0
   26.7611    9.9812    0.0000 H   0  0  0  0  0  0  0  0  0  0  0  0
   27.5016    9.9812    0.0000 H   0  0  0  0  0  0  0  0  0  0  0  0
   28.2161   11.8682    0.0000 H   0  0  0  0  0  0  0  0  0  0  0  0
   27.4756   11.8682    0.0000 H   0  0  0  0  0  0  0  0  0  0  0  0
   28.1901    9.9812    0.0000 H   0  0  0  0  0  0  0  0  0  0  0  0
   28.9306    9.9812    0.0000 H   0  0  0  0  0  0  0  0  0  0  0  0
   31.0740   11.8682    0.0000 H   0  0  0  0  0  0  0  0  0  0  0  0
   30.3335   11.8682    0.0000 H   0  0  0  0  0  0  0  0  0  0  0  0
   31.0479    9.9812    0.0000 H   0  0  0  0  0  0  0  0  0  0  0  0
   31.7885    9.9812    0.0000 H   0  0  0  0  0  0  0  0  0  0  0  0
   32.5029   11.8682    0.0000 H   0  0  0  0  0  0  0  0  0  0  0  0
   31.7624   11.8682    0.0000 H   0  0  0  0  0  0  0  0  0  0  0  0
   32.4769    9.9812    0.0000 H   0  0  0  0  0  0  0  0  0  0  0  0
   33.2174    9.9812    0.0000 H   0  0  0  0  0  0  0  0  0  0  0  0
   33.9319   11.8682    0.0000 H   0  0  0  0  0  0  0  0  0  0  0  0
   33.1914   11.8682    0.0000 H   0  0  0  0  0  0  0  0  0  0  0  0
   33.9058    9.9812    0.0000 H   0  0  0  0  0  0  0  0  0  0  0  0
   34.6463    9.9812    0.0000 H   0  0  0  0  0  0  0  0  0  0  0  0
   35.3608   11.8682    0.0000 H   0  0  0  0  0  0  0  0  0  0  0  0
   34.6203   11.8682    0.0000 H   0  0  0  0  0  0  0  0  0  0  0  0
   35.3348    9.9812    0.0000 H   0  0  0  0  0  0  0  0  0  0  0  0
   36.0753    9.9812    0.0000 H   0  0  0  0  0  0  0  0  0  0  0  0
   36.7898   11.8682    0.0000 H   0  0  0  0  0  0  0  0  0  0  0  0
   36.0492   11.8682    0.0000 H   0  0  0  0  0  0  0  0  0  0  0  0
   36.7637    9.9812    0.0000 H   0  0  0  0  0  0  0  0  0  0  0  0
   37.5042    9.9812    0.0000 H   0  0  0  0  0  0  0  0  0  0  0  0
   38.2187   11.8682    0.0000 H   0  0  0  0  0  0  0  0  0  0  0  0
   37.4782   11.8682    0.0000 H   0  0  0  0  0  0  0  0  0  0  0  0
   38.1926    9.9812    0.0000 H   0  0  0  0  0  0  0  0  0  0  0  0
   38.9332    9.9812    0.0000 H   0  0  0  0  0  0  0  0  0  0  0  0
   39.6476   11.8682    0.0000 H   0  0  0  0  0  0  0  0  0  0  0  0
   38.9071   11.8682    0.0000 H   0  0  0  0  0  0  0  0  0  0  0  0
   39.9918   11.5434    0.0000 H   0  0  0  0  0  0  0  0  0  0  0  0
   40.9198   10.3341    0.0000 H   0  0  0  0  0  0  0  0  0  0  0  0
   41.5313   11.1309    0.0000 H   0  0  0  0  0  0  0  0  0  0  0  0
   40.9198   11.9278    0.0000 H   0  0  0  0  0  0  0  0  0  0  0  0
   39.1668    9.8934    0.0000 H   0  0  0  0  0  0  0  0  0  0  0  0
   39.9918    9.0684    0.0000 H   0  0  0  0  0  0  0  0  0  0  0  0
   40.8168    9.8934    0.0000 H   0  0  0  0  0  0  0  0  0  0  0  0
  1  2  1  0  0  0  0
  2  3  1  0  0  0  0
  3  4  1  0  0  0  0
  4  5  1  0  0  0  0
  5  6  1  0  0  0  0
  6  7  1  0  0  0  0
  7  8  1  0  0  0  0
  8  9  1  0  0  0  0
  9 10  1  0  0  0  0
 10 11  1  0  0  0  0
 11 12  1  0  0  0  0
 12 13  1  0  0  0  0
 13 14  1  0  0  0  0
 14 15  1  0  0  0  0
 15 16  1  0  0  0  0
 16 17  1  0  0  0  0
 17 18  1  0  0  0  0
 18 19  2  0  0  0  0
 18 20  1  0  0  0  0
 20 21  1  0  0  0  0
 21 22  1  0  0  0  0
 22 23  1  0  0  0  0
 23 24  1  0  0  0  0
 24 25  1  0  0  0  0
 25 26  1  0  0  0  0
 26 27  1  0  0  0  0
 27 28  1  0  0  0  0
 28 29  1  0  0  0  0
 29 30  1  0  0  0  0
 30 31  1  0  0  0  0
 31 32  1  0  0  0  0
 32 33  1  0  0  0  0
 33 34  1  0  0  0  0
 34 35  1  0  0  0  0
 34 36  1  0  0  0  0
  1 37  1  0  0  0  0
  1 38  1  0  0  0  0
  1 39  1  0  0  0  0
  2 40  1  0  0  0  0
  2 41  1  0  0  0  0
  3 42  1  0  0  0  0
  3 43  1  0  0  0  0
  4 44  1  0  0  0  0
  4 45  1  0  0  0  0
  5 46  1  0  0  0  0
  5 47  1  0  0  0  0
  6 48  1  0  0  0  0
  6 49  1  0  0  0  0
  7 50  1  0  0  0  0
  7 51  1  0  0  0  0
  8 52  1  0  0  0  0
  8 53  1  0  0  0  0
  9 54  1  0  0  0  0
  9 55  1  0  0  0  0
 10 56  1  0  0  0  0
 10 57  1  0  0  0  0
 11 58  1  0  0  0  0
 11 59  1  0  0  0  0
 12 60  1  0  0  0  0
 12 61  1  0  0  0  0
 13 62  1  0  0  0  0
 13 63  1  0  0  0  0
 14 64  1  0  0  0  0
 14 65  1  0  0  0  0
 15 66  1  0  0  0  0
 15 67  1  0  0  0  0
 16 68  1  0  0  0  0
 16 69  1  0  0  0  0
 17 70  1  0  0  0  0
 17 71  1  0  0  0  0
 21 72  1  0  0  0  0
 21 73  1  0  0  0  0
 22 74  1  0  0  0  0
 22 75  1  0  0  0  0
 23 76  1  0  0  0  0
 23 77  1  0  0  0  0
 24 78  1  0  0  0  0
 24 79  1  0  0  0  0
 25 80  1  0  0  0  0
 25 81  1  0  0  0  0
 26 82  1  0  0  0  0
 26 83  1  0  0  0  0
 27 84  1  0  0  0  0
 27 85  1  0  0  0  0
 28 86  1  0  0  0  0
 28 87  1  0  0  0  0
 29 88  1  0  0  0  0
 29 89  1  0  0  0  0
 30 90  1  0  0  0  0
 30 91  1  0  0  0  0
 31 92  1  0  0  0  0
 31 93  1  0  0  0  0
 32 94  1  0  0  0  0
 32 95  1  0  0  0  0
 33 96  1  0  0  0  0
 33 97  1  0  0  0  0
 34 98  1  0  0  0  0
 35 99  1  0  0  0  0
 35100  1  0  0  0  0
 35101  1  0  0  0  0
 36102  1  0  0  0  0
 36103  1  0  0  0  0
 36104  1  0  0  0  0
M  END
>  <InChIKey>
InChI=1S/C34H68O2/c1-4-5-6-7-8-9-10-11-12-13-16-19-22-25-28-31-34(35)36-32-29-26-23-20-17-14-15-18-21-24-27-30-33(2)3/h33H,4-32H2,1-3H3

>  <CASRN>
25339-09-7

> <Outcome>
0

>  <Index>
2059

>  <StandardizerResult>
Clear Stereo (ID: ClearStereo)
Wedge Clean (ID: WedgeClean)
Mesomerize (ID: Mesomerize)
Tautomerize (ID: Tautomerize)
Add Explicit Hydrogens (ID: AddExplicitH)
Neutralize (ID: Neutralize)
Clean 2D (ID: Clean2D)

> <knn Distance>
2.44948983192444

> <CpId>
2059

$$$$
2134
  Mrv1532301301811342D          

 22 21  0  0  0  0            999 V2000
    1.0461    1.4289    0.0000 C   0  0  0  0  0  0  0  0  0  0  0  0
    1.7605    1.8414    0.0000 C   0  0  0  0  0  0  0  0  0  0  0  0
    2.4750    1.4289    0.0000 O   0  0  0  0  0  0  0  0  0  0  0  0
    3.1895    1.8414    0.0000 C   0  0  0  0  0  0  0  0  0  0  0  0
    3.9040    1.4289    0.0000 C   0  0  0  0  0  0  0  0  0  0  0  0
    4.6184    1.8414    0.0000 O   0  0  0  0  0  0  0  0  0  0  0  0
    5.3329    1.4289    0.0000 C   0  0  0  0  0  0  0  0  0  0  0  0
    6.0474    1.8414    0.0000 C   0  0  0  0  0  0  0  0  0  0  0  0
    0.6336    2.1434    0.0000 H   0  0  0  0  0  0  0  0  0  0  0  0
    0.3316    1.0164    0.0000 H   0  0  0  0  0  0  0  0  0  0  0  0
    1.4586    0.7144    0.0000 H   0  0  0  0  0  0  0  0  0  0  0  0
    2.1308    2.5786    0.0000 H   0  0  0  0  0  0  0  0  0  0  0  0
    1.3903    2.5786    0.0000 H   0  0  0  0  0  0  0  0  0  0  0  0
    3.5597    2.5786    0.0000 H   0  0  0  0  0  0  0  0  0  0  0  0
    2.8192    2.5786    0.0000 H   0  0  0  0  0  0  0  0  0  0  0  0
    3.5337    0.6917    0.0000 H   0  0  0  0  0  0  0  0  0  0  0  0
    4.2742    0.6917    0.0000 H   0  0  0  0  0  0  0  0  0  0  0  0
    4.9626    0.6917    0.0000 H   0  0  0  0  0  0  0  0  0  0  0  0
    5.7032    0.6917    0.0000 H   0  0  0  0  0  0  0  0  0  0  0  0
    6.4599    1.1269    0.0000 H   0  0  0  0  0  0  0  0  0  0  0  0
    6.7618    2.2539    0.0000 H   0  0  0  0  0  0  0  0  0  0  0  0
    5.6349    2.5559    0.0000 H   0  0  0  0  0  0  0  0  0  0  0  0
  1  2  1  0  0  0  0
  2  3  1  0  0  0  0
  3  4  1  0  0  0  0
  4  5  1  0  0  0  0
  5  6  1  0  0  0  0
  6  7  1  0  0  0  0
  7  8  1  0  0  0  0
  1  9  1  0  0  0  0
  1 10  1  0  0  0  0
  1 11  1  0  0  0  0
  2 12  1  0  0  0  0
  2 13  1  0  0  0  0
  4 14  1  0  0  0  0
  4 15  1  0  0  0  0
  5 16  1  0  0  0  0
  5 17  1  0  0  0  0
  7 18  1  0  0  0  0
  7 19  1  0  0  0  0
  8 20  1  0  0  0  0
  8 21  1  0  0  0  0
  8 22  1  0  0  0  0
M  END
>  <InChIKey>
InChI=1S/C6H14O2/c1-3-7-5-6-8-4-2/h3-6H2,1-2H3

>  <UN GHS>
Non-irritant

>  <CASRN>
629-14-1

> <Outcome>
0

>  <Index>
2134

>  <StandardizerResult>
Clear Stereo (ID: ClearStereo)
Wedge Clean (ID: WedgeClean)
Mesomerize (ID: Mesomerize)
Tautomerize (ID: Tautomerize)
Add Explicit Hydrogens (ID: AddExplicitH)
Neutralize (ID: Neutralize)
Clean 2D (ID: Clean2D)

> <knn Distance>
2.44948983192444

> <CpId>
2134

$$$$
2212
  Mrv1532301301811342D          

 25 26  0  0  0  0            999 V2000
    2.8445   -0.0029    0.0000 O   0  0  0  0  0  0  0  0  0  0  0  0
    2.1300   -0.4154    0.0000 C   0  0  0  0  0  0  0  0  0  0  0  0
    2.1300   -1.2404    0.0000 C   0  0  0  0  0  0  0  0  0  0  0  0
    2.8445   -1.6529    0.0000 C   0  0  0  0  0  0  0  0  0  0  0  0
    2.8445   -2.4779    0.0000 C   0  0  0  0  0  0  0  0  0  0  0  0
    2.1300   -2.8904    0.0000 C   0  0  0  0  0  0  0  0  0  0  0  0
    1.4155   -2.4779    0.0000 C   0  0  0  0  0  0  0  0  0  0  0  0
    0.7010   -2.8904    0.0000 O   0  0  0  0  0  0  0  0  0  0  0  0
   -0.0134   -2.4779    0.0000 C   0  0  0  0  0  0  0  0  0  0  0  0
   -0.7279   -2.8904    0.0000 C   0  0  0  0  0  0  0  0  0  0  0  0
   -1.4424   -2.4779    0.0000 C   0  0  0  0  0  0  0  0  0  0  0  0
   -1.4424   -1.6529    0.0000 C   0  0  0  0  0  0  0  0  0  0  0  0
   -0.7279   -1.2404    0.0000 C   0  0  0  0  0  0  0  0  0  0  0  0
   -0.0134   -1.6529    0.0000 C   0  0  0  0  0  0  0  0  0  0  0  0
    1.4155   -1.6529    0.0000 C   0  0  0  0  0  0  0  0  0  0  0  0
    1.4155   -0.0029    0.0000 H   0  0  0  0  0  0  0  0  0  0  0  0
    3.5589   -1.2404    0.0000 H   0  0  0  0  0  0  0  0  0  0  0  0
    3.5589   -2.8904    0.0000 H   0  0  0  0  0  0  0  0  0  0  0  0
    2.1300   -3.7154    0.0000 H   0  0  0  0  0  0  0  0  0  0  0  0
   -0.7279   -3.7154    0.0000 H   0  0  0  0  0  0  0  0  0  0  0  0
   -2.1568   -2.8904    0.0000 H   0  0  0  0  0  0  0  0  0  0  0  0
   -2.1568   -1.2404    0.0000 H   0  0  0  0  0  0  0  0  0  0  0  0
   -0.7279   -0.4154    0.0000 H   0  0  0  0  0  0  0  0  0  0  0  0
    0.7010   -1.2404    0.0000 H   0  0  0  0  0  0  0  0  0  0  0  0
    1.4155   -0.8279    0.0000 H   0  0  0  0  0  0  0  0  0  0  0  0
  1  2  2  0  0  0  0
  2  3  1  0  0  0  0
  3  4  4  0  0  0  0
  4  5  4  0  0  0  0
  5  6  4  0  0  0  0
  6  7  4  0  0  0  0
  7  8  1  0  0  0  0
  8  9  1  0  0  0  0
  9 10  4  0  0  0  0
 10 11  4  0  0  0  0
 11 12  4  0  0  0  0
 12 13  4  0  0  0  0
 13 14  4  0  0  0  0
  9 14  4  0  0  0  0
  7 15  4  0  0  0  0
  3 15  4  0  0  0  0
  2 16  1  0  0  0  0
  4 17  1  0  0  0  0
  5 18  1  0  0  0  0
  6 19  1  0  0  0  0
 10 20  1  0  0  0  0
 11 21  1  0  0  0  0
 12 22  1  0  0  0  0
 13 23  1  0  0  0  0
 14 24  1  0  0  0  0
 15 25  1  0  0  0  0
M  END
>  <InChIKey>
InChI=1S/C13H10O2/c14-10-11-5-4-8-13(9-11)15-12-6-2-1-3-7-12/h1-10H

>  <UN GHS>
Non-irritant

>  <CASRN>
39515-51-0

> <Outcome>
0

>  <Index>
2212

>  <StandardizerResult>
Dearomatize (ID: Dearomatize)
Clear Stereo (ID: ClearStereo)
Wedge Clean (ID: WedgeClean)
Mesomerize (ID: Mesomerize)
Tautomerize (ID: Tautomerize)
Aromatize (ID: Aromatize)
Add Explicit Hydrogens (ID: AddExplicitH)
Neutralize (ID: Neutralize)
Clean 2D (ID: Clean2D)

> <knn Distance>
2.44948983192444

> <CpId>
2212

$$$$
2234
  Mrv1532301301811342D          

 24 26  0  0  0  0            999 V2000
    1.4289   -2.4750    0.0000 C   0  0  0  0  0  0  0  0  0  0  0  0
    1.4289   -1.6500    0.0000 C   0  0  0  0  0  0  0  0  0  0  0  0
    2.1434   -1.2375    0.0000 C   0  0  0  0  0  0  0  0  0  0  0  0
    2.8579   -1.6500    0.0000 C   0  0  0  0  0  0  0  0  0  0  0  0
    3.5724   -1.2375    0.0000 C   0  0  0  0  0  0  0  0  0  0  0  0
    4.2868   -1.6500    0.0000 C   0  0  0  0  0  0  0  0  0  0  0  0
    5.0013   -1.2375    0.0000 C   0  0  0  0  0  0  0  0  0  0  0  0
    5.7158   -1.6500    0.0000 C   0  0  0  0  0  0  0  0  0  0  0  0
    5.7158   -2.4750    0.0000 C   0  0  0  0  0  0  0  0  0  0  0  0
    5.0013   -2.8875    0.0000 C   0  0  0  0  0  0  0  0  0  0  0  0
    4.2868   -2.4750    0.0000 C   0  0  0  0  0  0  0  0  0  0  0  0
    3.5724   -2.8875    0.0000 C   0  0  0  0  0  0  0  0  0  0  0  0
    2.8579   -2.4750    0.0000 C   0  0  0  0  0  0  0  0  0  0  0  0
    2.1434   -2.8875    0.0000 C   0  0  0  0  0  0  0  0  0  0  0  0
    0.7145   -2.8875    0.0000 H   0  0  0  0  0  0  0  0  0  0  0  0
    0.7145   -1.2375    0.0000 H   0  0  0  0  0  0  0  0  0  0  0  0
    2.1434   -0.4125    0.0000 H   0  0  0  0  0  0  0  0  0  0  0  0
    3.5724   -0.4125    0.0000 H   0  0  0  0  0  0  0  0  0  0  0  0
    5.0013   -0.4125    0.0000 H   0  0  0  0  0  0  0  0  0  0  0  0
    6.4302   -1.2375    0.0000 H   0  0  0  0  0  0  0  0  0  0  0  0
    6.4302   -2.8875    0.0000 H   0  0  0  0  0  0  0  0  0  0  0  0
    5.0013   -3.7125    0.0000 H   0  0  0  0  0  0  0  0  0  0  0  0
    3.5724   -3.7125    0.0000 H   0  0  0  0  0  0  0  0  0  0  0  0
    2.1434   -3.7125    0.0000 H   0  0  0  0  0  0  0  0  0  0  0  0
  1  2  4  0  0  0  0
  2  3  4  0  0  0  0
  3  4  4  0  0  0  0
  4  5  4  0  0  0  0
  5  6  4  0  0  0  0
  6  7  4  0  0  0  0
  7  8  4  0  0  0  0
  8  9  4  0  0  0  0
  9 10  4  0  0  0  0
 10 11  4  0  0  0  0
  6 11  4  0  0  0  0
 11 12  4  0  0  0  0
 12 13  4  0  0  0  0
  4 13  4  0  0  0  0
 13 14  4  0  0  0  0
  1 14  4  0  0  0  0
  1 15  1  0  0  0  0
  2 16  1  0  0  0  0
  3 17  1  0  0  0  0
  5 18  1  0  0  0  0
  7 19  1  0  0  0  0
  8 20  1  0  0  0  0
  9 21  1  0  0  0  0
 10 22  1  0  0  0  0
 12 23  1  0  0  0  0
 14 24  1  0  0  0  0
M  END
>  <InChIKey>
InChI=1S/C14H10/c1-2-6-12-10-14-8-4-3-7-13(14)9-11(12)5-1/h1-10H

>  <UN GHS>
Non-irritant

>  <CASRN>
120-12-7

> <Outcome>
0

>  <Index>
2234

>  <StandardizerResult>
Dearomatize (ID: Dearomatize)
Clear Stereo (ID: ClearStereo)
Wedge Clean (ID: WedgeClean)
Mesomerize (ID: Mesomerize)
Tautomerize (ID: Tautomerize)
Aromatize (ID: Aromatize)
Add Explicit Hydrogens (ID: AddExplicitH)
Neutralize (ID: Neutralize)
Clean 2D (ID: Clean2D)

> <knn Distance>
2.44948983192444

> <CpId>
2234

$$$$
2248
  Mrv1532301301811342D          

 53 52  0  0  0  0            999 V2000
    6.6834    4.7026    0.0000 C   0  0  0  0  0  0  0  0  0  0  0  0
    7.3979    4.2901    0.0000 C   0  0  0  0  0  0  0  0  0  0  0  0
    8.1124    4.7026    0.0000 C   0  0  0  0  0  0  0  0  0  0  0  0
    8.8269    4.2901    0.0000 C   0  0  0  0  0  0  0  0  0  0  0  0
    9.5413    4.7026    0.0000 C   0  0  0  0  0  0  0  0  0  0  0  0
    9.5413    5.5276    0.0000 C   0  0  0  0  0  0  0  0  0  0  0  0
   10.2558    5.9401    0.0000 C   0  0  0  0  0  0  0  0  0  0  0  0
   10.2558    4.2901    0.0000 C   0  0  0  0  0  0  0  0  0  0  0  0
   10.9703    4.7026    0.0000 O   0  0  0  0  0  0  0  0  0  0  0  0
   11.6847    4.2901    0.0000 C   0  0  0  0  0  0  0  0  0  0  0  0
   11.6847    3.4651    0.0000 O   0  0  0  0  0  0  0  0  0  0  0  0
   12.3992    4.7026    0.0000 C   0  0  0  0  0  0  0  0  0  0  0  0
   13.1137    4.2901    0.0000 C   0  0  0  0  0  0  0  0  0  0  0  0
   13.8281    4.7026    0.0000 C   0  0  0  0  0  0  0  0  0  0  0  0
   14.5426    4.2901    0.0000 C   0  0  0  0  0  0  0  0  0  0  0  0
   15.2571    4.7026    0.0000 C   0  0  0  0  0  0  0  0  0  0  0  0
   15.9716    4.2901    0.0000 C   0  0  0  0  0  0  0  0  0  0  0  0
   16.6860    4.7026    0.0000 C   0  0  0  0  0  0  0  0  0  0  0  0
   15.9716    3.4651    0.0000 C   0  0  0  0  0  0  0  0  0  0  0  0
    7.0959    5.4170    0.0000 H   0  0  0  0  0  0  0  0  0  0  0  0
    5.9690    5.1151    0.0000 H   0  0  0  0  0  0  0  0  0  0  0  0
    6.2709    3.9881    0.0000 H   0  0  0  0  0  0  0  0  0  0  0  0
    7.0276    3.5528    0.0000 H   0  0  0  0  0  0  0  0  0  0  0  0
    7.7682    3.5528    0.0000 H   0  0  0  0  0  0  0  0  0  0  0  0
    8.4826    5.4398    0.0000 H   0  0  0  0  0  0  0  0  0  0  0  0
    7.7421    5.4398    0.0000 H   0  0  0  0  0  0  0  0  0  0  0  0
    8.4566    3.5528    0.0000 H   0  0  0  0  0  0  0  0  0  0  0  0
    9.1971    3.5528    0.0000 H   0  0  0  0  0  0  0  0  0  0  0  0
    8.8269    5.1151    0.0000 H   0  0  0  0  0  0  0  0  0  0  0  0
    9.3981    6.3400    0.0000 H   0  0  0  0  0  0  0  0  0  0  0  0
    8.9093    6.0579    0.0000 H   0  0  0  0  0  0  0  0  0  0  0  0
   10.4867    5.1480    0.0000 H   0  0  0  0  0  0  0  0  0  0  0  0
   11.0800    5.9761    0.0000 H   0  0  0  0  0  0  0  0  0  0  0  0
   10.4167    6.7492    0.0000 H   0  0  0  0  0  0  0  0  0  0  0  0
    9.8855    3.5528    0.0000 H   0  0  0  0  0  0  0  0  0  0  0  0
   10.6261    3.5528    0.0000 H   0  0  0  0  0  0  0  0  0  0  0  0
   12.7695    5.4398    0.0000 H   0  0  0  0  0  0  0  0  0  0  0  0
   12.0289    5.4398    0.0000 H   0  0  0  0  0  0  0  0  0  0  0  0
   12.7434    3.5528    0.0000 H   0  0  0  0  0  0  0  0  0  0  0  0
   13.4839    3.5528    0.0000 H   0  0  0  0  0  0  0  0  0  0  0  0
   14.1984    5.4398    0.0000 H   0  0  0  0  0  0  0  0  0  0  0  0
   13.4579    5.4398    0.0000 H   0  0  0  0  0  0  0  0  0  0  0  0
   14.1724    3.5528    0.0000 H   0  0  0  0  0  0  0  0  0  0  0  0
   14.9129    3.5528    0.0000 H   0  0  0  0  0  0  0  0  0  0  0  0
   15.6273    5.4398    0.0000 H   0  0  0  0  0  0  0  0  0  0  0  0
   14.8868    5.4398    0.0000 H   0  0  0  0  0  0  0  0  0  0  0  0
   15.9716    5.1151    0.0000 H   0  0  0  0  0  0  0  0  0  0  0  0
   16.8996    3.9057    0.0000 H   0  0  0  0  0  0  0  0  0  0  0  0
   17.5110    4.7026    0.0000 H   0  0  0  0  0  0  0  0  0  0  0  0
   16.8996    5.4995    0.0000 H   0  0  0  0  0  0  0  0  0  0  0  0
   15.1466    3.4651    0.0000 H   0  0  0  0  0  0  0  0  0  0  0  0
   15.9716    2.6401    0.0000 H   0  0  0  0  0  0  0  0  0  0  0  0
   16.7966    3.4651    0.0000 H   0  0  0  0  0  0  0  0  0  0  0  0
  1  2  1  0  0  0  0
  2  3  1  0  0  0  0
  3  4  1  0  0  0  0
  4  5  1  0  0  0  0
  5  6  1  0  0  0  0
  6  7  1  0  0  0  0
  5  8  1  0  0  0  0
  8  9  1  0  0  0  0
  9 10  1  0  0  0  0
 10 11  2  0  0  0  0
 10 12  1  0  0  0  0
 12 13  1  0  0  0  0
 13 14  1  0  0  0  0
 14 15  1  0  0  0  0
 15 16  1  0  0  0  0
 16 17  1  0  0  0  0
 17 18  1  0  0  0  0
 17 19  1  0  0  0  0
  1 20  1  0  0  0  0
  1 21  1  0  0  0  0
  1 22  1  0  0  0  0
  2 23  1  0  0  0  0
  2 24  1  0  0  0  0
  3 25  1  0  0  0  0
  3 26  1  0  0  0  0
  4 27  1  0  0  0  0
  4 28  1  0  0  0  0
  5 29  1  0  0  0  0
  6 30  1  0  0  0  0
  6 31  1  0  0  0  0
  7 32  1  0  0  0  0
  7 33  1  0  0  0  0
  7 34  1  0  0  0  0
  8 35  1  0  0  0  0
  8 36  1  0  0  0  0
 12 37  1  0  0  0  0
 12 38  1  0  0  0  0
 13 39  1  0  0  0  0
 13 40  1  0  0  0  0
 14 41  1  0  0  0  0
 14 42  1  0  0  0  0
 15 43  1  0  0  0  0
 15 44  1  0  0  0  0
 16 45  1  0  0  0  0
 16 46  1  0  0  0  0
 17 47  1  0  0  0  0
 18 48  1  0  0  0  0
 18 49  1  0  0  0  0
 18 50  1  0  0  0  0
 19 51  1  0  0  0  0
 19 52  1  0  0  0  0
 19 53  1  0  0  0  0
M  END
>  <InChIKey>
InChI=1S/C17H34O2/c1-5-7-12-16(6-2)14-19-17(18)13-10-8-9-11-15(3)4/h15-16H,5-14H2,1-4H3

>  <CASRN>
71566-49-9

> <Outcome>
0

>  <Index>
2248

>  <StandardizerResult>
Clear Stereo (ID: ClearStereo)
Wedge Clean (ID: WedgeClean)
Mesomerize (ID: Mesomerize)
Tautomerize (ID: Tautomerize)
Add Explicit Hydrogens (ID: AddExplicitH)
Neutralize (ID: Neutralize)
Clean 2D (ID: Clean2D)

> <knn Distance>
2.44948983192444

> <CpId>
2248

$$$$
2274
  Mrv1532301301811342D          

 22 21  0  0  0  0            999 V2000
    1.7605    1.8430    0.0000 C   0  0  0  0  0  0  0  0  0  0  0  0
    2.4750    1.4305    0.0000 C   0  0  0  0  0  0  0  0  0  0  0  0
    3.1895    1.8430    0.0000 C   0  0  0  0  0  0  0  0  0  0  0  0
    3.9039    1.4305    0.0000 C   0  0  0  0  0  0  0  0  0  0  0  0
    4.6184    1.8430    0.0000 C   0  0  0  0  0  0  0  0  0  0  0  0
    4.6184    2.6680    0.0000 O   0  0  0  0  0  0  0  0  0  0  0  0
    5.3329    1.4305    0.0000 C   0  0  0  0  0  0  0  0  0  0  0  0
    6.0474    1.8430    0.0000 C   0  0  0  0  0  0  0  0  0  0  0  0
    2.1730    2.5575    0.0000 H   0  0  0  0  0  0  0  0  0  0  0  0
    1.0461    2.2555    0.0000 H   0  0  0  0  0  0  0  0  0  0  0  0
    1.3480    1.1285    0.0000 H   0  0  0  0  0  0  0  0  0  0  0  0
    2.1047    0.6933    0.0000 H   0  0  0  0  0  0  0  0  0  0  0  0
    2.8453    0.6933    0.0000 H   0  0  0  0  0  0  0  0  0  0  0  0
    3.5597    2.5802    0.0000 H   0  0  0  0  0  0  0  0  0  0  0  0
    2.8192    2.5802    0.0000 H   0  0  0  0  0  0  0  0  0  0  0  0
    3.5337    0.6933    0.0000 H   0  0  0  0  0  0  0  0  0  0  0  0
    4.2742    0.6933    0.0000 H   0  0  0  0  0  0  0  0  0  0  0  0
    4.9626    0.6933    0.0000 H   0  0  0  0  0  0  0  0  0  0  0  0
    5.7031    0.6933    0.0000 H   0  0  0  0  0  0  0  0  0  0  0  0
    6.4599    1.1285    0.0000 H   0  0  0  0  0  0  0  0  0  0  0  0
    6.7618    2.2555    0.0000 H   0  0  0  0  0  0  0  0  0  0  0  0
    5.6349    2.5575    0.0000 H   0  0  0  0  0  0  0  0  0  0  0  0
  1  2  1  0  0  0  0
  2  3  1  0  0  0  0
  3  4  1  0  0  0  0
  4  5  1  0  0  0  0
  5  6  2  0  0  0  0
  5  7  1  0  0  0  0
  7  8  1  0  0  0  0
  1  9  1  0  0  0  0
  1 10  1  0  0  0  0
  1 11  1  0  0  0  0
  2 12  1  0  0  0  0
  2 13  1  0  0  0  0
  3 14  1  0  0  0  0
  3 15  1  0  0  0  0
  4 16  1  0  0  0  0
  4 17  1  0  0  0  0
  7 18  1  0  0  0  0
  7 19  1  0  0  0  0
  8 20  1  0  0  0  0
  8 21  1  0  0  0  0
  8 22  1  0  0  0  0
M  END
>  <InChIKey>
InChI=1S/C7H14O/c1-3-5-6-7(8)4-2/h3-6H2,1-2H3

>  <CASRN>
106-35-4

> <Outcome>
0

>  <Index>
2274

>  <StandardizerResult>
Clear Stereo (ID: ClearStereo)
Wedge Clean (ID: WedgeClean)
Mesomerize (ID: Mesomerize)
Tautomerize (ID: Tautomerize)
Add Explicit Hydrogens (ID: AddExplicitH)
Neutralize (ID: Neutralize)
Clean 2D (ID: Clean2D)

> <knn Distance>
2.44948983192444

> <CpId>
2274

$$$$
2293
  Mrv1532301301811342D          

 28 27  0  0  0  0            999 V2000
    2.2836    2.1434    0.0000 C   0  0  0  0  0  0  0  0  0  0  0  0
    2.9980    2.5559    0.0000 C   0  0  0  0  0  0  0  0  0  0  0  0
    3.7125    2.1434    0.0000 C   0  0  0  0  0  0  0  0  0  0  0  0
    4.4270    2.5559    0.0000 C   0  0  0  0  0  0  0  0  0  0  0  0
    5.1414    2.1434    0.0000 C   0  0  0  0  0  0  0  0  0  0  0  0
    5.8559    2.5559    0.0000 C   0  0  0  0  0  0  0  0  0  0  0  0
    6.5704    2.1434    0.0000 C   0  0  0  0  0  0  0  0  0  0  0  0
    7.2849    2.5559    0.0000 C   0  0  0  0  0  0  0  0  0  0  0  0
    7.9993    2.1434    0.0000 C   0  0  0  0  0  0  0  0  0  0  0  0
    8.7138    2.5559    0.0000 C   0  0  0  0  0  0  0  0  0  0  0  0
    1.5691    2.5559    0.0000 H   0  0  0  0  0  0  0  0  0  0  0  0
    2.2836    1.3184    0.0000 H   0  0  0  0  0  0  0  0  0  0  0  0
    2.9980    3.3809    0.0000 H   0  0  0  0  0  0  0  0  0  0  0  0
    3.3422    1.4062    0.0000 H   0  0  0  0  0  0  0  0  0  0  0  0
    4.0828    1.4062    0.0000 H   0  0  0  0  0  0  0  0  0  0  0  0
    4.7972    3.2931    0.0000 H   0  0  0  0  0  0  0  0  0  0  0  0
    4.0567    3.2931    0.0000 H   0  0  0  0  0  0  0  0  0  0  0  0
    4.7712    1.4062    0.0000 H   0  0  0  0  0  0  0  0  0  0  0  0
    5.5117    1.4062    0.0000 H   0  0  0  0  0  0  0  0  0  0  0  0
    6.2262    3.2931    0.0000 H   0  0  0  0  0  0  0  0  0  0  0  0
    5.4857    3.2931    0.0000 H   0  0  0  0  0  0  0  0  0  0  0  0
    6.2001    1.4062    0.0000 H   0  0  0  0  0  0  0  0  0  0  0  0
    6.9406    1.4062    0.0000 H   0  0  0  0  0  0  0  0  0  0  0  0
    7.6551    3.2931    0.0000 H   0  0  0  0  0  0  0  0  0  0  0  0
    6.9146    3.2931    0.0000 H   0  0  0  0  0  0  0  0  0  0  0  0
    7.9993    1.3184    0.0000 H   0  0  0  0  0  0  0  0  0  0  0  0
    9.4283    2.1434    0.0000 H   0  0  0  0  0  0  0  0  0  0  0  0
    8.7138    3.3809    0.0000 H   0  0  0  0  0  0  0  0  0  0  0  0
  1  2  2  0  0  0  0
  2  3  1  0  0  0  0
  3  4  1  0  0  0  0
  4  5  1  0  0  0  0
  5  6  1  0  0  0  0
  6  7  1  0  0  0  0
  7  8  1  0  0  0  0
  8  9  1  0  0  0  0
  9 10  2  0  0  0  0
  1 11  1  0  0  0  0
  1 12  1  0  0  0  0
  2 13  1  0  0  0  0
  3 14  1  0  0  0  0
  3 15  1  0  0  0  0
  4 16  1  0  0  0  0
  4 17  1  0  0  0  0
  5 18  1  0  0  0  0
  5 19  1  0  0  0  0
  6 20  1  0  0  0  0
  6 21  1  0  0  0  0
  7 22  1  0  0  0  0
  7 23  1  0  0  0  0
  8 24  1  0  0  0  0
  8 25  1  0  0  0  0
  9 26  1  0  0  0  0
 10 27  1  0  0  0  0
 10 28  1  0  0  0  0
M  END
>  <InChIKey>
InChI=1S/C10H18/c1-3-5-7-9-10-8-6-4-2/h3-4H,1-2,5-10H2

>  <UN GHS>
Non-irritant

>  <CASRN>
1647-16-1  1647-16-1

> <Outcome>
0

>  <Index>
2293

>  <StandardizerResult>
Clear Stereo (ID: ClearStereo)
Wedge Clean (ID: WedgeClean)
Mesomerize (ID: Mesomerize)
Tautomerize (ID: Tautomerize)
Add Explicit Hydrogens (ID: AddExplicitH)
Neutralize (ID: Neutralize)
Clean 2D (ID: Clean2D)

> <knn Distance>
2.44948983192444

> <CpId>
2293

$$$$
2613
  Mrv1532301301811342D          

 19 18  0  0  0  0            999 V2000
   -0.1914    0.7136    0.0000 C   0  0  0  0  0  0  0  0  0  0  0  0
    0.5230    1.1261    0.0000 C   0  0  0  0  0  0  0  0  0  0  0  0
    1.2375    0.7136    0.0000 C   0  0  0  0  0  0  0  0  0  0  0  0
    1.9520    1.1261    0.0000 C   0  0  0  0  0  0  0  0  0  0  0  0
    2.6664    0.7136    0.0000 C   0  0  0  0  0  0  0  0  0  0  0  0
    3.3809    1.1261    0.0000 C   0  0  0  0  0  0  0  0  0  0  0  0
    2.6664   -0.1114    0.0000 O   0  0  0  0  0  0  0  0  0  0  0  0
   -0.6039    1.4280    0.0000 H   0  0  0  0  0  0  0  0  0  0  0  0
   -0.9059    0.3011    0.0000 H   0  0  0  0  0  0  0  0  0  0  0  0
    0.2211   -0.0009    0.0000 H   0  0  0  0  0  0  0  0  0  0  0  0
    0.8933    1.8633    0.0000 H   0  0  0  0  0  0  0  0  0  0  0  0
    0.1528    1.8633    0.0000 H   0  0  0  0  0  0  0  0  0  0  0  0
    0.8672   -0.0237    0.0000 H   0  0  0  0  0  0  0  0  0  0  0  0
    1.6078   -0.0237    0.0000 H   0  0  0  0  0  0  0  0  0  0  0  0
    2.3222    1.8633    0.0000 H   0  0  0  0  0  0  0  0  0  0  0  0
    1.5817    1.8633    0.0000 H   0  0  0  0  0  0  0  0  0  0  0  0
    3.7934    0.4116    0.0000 H   0  0  0  0  0  0  0  0  0  0  0  0
    4.0954    1.5386    0.0000 H   0  0  0  0  0  0  0  0  0  0  0  0
    2.9684    1.8405    0.0000 H   0  0  0  0  0  0  0  0  0  0  0  0
  1  2  1  0  0  0  0
  2  3  1  0  0  0  0
  3  4  1  0  0  0  0
  4  5  1  0  0  0  0
  5  6  1  0  0  0  0
  5  7  2  0  0  0  0
  1  8  1  0  0  0  0
  1  9  1  0  0  0  0
  1 10  1  0  0  0  0
  2 11  1  0  0  0  0
  2 12  1  0  0  0  0
  3 13  1  0  0  0  0
  3 14  1  0  0  0  0
  4 15  1  0  0  0  0
  4 16  1  0  0  0  0
  6 17  1  0  0  0  0
  6 18  1  0  0  0  0
  6 19  1  0  0  0  0
M  END
>  <InChIKey>
InChI=1S/C6H12O/c1-3-4-5-6(2)7/h3-5H2,1-2H3

>  <CASRN>
591-78-6

> <Outcome>
0

>  <Index>
2613

>  <StandardizerResult>
Clear Stereo (ID: ClearStereo)
Wedge Clean (ID: WedgeClean)
Mesomerize (ID: Mesomerize)
Tautomerize (ID: Tautomerize)
Add Explicit Hydrogens (ID: AddExplicitH)
Neutralize (ID: Neutralize)
Clean 2D (ID: Clean2D)

> <knn Distance>
2.44948983192444

> <CpId>
2613

$$$$
2801
  Mrv1532301301811342D          

 46 45  0  0  0  0            999 V2000
    5.9961    4.2864    0.0000 C   0  0  0  0  0  0  0  0  0  0  0  0
    6.7105    4.6989    0.0000 C   0  0  0  0  0  0  0  0  0  0  0  0
    7.4250    4.2864    0.0000 C   0  0  0  0  0  0  0  0  0  0  0  0
    8.1395    4.6989    0.0000 C   0  0  0  0  0  0  0  0  0  0  0  0
    8.8539    4.2864    0.0000 C   0  0  0  0  0  0  0  0  0  0  0  0
    9.5684    4.6989    0.0000 C   0  0  0  0  0  0  0  0  0  0  0  0
   10.2829    4.2864    0.0000 C   0  0  0  0  0  0  0  0  0  0  0  0
   10.9974    4.6989    0.0000 C   0  0  0  0  0  0  0  0  0  0  0  0
   11.7118    4.2864    0.0000 C   0  0  0  0  0  0  0  0  0  0  0  0
   12.4263    4.6989    0.0000 C   0  0  0  0  0  0  0  0  0  0  0  0
   13.1408    4.2864    0.0000 C   0  0  0  0  0  0  0  0  0  0  0  0
   13.8552    4.6989    0.0000 C   0  0  0  0  0  0  0  0  0  0  0  0
   14.5697    4.2864    0.0000 O   0  0  0  0  0  0  0  0  0  0  0  0
   15.2842    4.6989    0.0000 C   0  0  0  0  0  0  0  0  0  0  0  0
   15.9987    4.2864    0.0000 C   0  0  0  0  0  0  0  0  0  0  0  0
   16.7131    4.6989    0.0000 O   0  0  0  0  0  0  0  0  0  0  0  0
    5.5836    5.0009    0.0000 H   0  0  0  0  0  0  0  0  0  0  0  0
    5.2816    3.8739    0.0000 H   0  0  0  0  0  0  0  0  0  0  0  0
    6.4086    3.5719    0.0000 H   0  0  0  0  0  0  0  0  0  0  0  0
    7.0808    5.4362    0.0000 H   0  0  0  0  0  0  0  0  0  0  0  0
    6.3403    5.4362    0.0000 H   0  0  0  0  0  0  0  0  0  0  0  0
    7.0547    3.5492    0.0000 H   0  0  0  0  0  0  0  0  0  0  0  0
    7.7953    3.5492    0.0000 H   0  0  0  0  0  0  0  0  0  0  0  0
    8.5097    5.4362    0.0000 H   0  0  0  0  0  0  0  0  0  0  0  0
    7.7692    5.4362    0.0000 H   0  0  0  0  0  0  0  0  0  0  0  0
    8.4837    3.5492    0.0000 H   0  0  0  0  0  0  0  0  0  0  0  0
    9.2242    3.5492    0.0000 H   0  0  0  0  0  0  0  0  0  0  0  0
    9.9387    5.4362    0.0000 H   0  0  0  0  0  0  0  0  0  0  0  0
    9.1982    5.4362    0.0000 H   0  0  0  0  0  0  0  0  0  0  0  0
    9.9126    3.5492    0.0000 H   0  0  0  0  0  0  0  0  0  0  0  0
   10.6531    3.5492    0.0000 H   0  0  0  0  0  0  0  0  0  0  0  0
   11.3676    5.4362    0.0000 H   0  0  0  0  0  0  0  0  0  0  0  0
   10.6271    5.4362    0.0000 H   0  0  0  0  0  0  0  0  0  0  0  0
   11.3416    3.5492    0.0000 H   0  0  0  0  0  0  0  0  0  0  0  0
   12.0821    3.5492    0.0000 H   0  0  0  0  0  0  0  0  0  0  0  0
   12.7966    5.4362    0.0000 H   0  0  0  0  0  0  0  0  0  0  0  0
   12.0560    5.4362    0.0000 H   0  0  0  0  0  0  0  0  0  0  0  0
   12.7705    3.5492    0.0000 H   0  0  0  0  0  0  0  0  0  0  0  0
   13.5110    3.5492    0.0000 H   0  0  0  0  0  0  0  0  0  0  0  0
   14.2255    5.4362    0.0000 H   0  0  0  0  0  0  0  0  0  0  0  0
   13.4850    5.4362    0.0000 H   0  0  0  0  0  0  0  0  0  0  0  0
   15.6544    5.4362    0.0000 H   0  0  0  0  0  0  0  0  0  0  0  0
   14.9139    5.4362    0.0000 H   0  0  0  0  0  0  0  0  0  0  0  0
   15.6284    3.5492    0.0000 H   0  0  0  0  0  0  0  0  0  0  0  0
   16.3689    3.5492    0.0000 H   0  0  0  0  0  0  0  0  0  0  0  0
   17.4276    4.2864    0.0000 H   0  0  0  0  0  0  0  0  0  0  0  0
  1  2  1  0  0  0  0
  2  3  1  0  0  0  0
  3  4  1  0  0  0  0
  4  5  1  0  0  0  0
  5  6  1  0  0  0  0
  6  7  1  0  0  0  0
  7  8  1  0  0  0  0
  8  9  1  0  0  0  0
  9 10  1  0  0  0  0
 10 11  1  0  0  0  0
 11 12  1  0  0  0  0
 12 13  1  0  0  0  0
 13 14  1  0  0  0  0
 14 15  1  0  0  0  0
 15 16  1  0  0  0  0
  1 17  1  0  0  0  0
  1 18  1  0  0  0  0
  1 19  1  0  0  0  0
  2 20  1  0  0  0  0
  2 21  1  0  0  0  0
  3 22  1  0  0  0  0
  3 23  1  0  0  0  0
  4 24  1  0  0  0  0
  4 25  1  0  0  0  0
  5 26  1  0  0  0  0
  5 27  1  0  0  0  0
  6 28  1  0  0  0  0
  6 29  1  0  0  0  0
  7 30  1  0  0  0  0
  7 31  1  0  0  0  0
  8 32  1  0  0  0  0
  8 33  1  0  0  0  0
  9 34  1  0  0  0  0
  9 35  1  0  0  0  0
 10 36  1  0  0  0  0
 10 37  1  0  0  0  0
 11 38  1  0  0  0  0
 11 39  1  0  0  0  0
 12 40  1  0  0  0  0
 12 41  1  0  0  0  0
 14 42  1  0  0  0  0
 14 43  1  0  0  0  0
 15 44  1  0  0  0  0
 15 45  1  0  0  0  0
 16 46  1  0  0  0  0
M  END
>  <InChIKey>
InChI=1S/C14H30O2/c1-2-3-4-5-6-7-8-9-10-11-13-16-14-12-15/h15H,2-14H2,1H3

>  <UN GHS>
Non-irritant

>  <CASRN>
9002-92-0

> <Outcome>
0

>  <Index>
2801

>  <StandardizerResult>
Clear Stereo (ID: ClearStereo)
Wedge Clean (ID: WedgeClean)
Mesomerize (ID: Mesomerize)
Tautomerize (ID: Tautomerize)
Add Explicit Hydrogens (ID: AddExplicitH)
Neutralize (ID: Neutralize)
Clean 2D (ID: Clean2D)

> <knn Distance>
2.44948983192444

> <CpId>
2801

$$$$
2803
  Mrv1532301301811342D          

 25 24  0  0  0  0            999 V2000
    2.9980    2.5566    0.0000 C   0  0  0  0  0  0  0  0  0  0  0  0
    3.7125    2.1441    0.0000 C   0  0  0  0  0  0  0  0  0  0  0  0
    4.4270    2.5566    0.0000 O   0  0  0  0  0  0  0  0  0  0  0  0
    5.1414    2.1441    0.0000 C   0  0  0  0  0  0  0  0  0  0  0  0
    5.8559    2.5566    0.0000 C   0  0  0  0  0  0  0  0  0  0  0  0
    6.5704    2.1441    0.0000 O   0  0  0  0  0  0  0  0  0  0  0  0
    7.2848    2.5566    0.0000 C   0  0  0  0  0  0  0  0  0  0  0  0
    7.2848    3.3816    0.0000 O   0  0  0  0  0  0  0  0  0  0  0  0
    7.9993    2.1441    0.0000 C   0  0  0  0  0  0  0  0  0  0  0  0
    8.7138    2.5566    0.0000 C   0  0  0  0  0  0  0  0  0  0  0  0
    7.9993    1.3191    0.0000 C   0  0  0  0  0  0  0  0  0  0  0  0
    3.4105    3.2711    0.0000 H   0  0  0  0  0  0  0  0  0  0  0  0
    2.2835    2.9691    0.0000 H   0  0  0  0  0  0  0  0  0  0  0  0
    2.5855    1.8421    0.0000 H   0  0  0  0  0  0  0  0  0  0  0  0
    3.3422    1.4069    0.0000 H   0  0  0  0  0  0  0  0  0  0  0  0
    4.0827    1.4069    0.0000 H   0  0  0  0  0  0  0  0  0  0  0  0
    4.7712    1.4069    0.0000 H   0  0  0  0  0  0  0  0  0  0  0  0
    5.5117    1.4069    0.0000 H   0  0  0  0  0  0  0  0  0  0  0  0
    6.2262    3.2939    0.0000 H   0  0  0  0  0  0  0  0  0  0  0  0
    5.4856    3.2939    0.0000 H   0  0  0  0  0  0  0  0  0  0  0  0
    9.1263    1.8421    0.0000 H   0  0  0  0  0  0  0  0  0  0  0  0
    9.4283    2.9691    0.0000 H   0  0  0  0  0  0  0  0  0  0  0  0
    8.3013    3.2711    0.0000 H   0  0  0  0  0  0  0  0  0  0  0  0
    7.2848    0.9066    0.0000 H   0  0  0  0  0  0  0  0  0  0  0  0
    8.7138    0.9066    0.0000 H   0  0  0  0  0  0  0  0  0  0  0  0
  1  2  1  0  0  0  0
  2  3  1  0  0  0  0
  3  4  1  0  0  0  0
  4  5  1  0  0  0  0
  5  6  1  0  0  0  0
  6  7  1  0  0  0  0
  7  8  2  0  0  0  0
  7  9  1  0  0  0  0
  9 10  1  0  0  0  0
  9 11  2  0  0  0  0
  1 12  1  0  0  0  0
  1 13  1  0  0  0  0
  1 14  1  0  0  0  0
  2 15  1  0  0  0  0
  2 16  1  0  0  0  0
  4 17  1  0  0  0  0
  4 18  1  0  0  0  0
  5 19  1  0  0  0  0
  5 20  1  0  0  0  0
 10 21  1  0  0  0  0
 10 22  1  0  0  0  0
 10 23  1  0  0  0  0
 11 24  1  0  0  0  0
 11 25  1  0  0  0  0
M  END
>  <InChIKey>
InChI=1S/C8H14O3/c1-4-10-5-6-11-8(9)7(2)3/h2,4-6H2,1,3H3

>  <UN GHS>
Non-irritant

>  <CASRN>
2370-63-0  2370-63-0

> <Outcome>
0

>  <Index>
2803

>  <StandardizerResult>
Clear Stereo (ID: ClearStereo)
Wedge Clean (ID: WedgeClean)
Mesomerize (ID: Mesomerize)
Tautomerize (ID: Tautomerize)
Add Explicit Hydrogens (ID: AddExplicitH)
Neutralize (ID: Neutralize)
Clean 2D (ID: Clean2D)

> <knn Distance>
2.44948983192444

> <CpId>
2803

$$$$
2807
  Mrv1532301301811342D          

 20 19  0  0  0  0            999 V2000
    1.0461    1.4289    0.0000 Br  0  0  0  0  0  0  0  0  0  0  0  0
    1.7605    1.8414    0.0000 C   0  0  0  0  0  0  0  0  0  0  0  0
    2.4750    1.4289    0.0000 C   0  0  0  0  0  0  0  0  0  0  0  0
    3.1895    1.8414    0.0000 C   0  0  0  0  0  0  0  0  0  0  0  0
    3.9039    1.4289    0.0000 C   0  0  0  0  0  0  0  0  0  0  0  0
    4.6184    1.8414    0.0000 C   0  0  0  0  0  0  0  0  0  0  0  0
    5.3329    1.4289    0.0000 C   0  0  0  0  0  0  0  0  0  0  0  0
    6.0474    1.8414    0.0000 Br  0  0  0  0  0  0  0  0  0  0  0  0
    2.1308    2.5786    0.0000 H   0  0  0  0  0  0  0  0  0  0  0  0
    1.3903    2.5786    0.0000 H   0  0  0  0  0  0  0  0  0  0  0  0
    2.1047    0.6917    0.0000 H   0  0  0  0  0  0  0  0  0  0  0  0
    2.8453    0.6917    0.0000 H   0  0  0  0  0  0  0  0  0  0  0  0
    3.5597    2.5786    0.0000 H   0  0  0  0  0  0  0  0  0  0  0  0
    2.8192    2.5786    0.0000 H   0  0  0  0  0  0  0  0  0  0  0  0
    3.5337    0.6917    0.0000 H   0  0  0  0  0  0  0  0  0  0  0  0
    4.2742    0.6917    0.0000 H   0  0  0  0  0  0  0  0  0  0  0  0
    4.9887    2.5786    0.0000 H   0  0  0  0  0  0  0  0  0  0  0  0
    4.2481    2.5786    0.0000 H   0  0  0  0  0  0  0  0  0  0  0  0
    4.9626    0.6917    0.0000 H   0  0  0  0  0  0  0  0  0  0  0  0
    5.7031    0.6917    0.0000 H   0  0  0  0  0  0  0  0  0  0  0  0
  1  2  1  0  0  0  0
  2  3  1  0  0  0  0
  3  4  1  0  0  0  0
  4  5  1  0  0  0  0
  5  6  1  0  0  0  0
  6  7  1  0  0  0  0
  7  8  1  0  0  0  0
  2  9  1  0  0  0  0
  2 10  1  0  0  0  0
  3 11  1  0  0  0  0
  3 12  1  0  0  0  0
  4 13  1  0  0  0  0
  4 14  1  0  0  0  0
  5 15  1  0  0  0  0
  5 16  1  0  0  0  0
  6 17  1  0  0  0  0
  6 18  1  0  0  0  0
  7 19  1  0  0  0  0
  7 20  1  0  0  0  0
M  END
>  <InChIKey>
InChI=1S/C6H12Br2/c7-5-3-1-2-4-6-8/h1-6H2

>  <UN GHS>
Non-irritant

>  <CASRN>
629-03-8

> <Outcome>
0

>  <Index>
2807

>  <StandardizerResult>
Clear Stereo (ID: ClearStereo)
Wedge Clean (ID: WedgeClean)
Mesomerize (ID: Mesomerize)
Tautomerize (ID: Tautomerize)
Add Explicit Hydrogens (ID: AddExplicitH)
Neutralize (ID: Neutralize)
Clean 2D (ID: Clean2D)

> <knn Distance>
2.44948983192444

> <CpId>
2807

$$$$
2817
  Mrv1532301301811342D          

 22 23  0  0  0  0            999 V2000
    0.0000   -2.4750    0.0000 O   0  0  0  0  0  0  0  0  0  0  0  0
    0.0000   -1.6500    0.0000 C   0  0  0  0  0  0  0  0  0  0  0  0
   -0.7145   -1.2375    0.0000 O   0  0  0  0  0  0  0  0  0  0  0  0
    0.7145   -1.2375    0.0000 C   0  0  0  0  0  0  0  0  0  0  0  0
    0.7145   -0.4125    0.0000 C   0  0  0  0  0  0  0  0  0  0  0  0
    1.4289   -0.0000    0.0000 C   0  0  0  0  0  0  0  0  0  0  0  0
    2.1434   -0.4125    0.0000 C   0  0  0  0  0  0  0  0  0  0  0  0
    2.8579   -0.0000    0.0000 C   0  0  0  0  0  0  0  0  0  0  0  0
    3.5724   -0.4125    0.0000 C   0  0  0  0  0  0  0  0  0  0  0  0
    3.5724   -1.2375    0.0000 C   0  0  0  0  0  0  0  0  0  0  0  0
    2.8579   -1.6500    0.0000 C   0  0  0  0  0  0  0  0  0  0  0  0
    2.1434   -1.2375    0.0000 C   0  0  0  0  0  0  0  0  0  0  0  0
    1.4289   -1.6500    0.0000 C   0  0  0  0  0  0  0  0  0  0  0  0
    1.4289   -2.4750    0.0000 O   0  0  0  0  0  0  0  0  0  0  0  0
   -0.7145   -2.8875    0.0000 H   0  0  0  0  0  0  0  0  0  0  0  0
    0.0000   -0.0000    0.0000 H   0  0  0  0  0  0  0  0  0  0  0  0
    1.4289    0.8250    0.0000 H   0  0  0  0  0  0  0  0  0  0  0  0
    2.8579    0.8250    0.0000 H   0  0  0  0  0  0  0  0  0  0  0  0
    4.2868   -0.0000    0.0000 H   0  0  0  0  0  0  0  0  0  0  0  0
    4.2868   -1.6500    0.0000 H   0  0  0  0  0  0  0  0  0  0  0  0
    2.8579   -2.4750    0.0000 H   0  0  0  0  0  0  0  0  0  0  0  0
    0.7145   -2.8875    0.0000 H   0  0  0  0  0  0  0  0  0  0  0  0
  1  2  1  0  0  0  0
  2  3  2  0  0  0  0
  2  4  1  0  0  0  0
  4  5  4  0  0  0  0
  5  6  4  0  0  0  0
  6  7  4  0  0  0  0
  7  8  4  0  0  0  0
  8  9  4  0  0  0  0
  9 10  4  0  0  0  0
 10 11  4  0  0  0  0
 11 12  4  0  0  0  0
  7 12  4  0  0  0  0
 12 13  4  0  0  0  0
  4 13  4  0  0  0  0
 13 14  1  0  0  0  0
  1 15  1  0  0  0  0
  5 16  1  0  0  0  0
  6 17  1  0  0  0  0
  8 18  1  0  0  0  0
  9 19  1  0  0  0  0
 10 20  1  0  0  0  0
 11 21  1  0  0  0  0
 14 22  1  0  0  0  0
M  END
>  <InChIKey>
InChI=1S/C11H8O3/c12-10-8-4-2-1-3-7(8)5-6-9(10)11(13)14/h1-6,12H,(H,13,14)

>  <CASRN>
86-48-6

> <Outcome>
0

>  <Index>
2817

>  <StandardizerResult>
Dearomatize (ID: Dearomatize)
Clear Stereo (ID: ClearStereo)
Wedge Clean (ID: WedgeClean)
Mesomerize (ID: Mesomerize)
Tautomerize (ID: Tautomerize)
Aromatize (ID: Aromatize)
Add Explicit Hydrogens (ID: AddExplicitH)
Neutralize (ID: Neutralize)
Clean 2D (ID: Clean2D)

> <knn Distance>
2.44948983192444

> <CpId>
2817

$$$$
2822
  Mrv1532301301811342D          

 56 55  0  0  0  0            999 V2000
    7.2240    5.0084    0.0000 C   0  0  0  0  0  0  0  0  0  0  0  0
    7.9384    5.4209    0.0000 C   0  0  0  0  0  0  0  0  0  0  0  0
    8.6529    5.0084    0.0000 C   0  0  0  0  0  0  0  0  0  0  0  0
    9.3674    5.4209    0.0000 C   0  0  0  0  0  0  0  0  0  0  0  0
   10.0818    5.0084    0.0000 C   0  0  0  0  0  0  0  0  0  0  0  0
   10.7963    5.4209    0.0000 C   0  0  0  0  0  0  0  0  0  0  0  0
   11.5108    5.0084    0.0000 C   0  0  0  0  0  0  0  0  0  0  0  0
   12.2253    5.4209    0.0000 C   0  0  0  0  0  0  0  0  0  0  0  0
   12.9397    5.0084    0.0000 C   0  0  0  0  0  0  0  0  0  0  0  0
   13.6542    5.4209    0.0000 C   0  0  0  0  0  0  0  0  0  0  0  0
   14.3687    5.0084    0.0000 C   0  0  0  0  0  0  0  0  0  0  0  0
   15.0831    5.4209    0.0000 C   0  0  0  0  0  0  0  0  0  0  0  0
   15.7976    5.0084    0.0000 C   0  0  0  0  0  0  0  0  0  0  0  0
   16.5121    5.4209    0.0000 C   0  0  0  0  0  0  0  0  0  0  0  0
   16.5121    6.2459    0.0000 O   0  0  0  0  0  0  0  0  0  0  0  0
   17.2266    5.0084    0.0000 O   0  0  0  0  0  0  0  0  0  0  0  0
   17.9410    5.4209    0.0000 C   0  0  0  0  0  0  0  0  0  0  0  0
   18.6555    5.0084    0.0000 C   0  0  0  0  0  0  0  0  0  0  0  0
   19.3700    5.4209    0.0000 C   0  0  0  0  0  0  0  0  0  0  0  0
   18.6555    4.1834    0.0000 C   0  0  0  0  0  0  0  0  0  0  0  0
    6.8115    5.7228    0.0000 H   0  0  0  0  0  0  0  0  0  0  0  0
    6.5095    4.5959    0.0000 H   0  0  0  0  0  0  0  0  0  0  0  0
    7.6365    4.2939    0.0000 H   0  0  0  0  0  0  0  0  0  0  0  0
    8.3087    6.1581    0.0000 H   0  0  0  0  0  0  0  0  0  0  0  0
    7.5682    6.1581    0.0000 H   0  0  0  0  0  0  0  0  0  0  0  0
    8.2826    4.2711    0.0000 H   0  0  0  0  0  0  0  0  0  0  0  0
    9.0232    4.2711    0.0000 H   0  0  0  0  0  0  0  0  0  0  0  0
    9.7376    6.1581    0.0000 H   0  0  0  0  0  0  0  0  0  0  0  0
    8.9971    6.1581    0.0000 H   0  0  0  0  0  0  0  0  0  0  0  0
    9.7116    4.2711    0.0000 H   0  0  0  0  0  0  0  0  0  0  0  0
   10.4521    4.2711    0.0000 H   0  0  0  0  0  0  0  0  0  0  0  0
   11.1666    6.1581    0.0000 H   0  0  0  0  0  0  0  0  0  0  0  0
   10.4261    6.1581    0.0000 H   0  0  0  0  0  0  0  0  0  0  0  0
   11.1405    4.2711    0.0000 H   0  0  0  0  0  0  0  0  0  0  0  0
   11.8810    4.2711    0.0000 H   0  0  0  0  0  0  0  0  0  0  0  0
   12.5955    6.1581    0.0000 H   0  0  0  0  0  0  0  0  0  0  0  0
   11.8550    6.1581    0.0000 H   0  0  0  0  0  0  0  0  0  0  0  0
   12.5695    4.2711    0.0000 H   0  0  0  0  0  0  0  0  0  0  0  0
   13.3100    4.2711    0.0000 H   0  0  0  0  0  0  0  0  0  0  0  0
   14.0245    6.1581    0.0000 H   0  0  0  0  0  0  0  0  0  0  0  0
   13.2839    6.1581    0.0000 H   0  0  0  0  0  0  0  0  0  0  0  0
   13.9984    4.2711    0.0000 H   0  0  0  0  0  0  0  0  0  0  0  0
   14.7389    4.2711    0.0000 H   0  0  0  0  0  0  0  0  0  0  0  0
   15.4534    6.1581    0.0000 H   0  0  0  0  0  0  0  0  0  0  0  0
   14.7129    6.1581    0.0000 H   0  0  0  0  0  0  0  0  0  0  0  0
   15.4274    4.2711    0.0000 H   0  0  0  0  0  0  0  0  0  0  0  0
   16.1679    4.2711    0.0000 H   0  0  0  0  0  0  0  0  0  0  0  0
   18.3113    6.1581    0.0000 H   0  0  0  0  0  0  0  0  0  0  0  0
   17.5708    6.1581    0.0000 H   0  0  0  0  0  0  0  0  0  0  0  0
   18.6555    5.8334    0.0000 H   0  0  0  0  0  0  0  0  0  0  0  0
   19.5835    4.6240    0.0000 H   0  0  0  0  0  0  0  0  0  0  0  0
   20.1950    5.4209    0.0000 H   0  0  0  0  0  0  0  0  0  0  0  0
   19.5835    6.2177    0.0000 H   0  0  0  0  0  0  0  0  0  0  0  0
   17.8305    4.1834    0.0000 H   0  0  0  0  0  0  0  0  0  0  0  0
   18.6555    3.3584    0.0000 H   0  0  0  0  0  0  0  0  0  0  0  0
   19.4805    4.1834    0.0000 H   0  0  0  0  0  0  0  0  0  0  0  0
  1  2  1  0  0  0  0
  2  3  1  0  0  0  0
  3  4  1  0  0  0  0
  4  5  1  0  0  0  0
  5  6  1  0  0  0  0
  6  7  1  0  0  0  0
  7  8  1  0  0  0  0
  8  9  1  0  0  0  0
  9 10  1  0  0  0  0
 10 11  1  0  0  0  0
 11 12  1  0  0  0  0
 12 13  1  0  0  0  0
 13 14  1  0  0  0  0
 14 15  2  0  0  0  0
 14 16  1  0  0  0  0
 16 17  1  0  0  0  0
 17 18  1  0  0  0  0
 18 19  1  0  0  0  0
 18 20  1  0  0  0  0
  1 21  1  0  0  0  0
  1 22  1  0  0  0  0
  1 23  1  0  0  0  0
  2 24  1  0  0  0  0
  2 25  1  0  0  0  0
  3 26  1  0  0  0  0
  3 27  1  0  0  0  0
  4 28  1  0  0  0  0
  4 29  1  0  0  0  0
  5 30  1  0  0  0  0
  5 31  1  0  0  0  0
  6 32  1  0  0  0  0
  6 33  1  0  0  0  0
  7 34  1  0  0  0  0
  7 35  1  0  0  0  0
  8 36  1  0  0  0  0
  8 37  1  0  0  0  0
  9 38  1  0  0  0  0
  9 39  1  0  0  0  0
 10 40  1  0  0  0  0
 10 41  1  0  0  0  0
 11 42  1  0  0  0  0
 11 43  1  0  0  0  0
 12 44  1  0  0  0  0
 12 45  1  0  0  0  0
 13 46  1  0  0  0  0
 13 47  1  0  0  0  0
 17 48  1  0  0  0  0
 17 49  1  0  0  0  0
 18 50  1  0  0  0  0
 19 51  1  0  0  0  0
 19 52  1  0  0  0  0
 19 53  1  0  0  0  0
 20 54  1  0  0  0  0
 20 55  1  0  0  0  0
 20 56  1  0  0  0  0
M  END
>  <InChIKey>
InChI=1S/C18H36O2/c1-4-5-6-7-8-9-10-11-12-13-14-15-18(19)20-16-17(2)3/h17H,4-16H2,1-3H3

>  <CASRN>
25263-97-2

> <Outcome>
0

>  <Index>
2822

>  <StandardizerResult>
Clear Stereo (ID: ClearStereo)
Wedge Clean (ID: WedgeClean)
Mesomerize (ID: Mesomerize)
Tautomerize (ID: Tautomerize)
Add Explicit Hydrogens (ID: AddExplicitH)
Neutralize (ID: Neutralize)
Clean 2D (ID: Clean2D)

> <knn Distance>
2.44948983192444

> <CpId>
2822

$$$$
2837
  Mrv1532301301811342D          

 38 37  0  0  0  0            999 V2000
    3.5211    2.8579    0.0000 C   0  0  0  0  0  0  0  0  0  0  0  0
    4.2355    3.2704    0.0000 C   0  0  0  0  0  0  0  0  0  0  0  0
    4.9500    2.8579    0.0000 C   0  0  0  0  0  0  0  0  0  0  0  0
    5.6645    3.2704    0.0000 C   0  0  0  0  0  0  0  0  0  0  0  0
    6.3789    2.8579    0.0000 C   0  0  0  0  0  0  0  0  0  0  0  0
    7.0934    3.2704    0.0000 C   0  0  0  0  0  0  0  0  0  0  0  0
    7.8079    2.8579    0.0000 C   0  0  0  0  0  0  0  0  0  0  0  0
    8.5224    3.2704    0.0000 C   0  0  0  0  0  0  0  0  0  0  0  0
    9.2368    2.8579    0.0000 C   0  0  0  0  0  0  0  0  0  0  0  0
    9.9513    3.2704    0.0000 C   0  0  0  0  0  0  0  0  0  0  0  0
   10.6658    2.8579    0.0000 C   0  0  0  0  0  0  0  0  0  0  0  0
   11.3802    3.2704    0.0000 C   0  0  0  0  0  0  0  0  0  0  0  0
    3.1086    3.5724    0.0000 H   0  0  0  0  0  0  0  0  0  0  0  0
    2.8066    2.4454    0.0000 H   0  0  0  0  0  0  0  0  0  0  0  0
    3.9336    2.1434    0.0000 H   0  0  0  0  0  0  0  0  0  0  0  0
    4.6058    4.0076    0.0000 H   0  0  0  0  0  0  0  0  0  0  0  0
    3.8653    4.0076    0.0000 H   0  0  0  0  0  0  0  0  0  0  0  0
    4.5797    2.1207    0.0000 H   0  0  0  0  0  0  0  0  0  0  0  0
    5.3203    2.1207    0.0000 H   0  0  0  0  0  0  0  0  0  0  0  0
    6.0347    4.0076    0.0000 H   0  0  0  0  0  0  0  0  0  0  0  0
    5.2942    4.0076    0.0000 H   0  0  0  0  0  0  0  0  0  0  0  0
    6.0087    2.1207    0.0000 H   0  0  0  0  0  0  0  0  0  0  0  0
    6.7492    2.1207    0.0000 H   0  0  0  0  0  0  0  0  0  0  0  0
    7.4637    4.0076    0.0000 H   0  0  0  0  0  0  0  0  0  0  0  0
    6.7232    4.0076    0.0000 H   0  0  0  0  0  0  0  0  0  0  0  0
    7.4376    2.1207    0.0000 H   0  0  0  0  0  0  0  0  0  0  0  0
    8.1781    2.1207    0.0000 H   0  0  0  0  0  0  0  0  0  0  0  0
    8.8926    4.0076    0.0000 H   0  0  0  0  0  0  0  0  0  0  0  0
    8.1521    4.0076    0.0000 H   0  0  0  0  0  0  0  0  0  0  0  0
    8.8666    2.1207    0.0000 H   0  0  0  0  0  0  0  0  0  0  0  0
    9.6071    2.1207    0.0000 H   0  0  0  0  0  0  0  0  0  0  0  0
   10.3216    4.0076    0.0000 H   0  0  0  0  0  0  0  0  0  0  0  0
    9.5810    4.0076    0.0000 H   0  0  0  0  0  0  0  0  0  0  0  0
   10.2955    2.1207    0.0000 H   0  0  0  0  0  0  0  0  0  0  0  0
   11.0360    2.1207    0.0000 H   0  0  0  0  0  0  0  0  0  0  0  0
   11.7927    2.5559    0.0000 H   0  0  0  0  0  0  0  0  0  0  0  0
   12.0947    3.6829    0.0000 H   0  0  0  0  0  0  0  0  0  0  0  0
   10.9677    3.9849    0.0000 H   0  0  0  0  0  0  0  0  0  0  0  0
  1  2  1  0  0  0  0
  2  3  1  0  0  0  0
  3  4  1  0  0  0  0
  4  5  1  0  0  0  0
  5  6  1  0  0  0  0
  6  7  1  0  0  0  0
  7  8  1  0  0  0  0
  8  9  1  0  0  0  0
  9 10  1  0  0  0  0
 10 11  1  0  0  0  0
 11 12  1  0  0  0  0
  1 13  1  0  0  0  0
  1 14  1  0  0  0  0
  1 15  1  0  0  0  0
  2 16  1  0  0  0  0
  2 17  1  0  0  0  0
  3 18  1  0  0  0  0
  3 19  1  0  0  0  0
  4 20  1  0  0  0  0
  4 21  1  0  0  0  0
  5 22  1  0  0  0  0
  5 23  1  0  0  0  0
  6 24  1  0  0  0  0
  6 25  1  0  0  0  0
  7 26  1  0  0  0  0
  7 27  1  0  0  0  0
  8 28  1  0  0  0  0
  8 29  1  0  0  0  0
  9 30  1  0  0  0  0
  9 31  1  0  0  0  0
 10 32  1  0  0  0  0
 10 33  1  0  0  0  0
 11 34  1  0  0  0  0
 11 35  1  0  0  0  0
 12 36  1  0  0  0  0
 12 37  1  0  0  0  0
 12 38  1  0  0  0  0
M  END
>  <InChIKey>
InChI=1S/C12H26/c1-3-5-7-9-11-12-10-8-6-4-2/h3-12H2,1-2H3

>  <UN GHS>
Non-irritant

>  <CASRN>
112-40-3  112-40-3

> <Outcome>
0

>  <Index>
2837

>  <StandardizerResult>
Clear Stereo (ID: ClearStereo)
Wedge Clean (ID: WedgeClean)
Mesomerize (ID: Mesomerize)
Tautomerize (ID: Tautomerize)
Add Explicit Hydrogens (ID: AddExplicitH)
Neutralize (ID: Neutralize)
Clean 2D (ID: Clean2D)

> <knn Distance>
2.44948983192444

> <CpId>
2837

$$$$
2935
  Mrv1532301301811342D          

  2  1  0  0  0  0            999 V2000
    0.8250    0.0000    0.0000 C   0  5  0  0  0  0  0  0  0  0  0  0
    0.0000    0.0000    0.0000 O   0  3  0  0  0  0  0  0  0  0  0  0
  1  2  3  0  0  0  0
M  CHG  2   1  -1   2   1
M  END
>  <InChIKey>
InChI=1S/CO/c1-2

>  <UN GHS>
Non-irritant

>  <CASRN>
13463-40-6

> <Outcome>
0

>  <Index>
2935

>  <StandardizerResult>
Mesomerize (ID: Mesomerize)
Tautomerize (ID: Tautomerize)
Clean 2D (ID: Clean2D)

> <knn Distance>
2.44948983192444

> <CpId>
2935

$$$$
2951
  Mrv1532301301811342D          

 56 55  0  0  0  0            999 V2000
    1.7370   -2.7006    0.0000 C   0  0  0  0  0  0  0  0  0  0  0  0
    1.7370   -1.8756    0.0000 C   0  0  0  0  0  0  0  0  0  0  0  0
    2.4515   -1.4631    0.0000 C   0  0  0  0  0  0  0  0  0  0  0  0
    3.1659   -1.8756    0.0000 C   0  0  0  0  0  0  0  0  0  0  0  0
    3.8804   -1.4631    0.0000 O   0  0  0  0  0  0  0  0  0  0  0  0
    4.5949   -1.8756    0.0000 C   0  0  0  0  0  0  0  0  0  0  0  0
    4.5949   -2.7006    0.0000 O   0  0  0  0  0  0  0  0  0  0  0  0
    5.3093   -1.4631    0.0000 C   0  0  0  0  0  0  0  0  0  0  0  0
    6.0238   -1.8756    0.0000 C   0  0  0  0  0  0  0  0  0  0  0  0
    6.0238   -2.7006    0.0000 C   0  0  0  0  0  0  0  0  0  0  0  0
    6.7383   -1.4631    0.0000 C   0  0  0  0  0  0  0  0  0  0  0  0
    7.4528   -1.8756    0.0000 C   0  0  0  0  0  0  0  0  0  0  0  0
    8.1672   -2.2881    0.0000 C   0  0  0  0  0  0  0  0  0  0  0  0
    7.8653   -1.1611    0.0000 C   0  0  0  0  0  0  0  0  0  0  0  0
    7.0403   -2.5900    0.0000 C   0  0  0  0  0  0  0  0  0  0  0  0
    1.0225   -1.4631    0.0000 C   0  0  0  0  0  0  0  0  0  0  0  0
    0.3080   -1.8756    0.0000 C   0  0  0  0  0  0  0  0  0  0  0  0
   -0.4064   -2.2881    0.0000 C   0  0  0  0  0  0  0  0  0  0  0  0
   -0.1045   -1.1611    0.0000 C   0  0  0  0  0  0  0  0  0  0  0  0
    0.7205   -2.5900    0.0000 C   0  0  0  0  0  0  0  0  0  0  0  0
    0.9120   -2.7006    0.0000 H   0  0  0  0  0  0  0  0  0  0  0  0
    1.7370   -3.5256    0.0000 H   0  0  0  0  0  0  0  0  0  0  0  0
    2.5620   -2.7006    0.0000 H   0  0  0  0  0  0  0  0  0  0  0  0
    2.4515   -2.2881    0.0000 H   0  0  0  0  0  0  0  0  0  0  0  0
    2.8217   -0.7258    0.0000 H   0  0  0  0  0  0  0  0  0  0  0  0
    2.0812   -0.7258    0.0000 H   0  0  0  0  0  0  0  0  0  0  0  0
    3.3092   -2.6880    0.0000 H   0  0  0  0  0  0  0  0  0  0  0  0
    3.7979   -2.4059    0.0000 H   0  0  0  0  0  0  0  0  0  0  0  0
    5.6796   -0.7258    0.0000 H   0  0  0  0  0  0  0  0  0  0  0  0
    4.9391   -0.7258    0.0000 H   0  0  0  0  0  0  0  0  0  0  0  0
    5.3093   -2.2881    0.0000 H   0  0  0  0  0  0  0  0  0  0  0  0
    5.4405   -3.2839    0.0000 H   0  0  0  0  0  0  0  0  0  0  0  0
    6.4363   -3.4150    0.0000 H   0  0  0  0  0  0  0  0  0  0  0  0
    6.8207   -2.4870    0.0000 H   0  0  0  0  0  0  0  0  0  0  0  0
    7.1085   -0.7258    0.0000 H   0  0  0  0  0  0  0  0  0  0  0  0
    6.3680   -0.7258    0.0000 H   0  0  0  0  0  0  0  0  0  0  0  0
    7.7547   -3.0025    0.0000 H   0  0  0  0  0  0  0  0  0  0  0  0
    8.8817   -2.7006    0.0000 H   0  0  0  0  0  0  0  0  0  0  0  0
    8.5797   -1.5736    0.0000 H   0  0  0  0  0  0  0  0  0  0  0  0
    8.6621   -0.9472    0.0000 H   0  0  0  0  0  0  0  0  0  0  0  0
    8.2772   -0.4463    0.0000 H   0  0  0  0  0  0  0  0  0  0  0  0
    7.6508   -0.3645    0.0000 H   0  0  0  0  0  0  0  0  0  0  0  0
    6.2586   -2.8539    0.0000 H   0  0  0  0  0  0  0  0  0  0  0  0
    6.6585   -3.3214    0.0000 H   0  0  0  0  0  0  0  0  0  0  0  0
    7.2707   -3.3822    0.0000 H   0  0  0  0  0  0  0  0  0  0  0  0
    1.3928   -0.7258    0.0000 H   0  0  0  0  0  0  0  0  0  0  0  0
    0.6523   -0.7258    0.0000 H   0  0  0  0  0  0  0  0  0  0  0  0
   -0.8189   -1.5736    0.0000 H   0  0  0  0  0  0  0  0  0  0  0  0
   -1.1209   -2.7006    0.0000 H   0  0  0  0  0  0  0  0  0  0  0  0
    0.0061   -3.0025    0.0000 H   0  0  0  0  0  0  0  0  0  0  0  0
    0.1100   -0.3645    0.0000 H   0  0  0  0  0  0  0  0  0  0  0  0
   -0.5164   -0.4463    0.0000 H   0  0  0  0  0  0  0  0  0  0  0  0
   -0.9013   -0.9472    0.0000 H   0  0  0  0  0  0  0  0  0  0  0  0
    1.4958   -2.3079    0.0000 H   0  0  0  0  0  0  0  0  0  0  0  0
    1.0027   -1.8148    0.0000 H   0  0  0  0  0  0  0  0  0  0  0  0
    0.7205   -3.4150    0.0000 H   0  0  0  0  0  0  0  0  0  0  0  0
  1  2  1  0  0  0  0
  2  3  1  0  0  0  0
  3  4  1  0  0  0  0
  4  5  1  0  0  0  0
  5  6  1  0  0  0  0
  6  7  2  0  0  0  0
  6  8  1  0  0  0  0
  8  9  1  0  0  0  0
  9 10  1  0  0  0  0
  9 11  1  0  0  0  0
 11 12  1  0  0  0  0
 12 13  1  0  0  0  0
 12 14  1  0  0  0  0
 12 15  1  0  0  0  0
  2 16  1  0  0  0  0
 16 17  1  0  0  0  0
 17 18  1  0  0  0  0
 17 19  1  0  0  0  0
 17 20  1  0  0  0  0
  1 21  1  0  0  0  0
  1 22  1  0  0  0  0
  1 23  1  0  0  0  0
  2 24  1  0  0  0  0
  3 25  1  0  0  0  0
  3 26  1  0  0  0  0
  4 27  1  0  0  0  0
  4 28  1  0  0  0  0
  8 29  1  0  0  0  0
  8 30  1  0  0  0  0
  9 31  1  0  0  0  0
 10 32  1  0  0  0  0
 10 33  1  0  0  0  0
 10 34  1  0  0  0  0
 11 35  1  0  0  0  0
 11 36  1  0  0  0  0
 13 37  1  0  0  0  0
 13 38  1  0  0  0  0
 13 39  1  0  0  0  0
 14 40  1  0  0  0  0
 14 41  1  0  0  0  0
 14 42  1  0  0  0  0
 15 43  1  0  0  0  0
 15 44  1  0  0  0  0
 15 45  1  0  0  0  0
 16 46  1  0  0  0  0
 16 47  1  0  0  0  0
 18 48  1  0  0  0  0
 18 49  1  0  0  0  0
 18 50  1  0  0  0  0
 19 51  1  0  0  0  0
 19 52  1  0  0  0  0
 19 53  1  0  0  0  0
 20 54  1  0  0  0  0
 20 55  1  0  0  0  0
 20 56  1  0  0  0  0
M  END
>  <InChIKey>
InChI=1S/C18H36O2/c1-14(12-17(3,4)5)9-10-20-16(19)11-15(2)13-18(6,7)8/h14-15H,9-13H2,1-8H3

>  <CASRN>
59219-71-5

> <Outcome>
0

>  <Index>
2951

>  <StandardizerResult>
Clear Stereo (ID: ClearStereo)
Wedge Clean (ID: WedgeClean)
Mesomerize (ID: Mesomerize)
Tautomerize (ID: Tautomerize)
Add Explicit Hydrogens (ID: AddExplicitH)
Neutralize (ID: Neutralize)
Clean 2D (ID: Clean2D)

> <knn Distance>
2.44948983192444

> <CpId>
2951

$$$$
3055
  Mrv1532301301811342D          

 32 31  0  0  0  0            999 V2000
    3.5211    2.8579    0.0000 C   0  0  0  0  0  0  0  0  0  0  0  0
    4.2355    3.2704    0.0000 C   0  0  0  0  0  0  0  0  0  0  0  0
    4.9500    2.8579    0.0000 O   0  0  0  0  0  0  0  0  0  0  0  0
    5.6645    3.2704    0.0000 C   0  0  0  0  0  0  0  0  0  0  0  0
    5.6645    4.0954    0.0000 O   0  0  0  0  0  0  0  0  0  0  0  0
    6.3789    2.8579    0.0000 C   0  0  0  0  0  0  0  0  0  0  0  0
    7.0934    3.2704    0.0000 C   0  0  0  0  0  0  0  0  0  0  0  0
    7.8079    2.8579    0.0000 C   0  0  0  0  0  0  0  0  0  0  0  0
    8.5224    3.2704    0.0000 C   0  0  0  0  0  0  0  0  0  0  0  0
    9.2368    2.8579    0.0000 C   0  0  0  0  0  0  0  0  0  0  0  0
    9.2368    2.0329    0.0000 O   0  0  0  0  0  0  0  0  0  0  0  0
    9.9513    3.2704    0.0000 O   0  0  0  0  0  0  0  0  0  0  0  0
   10.6658    2.8579    0.0000 C   0  0  0  0  0  0  0  0  0  0  0  0
   11.3802    3.2704    0.0000 C   0  0  0  0  0  0  0  0  0  0  0  0
    3.1086    3.5724    0.0000 H   0  0  0  0  0  0  0  0  0  0  0  0
    2.8066    2.4454    0.0000 H   0  0  0  0  0  0  0  0  0  0  0  0
    3.9336    2.1434    0.0000 H   0  0  0  0  0  0  0  0  0  0  0  0
    4.6058    4.0076    0.0000 H   0  0  0  0  0  0  0  0  0  0  0  0
    3.8653    4.0076    0.0000 H   0  0  0  0  0  0  0  0  0  0  0  0
    6.0087    2.1207    0.0000 H   0  0  0  0  0  0  0  0  0  0  0  0
    6.7492    2.1207    0.0000 H   0  0  0  0  0  0  0  0  0  0  0  0
    7.4637    4.0076    0.0000 H   0  0  0  0  0  0  0  0  0  0  0  0
    6.7232    4.0076    0.0000 H   0  0  0  0  0  0  0  0  0  0  0  0
    7.4376    2.1207    0.0000 H   0  0  0  0  0  0  0  0  0  0  0  0
    8.1781    2.1207    0.0000 H   0  0  0  0  0  0  0  0  0  0  0  0
    8.8926    4.0076    0.0000 H   0  0  0  0  0  0  0  0  0  0  0  0
    8.1521    4.0076    0.0000 H   0  0  0  0  0  0  0  0  0  0  0  0
   10.2955    2.1207    0.0000 H   0  0  0  0  0  0  0  0  0  0  0  0
   11.0360    2.1207    0.0000 H   0  0  0  0  0  0  0  0  0  0  0  0
   11.7927    2.5559    0.0000 H   0  0  0  0  0  0  0  0  0  0  0  0
   12.0947    3.6829    0.0000 H   0  0  0  0  0  0  0  0  0  0  0  0
   10.9677    3.9849    0.0000 H   0  0  0  0  0  0  0  0  0  0  0  0
  1  2  1  0  0  0  0
  2  3  1  0  0  0  0
  3  4  1  0  0  0  0
  4  5  2  0  0  0  0
  4  6  1  0  0  0  0
  6  7  1  0  0  0  0
  7  8  1  0  0  0  0
  8  9  1  0  0  0  0
  9 10  1  0  0  0  0
 10 11  2  0  0  0  0
 10 12  1  0  0  0  0
 12 13  1  0  0  0  0
 13 14  1  0  0  0  0
  1 15  1  0  0  0  0
  1 16  1  0  0  0  0
  1 17  1  0  0  0  0
  2 18  1  0  0  0  0
  2 19  1  0  0  0  0
  6 20  1  0  0  0  0
  6 21  1  0  0  0  0
  7 22  1  0  0  0  0
  7 23  1  0  0  0  0
  8 24  1  0  0  0  0
  8 25  1  0  0  0  0
  9 26  1  0  0  0  0
  9 27  1  0  0  0  0
 13 28  1  0  0  0  0
 13 29  1  0  0  0  0
 14 30  1  0  0  0  0
 14 31  1  0  0  0  0
 14 32  1  0  0  0  0
M  END
>  <InChIKey>
InChI=1S/C10H18O4/c1-3-13-9(11)7-5-6-8-10(12)14-4-2/h3-8H2,1-2H3

>  <CASRN>
141-28-6

> <Outcome>
0

>  <Index>
3055

>  <StandardizerResult>
Clear Stereo (ID: ClearStereo)
Wedge Clean (ID: WedgeClean)
Mesomerize (ID: Mesomerize)
Tautomerize (ID: Tautomerize)
Add Explicit Hydrogens (ID: AddExplicitH)
Neutralize (ID: Neutralize)
Clean 2D (ID: Clean2D)

> <knn Distance>
2.44948983192444

> <CpId>
3055

$$$$
3132
  Mrv1532301301811342D          

 11 10  0  0  0  0            999 V2000
    2.4743   -1.4304    0.0000 C   0  0  0  0  0  0  0  0  0  0  0  0
    2.0618   -0.7159    0.0000 C   0  0  0  0  0  0  0  0  0  0  0  0
    1.2368   -0.7159    0.0000 O   0  0  0  0  0  0  0  0  0  0  0  0
    0.8243   -0.0014    0.0000 C   0  0  0  0  0  0  0  0  0  0  0  0
   -0.0007   -0.0014    0.0000 O   0  0  0  0  0  0  0  0  0  0  0  0
    1.7599   -1.8429    0.0000 H   0  0  0  0  0  0  0  0  0  0  0  0
    2.8868   -2.1449    0.0000 H   0  0  0  0  0  0  0  0  0  0  0  0
    3.1888   -1.0179    0.0000 H   0  0  0  0  0  0  0  0  0  0  0  0
    2.7511   -0.2626    0.0000 H   0  0  0  0  0  0  0  0  0  0  0  0
    2.1098    0.1077    0.0000 H   0  0  0  0  0  0  0  0  0  0  0  0
    1.2368    0.7130    0.0000 H   0  0  0  0  0  0  0  0  0  0  0  0
  1  2  1  0  0  0  0
  2  3  1  0  0  0  0
  3  4  1  0  0  0  0
  4  5  2  0  0  0  0
  1  6  1  0  0  0  0
  1  7  1  0  0  0  0
  1  8  1  0  0  0  0
  2  9  1  0  0  0  0
  2 10  1  0  0  0  0
  4 11  1  0  0  0  0
M  END
>  <InChIKey>
InChI=1S/C3H6O2/c1-2-5-3-4/h3H,2H2,1H3

>  <CASRN>
109-94-4

> <Outcome>
0

>  <Index>
3132

>  <StandardizerResult>
Clear Stereo (ID: ClearStereo)
Wedge Clean (ID: WedgeClean)
Mesomerize (ID: Mesomerize)
Tautomerize (ID: Tautomerize)
Add Explicit Hydrogens (ID: AddExplicitH)
Neutralize (ID: Neutralize)
Clean 2D (ID: Clean2D)

> <knn Distance>
2.44948983192444

> <CpId>
3132

$$$$
3185
  Mrv1532301301811342D          

 18 18  0  0  0  0            999 V2000
    1.4289    2.4750    0.0000 C   0  0  0  0  0  0  0  0  0  0  0  0
    0.7145    2.0625    0.0000 O   0  0  0  0  0  0  0  0  0  0  0  0
    0.7145    1.2375    0.0000 C   0  0  0  0  0  0  0  0  0  0  0  0
    1.4289    0.8250    0.0000 C   0  0  0  0  0  0  0  0  0  0  0  0
    1.4289    0.0000    0.0000 C   0  0  0  0  0  0  0  0  0  0  0  0
    0.7145   -0.4125    0.0000 C   0  0  0  0  0  0  0  0  0  0  0  0
   -0.0000    0.0000    0.0000 C   0  0  0  0  0  0  0  0  0  0  0  0
   -0.7145   -0.4125    0.0000 C   0  0  0  0  0  0  0  0  0  0  0  0
   -0.7145   -1.2375    0.0000 O   0  0  0  0  0  0  0  0  0  0  0  0
   -0.0000    0.8250    0.0000 C   0  0  0  0  0  0  0  0  0  0  0  0
    1.8414    1.7605    0.0000 H   0  0  0  0  0  0  0  0  0  0  0  0
    2.1434    2.8875    0.0000 H   0  0  0  0  0  0  0  0  0  0  0  0
    1.0164    3.1895    0.0000 H   0  0  0  0  0  0  0  0  0  0  0  0
    2.1434    1.2375    0.0000 H   0  0  0  0  0  0  0  0  0  0  0  0
    2.1434   -0.4125    0.0000 H   0  0  0  0  0  0  0  0  0  0  0  0
    0.7145   -1.2375    0.0000 H   0  0  0  0  0  0  0  0  0  0  0  0
   -1.4290    0.0000    0.0000 H   0  0  0  0  0  0  0  0  0  0  0  0
   -0.7145    1.2375    0.0000 H   0  0  0  0  0  0  0  0  0  0  0  0
  1  2  1  0  0  0  0
  2  3  1  0  0  0  0
  3  4  4  0  0  0  0
  4  5  4  0  0  0  0
  5  6  4  0  0  0  0
  6  7  4  0  0  0  0
  7  8  1  0  0  0  0
  8  9  2  0  0  0  0
  7 10  4  0  0  0  0
  3 10  4  0  0  0  0
  1 11  1  0  0  0  0
  1 12  1  0  0  0  0
  1 13  1  0  0  0  0
  4 14  1  0  0  0  0
  5 15  1  0  0  0  0
  6 16  1  0  0  0  0
  8 17  1  0  0  0  0
 10 18  1  0  0  0  0
M  END
>  <InChIKey>
InChI=1S/C8H8O2/c1-10-8-4-2-3-7(5-8)6-9/h2-6H,1H3

>  <UN GHS>
Non-irritant

>  <CASRN>
591-31-1

> <Outcome>
0

>  <Index>
3185

>  <StandardizerResult>
Dearomatize (ID: Dearomatize)
Clear Stereo (ID: ClearStereo)
Wedge Clean (ID: WedgeClean)
Mesomerize (ID: Mesomerize)
Tautomerize (ID: Tautomerize)
Aromatize (ID: Aromatize)
Add Explicit Hydrogens (ID: AddExplicitH)
Neutralize (ID: Neutralize)
Clean 2D (ID: Clean2D)

> <knn Distance>
2.44948983192444

> <CpId>
3185

$$$$
3224
  Mrv1532301301811342D          

 29 30  0  0  0  0            999 V2000
    2.1434   -1.2375    0.0000 O   0  0  0  0  0  0  0  0  0  0  0  0
    1.4289   -1.6500    0.0000 C   0  0  0  0  0  0  0  0  0  0  0  0
    0.7145   -1.2375    0.0000 O   0  0  0  0  0  0  0  0  0  0  0  0
    1.4289   -2.4750    0.0000 C   0  0  0  0  0  0  0  0  0  0  0  0
    2.1434   -2.8875    0.0000 C   0  0  0  0  0  0  0  0  0  0  0  0
    2.1434   -3.7125    0.0000 C   0  0  0  0  0  0  0  0  0  0  0  0
    1.4289   -4.1250    0.0000 C   0  0  0  0  0  0  0  0  0  0  0  0
    0.7145   -3.7125    0.0000 C   0  0  0  0  0  0  0  0  0  0  0  0
    0.7145   -2.8875    0.0000 C   0  0  0  0  0  0  0  0  0  0  0  0
   -0.0000   -2.4750    0.0000 O   0  0  0  0  0  0  0  0  0  0  0  0
   -0.7145   -2.8875    0.0000 C   0  0  0  0  0  0  0  0  0  0  0  0
   -0.7145   -3.7125    0.0000 O   0  0  0  0  0  0  0  0  0  0  0  0
   -1.4289   -2.4750    0.0000 C   0  0  0  0  0  0  0  0  0  0  0  0
   -2.1434   -2.8875    0.0000 C   0  0  0  0  0  0  0  0  0  0  0  0
   -2.8579   -2.4750    0.0000 C   0  0  0  0  0  0  0  0  0  0  0  0
   -2.8579   -1.6500    0.0000 C   0  0  0  0  0  0  0  0  0  0  0  0
   -2.1434   -1.2375    0.0000 C   0  0  0  0  0  0  0  0  0  0  0  0
   -1.4289   -1.6500    0.0000 C   0  0  0  0  0  0  0  0  0  0  0  0
   -0.7145   -1.2375    0.0000 O   0  0  0  0  0  0  0  0  0  0  0  0
    2.8579   -1.6500    0.0000 H   0  0  0  0  0  0  0  0  0  0  0  0
    2.8579   -2.4750    0.0000 H   0  0  0  0  0  0  0  0  0  0  0  0
    2.8579   -4.1250    0.0000 H   0  0  0  0  0  0  0  0  0  0  0  0
    1.4289   -4.9500    0.0000 H   0  0  0  0  0  0  0  0  0  0  0  0
   -0.0000   -4.1250    0.0000 H   0  0  0  0  0  0  0  0  0  0  0  0
   -2.1434   -3.7125    0.0000 H   0  0  0  0  0  0  0  0  0  0  0  0
   -3.5724   -2.8875    0.0000 H   0  0  0  0  0  0  0  0  0  0  0  0
   -3.5724   -1.2375    0.0000 H   0  0  0  0  0  0  0  0  0  0  0  0
   -2.1434   -0.4125    0.0000 H   0  0  0  0  0  0  0  0  0  0  0  0
   -0.0000   -1.6500    0.0000 H   0  0  0  0  0  0  0  0  0  0  0  0
  1  2  1  0  0  0  0
  2  3  2  0  0  0  0
  2  4  1  0  0  0  0
  4  5  4  0  0  0  0
  5  6  4  0  0  0  0
  6  7  4  0  0  0  0
  7  8  4  0  0  0  0
  8  9  4  0  0  0  0
  4  9  4  0  0  0  0
  9 10  1  0  0  0  0
 10 11  1  0  0  0  0
 11 12  2  0  0  0  0
 11 13  1  0  0  0  0
 13 14  4  0  0  0  0
 14 15  4  0  0  0  0
 15 16  4  0  0  0  0
 16 17  4  0  0  0  0
 17 18  4  0  0  0  0
 13 18  4  0  0  0  0
 18 19  1  0  0  0  0
  1 20  1  0  0  0  0
  5 21  1  0  0  0  0
  6 22  1  0  0  0  0
  7 23  1  0  0  0  0
  8 24  1  0  0  0  0
 14 25  1  0  0  0  0
 15 26  1  0  0  0  0
 16 27  1  0  0  0  0
 17 28  1  0  0  0  0
 19 29  1  0  0  0  0
M  END
>  <InChIKey>
InChI=1S/C14H10O5/c15-11-7-3-1-5-9(11)14(18)19-12-8-4-2-6-10(12)13(16)17/h1-8,15H,(H,16,17)

>  <CASRN>
552-94-3

> <Outcome>
0

>  <Index>
3224

>  <StandardizerResult>
Dearomatize (ID: Dearomatize)
Clear Stereo (ID: ClearStereo)
Wedge Clean (ID: WedgeClean)
Mesomerize (ID: Mesomerize)
Tautomerize (ID: Tautomerize)
Aromatize (ID: Aromatize)
Add Explicit Hydrogens (ID: AddExplicitH)
Neutralize (ID: Neutralize)
Clean 2D (ID: Clean2D)

> <knn Distance>
2.44948983192444

> <CpId>
3224

$$$$
3230
  Mrv1532301301811342D          

 28 29  0  0  0  0            999 V2000
    2.1651   -0.3800    0.0000 O   0  0  0  0  0  0  0  0  0  0  0  0
    2.1651   -1.2050    0.0000 C   0  0  0  0  0  0  0  0  0  0  0  0
    1.4507   -1.6175    0.0000 C   0  0  0  0  0  0  0  0  0  0  0  0
    1.4507   -2.4425    0.0000 C   0  0  0  0  0  0  0  0  0  0  0  0
    2.1651   -2.8550    0.0000 C   0  0  0  0  0  0  0  0  0  0  0  0
    2.1651   -3.6800    0.0000 C   0  0  0  0  0  0  0  0  0  0  0  0
    2.8796   -4.0925    0.0000 O   0  0  0  0  0  0  0  0  0  0  0  0
    1.4507   -4.0925    0.0000 C   0  0  0  0  0  0  0  0  0  0  0  0
    1.4507   -4.9175    0.0000 C   0  0  0  0  0  0  0  0  0  0  0  0
    0.7362   -5.3300    0.0000 C   0  0  0  0  0  0  0  0  0  0  0  0
    0.0217   -4.9175    0.0000 C   0  0  0  0  0  0  0  0  0  0  0  0
   -0.6927   -5.3300    0.0000 O   0  0  0  0  0  0  0  0  0  0  0  0
    0.0217   -4.0925    0.0000 C   0  0  0  0  0  0  0  0  0  0  0  0
    0.7362   -3.6800    0.0000 C   0  0  0  0  0  0  0  0  0  0  0  0
    0.7362   -2.8550    0.0000 O   0  0  0  0  0  0  0  0  0  0  0  0
    2.8796   -2.4425    0.0000 C   0  0  0  0  0  0  0  0  0  0  0  0
    3.5941   -2.8550    0.0000 O   0  0  0  0  0  0  0  0  0  0  0  0
    2.8796   -1.6175    0.0000 C   0  0  0  0  0  0  0  0  0  0  0  0
    2.8796    0.0325    0.0000 H   0  0  0  0  0  0  0  0  0  0  0  0
    0.7362   -1.2050    0.0000 H   0  0  0  0  0  0  0  0  0  0  0  0
    1.4507   -3.2675    0.0000 H   0  0  0  0  0  0  0  0  0  0  0  0
    2.1651   -5.3300    0.0000 H   0  0  0  0  0  0  0  0  0  0  0  0
    0.7362   -6.1550    0.0000 H   0  0  0  0  0  0  0  0  0  0  0  0
   -1.4072   -4.9175    0.0000 H   0  0  0  0  0  0  0  0  0  0  0  0
   -0.6927   -3.6800    0.0000 H   0  0  0  0  0  0  0  0  0  0  0  0
    0.0217   -2.4425    0.0000 H   0  0  0  0  0  0  0  0  0  0  0  0
    3.5941   -3.6800    0.0000 H   0  0  0  0  0  0  0  0  0  0  0  0
    3.5941   -1.2050    0.0000 H   0  0  0  0  0  0  0  0  0  0  0  0
  1  2  1  0  0  0  0
  2  3  4  0  0  0  0
  3  4  4  0  0  0  0
  4  5  4  0  0  0  0
  5  6  1  0  0  0  0
  6  7  2  0  0  0  0
  6  8  1  0  0  0  0
  8  9  4  0  0  0  0
  9 10  4  0  0  0  0
 10 11  4  0  0  0  0
 11 12  1  0  0  0  0
 11 13  4  0  0  0  0
 13 14  4  0  0  0  0
  8 14  4  0  0  0  0
 14 15  1  0  0  0  0
  5 16  4  0  0  0  0
 16 17  1  0  0  0  0
 16 18  4  0  0  0  0
  2 18  4  0  0  0  0
  1 19  1  0  0  0  0
  3 20  1  0  0  0  0
  4 21  1  0  0  0  0
  9 22  1  0  0  0  0
 10 23  1  0  0  0  0
 12 24  1  0  0  0  0
 13 25  1  0  0  0  0
 15 26  1  0  0  0  0
 17 27  1  0  0  0  0
 18 28  1  0  0  0  0
M  END
>  <InChIKey>
InChI=1S/C13H10O5/c14-7-1-3-9(11(16)5-7)13(18)10-4-2-8(15)6-12(10)17/h1-6,14-17H

>  <CASRN>
131-55-5

> <Outcome>
0

>  <Index>
3230

>  <StandardizerResult>
Dearomatize (ID: Dearomatize)
Clear Stereo (ID: ClearStereo)
Wedge Clean (ID: WedgeClean)
Mesomerize (ID: Mesomerize)
Tautomerize (ID: Tautomerize)
Aromatize (ID: Aromatize)
Add Explicit Hydrogens (ID: AddExplicitH)
Neutralize (ID: Neutralize)
Clean 2D (ID: Clean2D)

> <knn Distance>
2.44948983192444

> <CpId>
3230

$$$$
3444
  Mrv1532301301811342D          

 47 46  0  0  0  0            999 V2000
    5.9961    4.2868    0.0000 C   0  0  0  0  0  0  0  0  0  0  0  0
    6.7105    4.6993    0.0000 C   0  0  0  0  0  0  0  0  0  0  0  0
    7.4250    4.2868    0.0000 C   0  0  0  0  0  0  0  0  0  0  0  0
    8.1395    4.6993    0.0000 C   0  0  0  0  0  0  0  0  0  0  0  0
    8.8539    4.2868    0.0000 C   0  0  0  0  0  0  0  0  0  0  0  0
    9.5684    4.6993    0.0000 C   0  0  0  0  0  0  0  0  0  0  0  0
   10.2829    4.2868    0.0000 C   0  0  0  0  0  0  0  0  0  0  0  0
   10.9974    4.6993    0.0000 C   0  0  0  0  0  0  0  0  0  0  0  0
   11.7118    4.2868    0.0000 C   0  0  0  0  0  0  0  0  0  0  0  0
   12.4263    4.6993    0.0000 C   0  0  0  0  0  0  0  0  0  0  0  0
   13.1408    4.2868    0.0000 C   0  0  0  0  0  0  0  0  0  0  0  0
   13.8552    4.6993    0.0000 C   0  0  0  0  0  0  0  0  0  0  0  0
   14.5697    4.2868    0.0000 C   0  0  0  0  0  0  0  0  0  0  0  0
   15.2842    4.6993    0.0000 C   0  0  0  0  0  0  0  0  0  0  0  0
   15.2842    5.5243    0.0000 O   0  0  0  0  0  0  0  0  0  0  0  0
   15.9987    4.2868    0.0000 O   0  0  0  0  0  0  0  0  0  0  0  0
   16.7131    4.6993    0.0000 C   0  0  0  0  0  0  0  0  0  0  0  0
    5.5836    5.0013    0.0000 H   0  0  0  0  0  0  0  0  0  0  0  0
    5.2816    3.8743    0.0000 H   0  0  0  0  0  0  0  0  0  0  0  0
    6.4086    3.5723    0.0000 H   0  0  0  0  0  0  0  0  0  0  0  0
    7.0808    5.4365    0.0000 H   0  0  0  0  0  0  0  0  0  0  0  0
    6.3403    5.4365    0.0000 H   0  0  0  0  0  0  0  0  0  0  0  0
    7.0547    3.5496    0.0000 H   0  0  0  0  0  0  0  0  0  0  0  0
    7.7953    3.5496    0.0000 H   0  0  0  0  0  0  0  0  0  0  0  0
    8.5097    5.4365    0.0000 H   0  0  0  0  0  0  0  0  0  0  0  0
    7.7692    5.4365    0.0000 H   0  0  0  0  0  0  0  0  0  0  0  0
    8.4837    3.5496    0.0000 H   0  0  0  0  0  0  0  0  0  0  0  0
    9.2242    3.5496    0.0000 H   0  0  0  0  0  0  0  0  0  0  0  0
    9.9387    5.4365    0.0000 H   0  0  0  0  0  0  0  0  0  0  0  0
    9.1982    5.4365    0.0000 H   0  0  0  0  0  0  0  0  0  0  0  0
    9.9126    3.5496    0.0000 H   0  0  0  0  0  0  0  0  0  0  0  0
   10.6531    3.5496    0.0000 H   0  0  0  0  0  0  0  0  0  0  0  0
   11.3676    5.4365    0.0000 H   0  0  0  0  0  0  0  0  0  0  0  0
   10.6271    5.4365    0.0000 H   0  0  0  0  0  0  0  0  0  0  0  0
   11.3416    3.5496    0.0000 H   0  0  0  0  0  0  0  0  0  0  0  0
   12.0821    3.5496    0.0000 H   0  0  0  0  0  0  0  0  0  0  0  0
   12.7966    5.4365    0.0000 H   0  0  0  0  0  0  0  0  0  0  0  0
   12.0560    5.4365    0.0000 H   0  0  0  0  0  0  0  0  0  0  0  0
   12.7705    3.5496    0.0000 H   0  0  0  0  0  0  0  0  0  0  0  0
   13.5110    3.5496    0.0000 H   0  0  0  0  0  0  0  0  0  0  0  0
   14.2255    5.4365    0.0000 H   0  0  0  0  0  0  0  0  0  0  0  0
   13.4850    5.4365    0.0000 H   0  0  0  0  0  0  0  0  0  0  0  0
   14.1995    3.5496    0.0000 H   0  0  0  0  0  0  0  0  0  0  0  0
   14.9400    3.5496    0.0000 H   0  0  0  0  0  0  0  0  0  0  0  0
   17.1256    3.9848    0.0000 H   0  0  0  0  0  0  0  0  0  0  0  0
   17.4276    5.1118    0.0000 H   0  0  0  0  0  0  0  0  0  0  0  0
   16.3006    5.4138    0.0000 H   0  0  0  0  0  0  0  0  0  0  0  0
  1  2  1  0  0  0  0
  2  3  1  0  0  0  0
  3  4  1  0  0  0  0
  4  5  1  0  0  0  0
  5  6  1  0  0  0  0
  6  7  1  0  0  0  0
  7  8  1  0  0  0  0
  8  9  1  0  0  0  0
  9 10  1  0  0  0  0
 10 11  1  0  0  0  0
 11 12  1  0  0  0  0
 12 13  1  0  0  0  0
 13 14  1  0  0  0  0
 14 15  2  0  0  0  0
 14 16  1  0  0  0  0
 16 17  1  0  0  0  0
  1 18  1  0  0  0  0
  1 19  1  0  0  0  0
  1 20  1  0  0  0  0
  2 21  1  0  0  0  0
  2 22  1  0  0  0  0
  3 23  1  0  0  0  0
  3 24  1  0  0  0  0
  4 25  1  0  0  0  0
  4 26  1  0  0  0  0
  5 27  1  0  0  0  0
  5 28  1  0  0  0  0
  6 29  1  0  0  0  0
  6 30  1  0  0  0  0
  7 31  1  0  0  0  0
  7 32  1  0  0  0  0
  8 33  1  0  0  0  0
  8 34  1  0  0  0  0
  9 35  1  0  0  0  0
  9 36  1  0  0  0  0
 10 37  1  0  0  0  0
 10 38  1  0  0  0  0
 11 39  1  0  0  0  0
 11 40  1  0  0  0  0
 12 41  1  0  0  0  0
 12 42  1  0  0  0  0
 13 43  1  0  0  0  0
 13 44  1  0  0  0  0
 17 45  1  0  0  0  0
 17 46  1  0  0  0  0
 17 47  1  0  0  0  0
M  END
>  <InChIKey>
InChI=1S/C15H30O2/c1-3-4-5-6-7-8-9-10-11-12-13-14-15(16)17-2/h3-14H2,1-2H3

>  <CASRN>
124-10-7

> <Outcome>
0

>  <Index>
3444

>  <StandardizerResult>
Clear Stereo (ID: ClearStereo)
Wedge Clean (ID: WedgeClean)
Mesomerize (ID: Mesomerize)
Tautomerize (ID: Tautomerize)
Add Explicit Hydrogens (ID: AddExplicitH)
Neutralize (ID: Neutralize)
Clean 2D (ID: Clean2D)

> <knn Distance>
2.44948983192444

> <CpId>
3444

$$$$
3482
  Mrv1532301301811342D          

 21 21  0  0  0  0            999 V2000
   -0.0007    2.4746    0.0000 C   0  0  0  0  0  0  0  0  0  0  0  0
    0.7137    2.0621    0.0000 C   0  0  0  0  0  0  0  0  0  0  0  0
    0.7137    1.2371    0.0000 C   0  0  0  0  0  0  0  0  0  0  0  0
    1.4282    0.8246    0.0000 C   0  0  0  0  0  0  0  0  0  0  0  0
    1.4282   -0.0004    0.0000 C   0  0  0  0  0  0  0  0  0  0  0  0
    0.7137   -0.4129    0.0000 C   0  0  0  0  0  0  0  0  0  0  0  0
   -0.0007   -0.0004    0.0000 C   0  0  0  0  0  0  0  0  0  0  0  0
   -0.7152   -0.4129    0.0000 C   0  0  0  0  0  0  0  0  0  0  0  0
   -0.0007    0.8246    0.0000 C   0  0  0  0  0  0  0  0  0  0  0  0
    0.4118    3.1891    0.0000 H   0  0  0  0  0  0  0  0  0  0  0  0
   -0.7152    2.8871    0.0000 H   0  0  0  0  0  0  0  0  0  0  0  0
   -0.4132    1.7601    0.0000 H   0  0  0  0  0  0  0  0  0  0  0  0
    1.5373    2.1101    0.0000 H   0  0  0  0  0  0  0  0  0  0  0  0
    1.1671    2.7514    0.0000 H   0  0  0  0  0  0  0  0  0  0  0  0
    2.1427    1.2371    0.0000 H   0  0  0  0  0  0  0  0  0  0  0  0
    2.1427   -0.4129    0.0000 H   0  0  0  0  0  0  0  0  0  0  0  0
    0.7137   -1.2379    0.0000 H   0  0  0  0  0  0  0  0  0  0  0  0
   -1.1277    0.3016    0.0000 H   0  0  0  0  0  0  0  0  0  0  0  0
   -1.4297   -0.8254    0.0000 H   0  0  0  0  0  0  0  0  0  0  0  0
   -0.3027   -1.1274    0.0000 H   0  0  0  0  0  0  0  0  0  0  0  0
   -0.7152    1.2371    0.0000 H   0  0  0  0  0  0  0  0  0  0  0  0
  1  2  1  0  0  0  0
  2  3  1  0  0  0  0
  3  4  4  0  0  0  0
  4  5  4  0  0  0  0
  5  6  4  0  0  0  0
  6  7  4  0  0  0  0
  7  8  1  0  0  0  0
  7  9  4  0  0  0  0
  3  9  4  0  0  0  0
  1 10  1  0  0  0  0
  1 11  1  0  0  0  0
  1 12  1  0  0  0  0
  2 13  1  0  0  0  0
  2 14  1  0  0  0  0
  4 15  1  0  0  0  0
  5 16  1  0  0  0  0
  6 17  1  0  0  0  0
  8 18  1  0  0  0  0
  8 19  1  0  0  0  0
  8 20  1  0  0  0  0
  9 21  1  0  0  0  0
M  END
>  <InChIKey>
InChI=1S/C9H12/c1-3-9-6-4-5-8(2)7-9/h4-7H,3H2,1-2H3

>  <UN GHS>
Non-irritant

>  <CASRN>
620-14-4  620-14-4

> <Outcome>
0

>  <Index>
3482

>  <StandardizerResult>
Dearomatize (ID: Dearomatize)
Clear Stereo (ID: ClearStereo)
Wedge Clean (ID: WedgeClean)
Mesomerize (ID: Mesomerize)
Tautomerize (ID: Tautomerize)
Aromatize (ID: Aromatize)
Add Explicit Hydrogens (ID: AddExplicitH)
Neutralize (ID: Neutralize)
Clean 2D (ID: Clean2D)

> <knn Distance>
2.44948983192444

> <CpId>
3482

$$$$
3492
  Mrv1532301301811342D          

 16 15  0  0  0  0            999 V2000
   -0.1913    0.7135    0.0000 C   0  0  0  0  0  0  0  0  0  0  0  0
    0.5231    1.1260    0.0000 C   0  0  0  0  0  0  0  0  0  0  0  0
    1.2376    0.7135    0.0000 O   0  0  0  0  0  0  0  0  0  0  0  0
    1.9521    1.1260    0.0000 C   0  0  0  0  0  0  0  0  0  0  0  0
    2.6665    0.7135    0.0000 C   0  0  0  0  0  0  0  0  0  0  0  0
    3.3810    1.1260    0.0000 O   0  0  0  0  0  0  0  0  0  0  0  0
   -0.6038    1.4279    0.0000 H   0  0  0  0  0  0  0  0  0  0  0  0
   -0.9058    0.3010    0.0000 H   0  0  0  0  0  0  0  0  0  0  0  0
    0.2212   -0.0010    0.0000 H   0  0  0  0  0  0  0  0  0  0  0  0
    0.8934    1.8632    0.0000 H   0  0  0  0  0  0  0  0  0  0  0  0
    0.1529    1.8632    0.0000 H   0  0  0  0  0  0  0  0  0  0  0  0
    2.3223    1.8632    0.0000 H   0  0  0  0  0  0  0  0  0  0  0  0
    1.5818    1.8632    0.0000 H   0  0  0  0  0  0  0  0  0  0  0  0
    2.2963   -0.0238    0.0000 H   0  0  0  0  0  0  0  0  0  0  0  0
    3.0368   -0.0238    0.0000 H   0  0  0  0  0  0  0  0  0  0  0  0
    4.0955    0.7135    0.0000 H   0  0  0  0  0  0  0  0  0  0  0  0
  1  2  1  0  0  0  0
  2  3  1  0  0  0  0
  3  4  1  0  0  0  0
  4  5  1  0  0  0  0
  5  6  1  0  0  0  0
  1  7  1  0  0  0  0
  1  8  1  0  0  0  0
  1  9  1  0  0  0  0
  2 10  1  0  0  0  0
  2 11  1  0  0  0  0
  4 12  1  0  0  0  0
  4 13  1  0  0  0  0
  5 14  1  0  0  0  0
  5 15  1  0  0  0  0
  6 16  1  0  0  0  0
M  END
>  <InChIKey>
InChI=1S/C4H10O2/c1-2-6-4-3-5/h5H,2-4H2,1H3

>  <UN GHS>
Non-irritant

>  <CASRN>
110-80-5

> <Outcome>
0

>  <Index>
3492

>  <StandardizerResult>
Clear Stereo (ID: ClearStereo)
Wedge Clean (ID: WedgeClean)
Mesomerize (ID: Mesomerize)
Tautomerize (ID: Tautomerize)
Add Explicit Hydrogens (ID: AddExplicitH)
Neutralize (ID: Neutralize)
Clean 2D (ID: Clean2D)

> <knn Distance>
2.44948983192444

> <CpId>
3492

$$$$
2
  Mrv1532301301811342D          

 28 27  0  0  0  0            999 V2000
    3.0088    2.5464    0.0000 C   0  0  0  0  0  0  0  0  0  0  0  0
    3.7233    2.1339    0.0000 C   0  0  0  0  0  0  0  0  0  0  0  0
    4.4378    2.5464    0.0000 C   0  0  0  0  0  0  0  0  0  0  0  0
    5.1522    2.1339    0.0000 C   0  0  0  0  0  0  0  0  0  0  0  0
    5.8667    2.5464    0.0000 C   0  0  0  0  0  0  0  0  0  0  0  0
    6.5812    2.1339    0.0000 C   0  0  0  0  0  0  0  0  0  0  0  0
    7.2956    2.5464    0.0000 C   0  0  0  0  0  0  0  0  0  0  0  0
    7.2956    3.3714    0.0000 O   0  0  0  0  0  0  0  0  0  0  0  0
    8.0101    2.1339    0.0000 C   0  0  0  0  0  0  0  0  0  0  0  0
    8.7246    2.5464    0.0000 O   0  0  0  0  0  0  0  0  0  0  0  0
    3.4213    3.2608    0.0000 H   0  0  0  0  0  0  0  0  0  0  0  0
    2.2943    2.9589    0.0000 H   0  0  0  0  0  0  0  0  0  0  0  0
    2.5963    1.8319    0.0000 H   0  0  0  0  0  0  0  0  0  0  0  0
    3.3530    1.3966    0.0000 H   0  0  0  0  0  0  0  0  0  0  0  0
    4.0935    1.3966    0.0000 H   0  0  0  0  0  0  0  0  0  0  0  0
    4.8080    3.2836    0.0000 H   0  0  0  0  0  0  0  0  0  0  0  0
    4.0675    3.2836    0.0000 H   0  0  0  0  0  0  0  0  0  0  0  0
    4.7820    1.3966    0.0000 H   0  0  0  0  0  0  0  0  0  0  0  0
    5.5225    1.3966    0.0000 H   0  0  0  0  0  0  0  0  0  0  0  0
    6.2370    3.2836    0.0000 H   0  0  0  0  0  0  0  0  0  0  0  0
    5.4964    3.2836    0.0000 H   0  0  0  0  0  0  0  0  0  0  0  0
    6.2109    1.3966    0.0000 H   0  0  0  0  0  0  0  0  0  0  0  0
    6.9514    1.3966    0.0000 H   0  0  0  0  0  0  0  0  0  0  0  0
    6.5812    2.9589    0.0000 H   0  0  0  0  0  0  0  0  0  0  0  0
    7.7081    4.0858    0.0000 H   0  0  0  0  0  0  0  0  0  0  0  0
    7.6398    1.3966    0.0000 H   0  0  0  0  0  0  0  0  0  0  0  0
    8.3804    1.3966    0.0000 H   0  0  0  0  0  0  0  0  0  0  0  0
    9.4390    2.1339    0.0000 H   0  0  0  0  0  0  0  0  0  0  0  0
  1  2  1  0  0  0  0
  2  3  1  0  0  0  0
  3  4  1  0  0  0  0
  4  5  1  0  0  0  0
  5  6  1  0  0  0  0
  6  7  1  0  0  0  0
  7  8  1  0  0  0  0
  7  9  1  0  0  0  0
  9 10  1  0  0  0  0
  1 11  1  0  0  0  0
  1 12  1  0  0  0  0
  1 13  1  0  0  0  0
  2 14  1  0  0  0  0
  2 15  1  0  0  0  0
  3 16  1  0  0  0  0
  3 17  1  0  0  0  0
  4 18  1  0  0  0  0
  4 19  1  0  0  0  0
  5 20  1  0  0  0  0
  5 21  1  0  0  0  0
  6 22  1  0  0  0  0
  6 23  1  0  0  0  0
  7 24  1  0  0  0  0
  8 25  1  0  0  0  0
  9 26  1  0  0  0  0
  9 27  1  0  0  0  0
 10 28  1  0  0  0  0
M  END
>  <InChIKey>
AEIJTFQOBWATKX-UHFFFAOYSA-N

>  <UN GHS>
Non-irritant

>  <CASRN>
1117-86-8

> <Outcome>
0

>  <Index>
2

>  <StandardizerResult>
Clear Stereo (ID: ClearStereo)
Wedge Clean (ID: WedgeClean)
Mesomerize (ID: Mesomerize)
Tautomerize (ID: Tautomerize)
Add Explicit Hydrogens (ID: AddExplicitH)
Neutralize (ID: Neutralize)
Clean 2D (ID: Clean2D)

> <knn Distance>
2.64575123786926

> <CpId>
2

$$$$
24
  Mrv1532301301811342D          

 53 52  0  0  0  0            999 V2000
    7.9379    5.4216    0.0000 C   0  0  0  0  0  0  0  0  0  0  0  0
    8.6524    5.0091    0.0000 C   0  0  0  0  0  0  0  0  0  0  0  0
    9.3668    5.4216    0.0000 C   0  0  0  0  0  0  0  0  0  0  0  0
   10.0813    5.0091    0.0000 C   0  0  0  0  0  0  0  0  0  0  0  0
   10.7958    5.4216    0.0000 C   0  0  0  0  0  0  0  0  0  0  0  0
   11.5102    5.0091    0.0000 C   0  0  0  0  0  0  0  0  0  0  0  0
   12.2247    5.4216    0.0000 C   0  0  0  0  0  0  0  0  0  0  0  0
   12.9392    5.0091    0.0000 C   0  0  0  0  0  0  0  0  0  0  0  0
   13.6537    5.4216    0.0000 C   0  0  0  0  0  0  0  0  0  0  0  0
   14.3681    5.0091    0.0000 C   0  0  0  0  0  0  0  0  0  0  0  0
   15.0826    5.4216    0.0000 C   0  0  0  0  0  0  0  0  0  0  0  0
   15.7971    5.0091    0.0000 C   0  0  0  0  0  0  0  0  0  0  0  0
   16.5115    5.4216    0.0000 C   0  0  0  0  0  0  0  0  0  0  0  0
   17.2260    5.0091    0.0000 C   0  0  0  0  0  0  0  0  0  0  0  0
   17.2260    4.1841    0.0000 O   0  0  0  0  0  0  0  0  0  0  0  0
   17.9405    5.4216    0.0000 O   0  0  0  0  0  0  0  0  0  0  0  0
   18.6550    5.0091    0.0000 C   0  0  0  0  0  0  0  0  0  0  0  0
   19.3694    5.4216    0.0000 C   0  0  0  0  0  0  0  0  0  0  0  0
   18.6550    4.1841    0.0000 C   0  0  0  0  0  0  0  0  0  0  0  0
    8.3504    6.1361    0.0000 H   0  0  0  0  0  0  0  0  0  0  0  0
    7.2234    5.8341    0.0000 H   0  0  0  0  0  0  0  0  0  0  0  0
    7.5254    4.7071    0.0000 H   0  0  0  0  0  0  0  0  0  0  0  0
    8.2821    4.2718    0.0000 H   0  0  0  0  0  0  0  0  0  0  0  0
    9.0226    4.2718    0.0000 H   0  0  0  0  0  0  0  0  0  0  0  0
    9.7371    6.1588    0.0000 H   0  0  0  0  0  0  0  0  0  0  0  0
    8.9966    6.1588    0.0000 H   0  0  0  0  0  0  0  0  0  0  0  0
    9.7110    4.2718    0.0000 H   0  0  0  0  0  0  0  0  0  0  0  0
   10.4516    4.2718    0.0000 H   0  0  0  0  0  0  0  0  0  0  0  0
   11.1660    6.1588    0.0000 H   0  0  0  0  0  0  0  0  0  0  0  0
   10.4255    6.1588    0.0000 H   0  0  0  0  0  0  0  0  0  0  0  0
   11.1400    4.2718    0.0000 H   0  0  0  0  0  0  0  0  0  0  0  0
   11.8805    4.2718    0.0000 H   0  0  0  0  0  0  0  0  0  0  0  0
   12.5950    6.1588    0.0000 H   0  0  0  0  0  0  0  0  0  0  0  0
   11.8545    6.1588    0.0000 H   0  0  0  0  0  0  0  0  0  0  0  0
   12.5689    4.2718    0.0000 H   0  0  0  0  0  0  0  0  0  0  0  0
   13.3094    4.2718    0.0000 H   0  0  0  0  0  0  0  0  0  0  0  0
   14.0239    6.1588    0.0000 H   0  0  0  0  0  0  0  0  0  0  0  0
   13.2834    6.1588    0.0000 H   0  0  0  0  0  0  0  0  0  0  0  0
   13.9979    4.2718    0.0000 H   0  0  0  0  0  0  0  0  0  0  0  0
   14.7384    4.2718    0.0000 H   0  0  0  0  0  0  0  0  0  0  0  0
   15.4529    6.1588    0.0000 H   0  0  0  0  0  0  0  0  0  0  0  0
   14.7123    6.1588    0.0000 H   0  0  0  0  0  0  0  0  0  0  0  0
   15.4268    4.2718    0.0000 H   0  0  0  0  0  0  0  0  0  0  0  0
   16.1673    4.2718    0.0000 H   0  0  0  0  0  0  0  0  0  0  0  0
   16.8818    6.1588    0.0000 H   0  0  0  0  0  0  0  0  0  0  0  0
   16.1413    6.1588    0.0000 H   0  0  0  0  0  0  0  0  0  0  0  0
   18.6550    5.8341    0.0000 H   0  0  0  0  0  0  0  0  0  0  0  0
   19.5830    4.6247    0.0000 H   0  0  0  0  0  0  0  0  0  0  0  0
   20.1944    5.4216    0.0000 H   0  0  0  0  0  0  0  0  0  0  0  0
   19.5830    6.2185    0.0000 H   0  0  0  0  0  0  0  0  0  0  0  0
   17.8300    4.1841    0.0000 H   0  0  0  0  0  0  0  0  0  0  0  0
   18.6550    3.3591    0.0000 H   0  0  0  0  0  0  0  0  0  0  0  0
   19.4800    4.1841    0.0000 H   0  0  0  0  0  0  0  0  0  0  0  0
  1  2  1  0  0  0  0
  2  3  1  0  0  0  0
  3  4  1  0  0  0  0
  4  5  1  0  0  0  0
  5  6  1  0  0  0  0
  6  7  1  0  0  0  0
  7  8  1  0  0  0  0
  8  9  1  0  0  0  0
  9 10  1  0  0  0  0
 10 11  1  0  0  0  0
 11 12  1  0  0  0  0
 12 13  1  0  0  0  0
 13 14  1  0  0  0  0
 14 15  2  0  0  0  0
 14 16  1  0  0  0  0
 16 17  1  0  0  0  0
 17 18  1  0  0  0  0
 17 19  1  0  0  0  0
  1 20  1  0  0  0  0
  1 21  1  0  0  0  0
  1 22  1  0  0  0  0
  2 23  1  0  0  0  0
  2 24  1  0  0  0  0
  3 25  1  0  0  0  0
  3 26  1  0  0  0  0
  4 27  1  0  0  0  0
  4 28  1  0  0  0  0
  5 29  1  0  0  0  0
  5 30  1  0  0  0  0
  6 31  1  0  0  0  0
  6 32  1  0  0  0  0
  7 33  1  0  0  0  0
  7 34  1  0  0  0  0
  8 35  1  0  0  0  0
  8 36  1  0  0  0  0
  9 37  1  0  0  0  0
  9 38  1  0  0  0  0
 10 39  1  0  0  0  0
 10 40  1  0  0  0  0
 11 41  1  0  0  0  0
 11 42  1  0  0  0  0
 12 43  1  0  0  0  0
 12 44  1  0  0  0  0
 13 45  1  0  0  0  0
 13 46  1  0  0  0  0
 17 47  1  0  0  0  0
 18 48  1  0  0  0  0
 18 49  1  0  0  0  0
 18 50  1  0  0  0  0
 19 51  1  0  0  0  0
 19 52  1  0  0  0  0
 19 53  1  0  0  0  0
M  END
>  <InChIKey>
AXISYYRBXTVTFY-UHFFFAOYSA-N

>  <UN GHS>
Non-irritant

>  <CASRN>
110-27-0

> <Outcome>
0

>  <Index>
24

>  <StandardizerResult>
Clear Stereo (ID: ClearStereo)
Wedge Clean (ID: WedgeClean)
Mesomerize (ID: Mesomerize)
Tautomerize (ID: Tautomerize)
Add Explicit Hydrogens (ID: AddExplicitH)
Neutralize (ID: Neutralize)
Clean 2D (ID: Clean2D)

> <knn Distance>
2.64575123786926

> <CpId>
24

$$$$
26
  Mrv1532301301811342D          

 74 73  0  0  0  0            999 V2000
   10.9067    7.1614    0.0000 C   0  0  0  0  0  0  0  0  0  0  0  0
   11.6212    7.5739    0.0000 C   0  0  0  0  0  0  0  0  0  0  0  0
   11.6212    8.3989    0.0000 C   0  0  0  0  0  0  0  0  0  0  0  0
   12.3357    7.1614    0.0000 C   0  0  0  0  0  0  0  0  0  0  0  0
   13.0502    7.5739    0.0000 C   0  0  0  0  0  0  0  0  0  0  0  0
   13.7646    7.1614    0.0000 C   0  0  0  0  0  0  0  0  0  0  0  0
   14.4791    7.5739    0.0000 C   0  0  0  0  0  0  0  0  0  0  0  0
   15.1936    7.1614    0.0000 C   0  0  0  0  0  0  0  0  0  0  0  0
   15.9080    7.5739    0.0000 C   0  0  0  0  0  0  0  0  0  0  0  0
   16.6225    7.1614    0.0000 O   0  0  0  0  0  0  0  0  0  0  0  0
   17.3370    7.5739    0.0000 C   0  0  0  0  0  0  0  0  0  0  0  0
   17.3370    8.3989    0.0000 O   0  0  0  0  0  0  0  0  0  0  0  0
   18.0515    7.1614    0.0000 C   0  0  0  0  0  0  0  0  0  0  0  0
   18.7659    7.5739    0.0000 C   0  0  0  0  0  0  0  0  0  0  0  0
   19.4804    7.1614    0.0000 C   0  0  0  0  0  0  0  0  0  0  0  0
   20.1949    7.5739    0.0000 C   0  0  0  0  0  0  0  0  0  0  0  0
   20.9093    7.1614    0.0000 C   0  0  0  0  0  0  0  0  0  0  0  0
   20.9093    6.3364    0.0000 O   0  0  0  0  0  0  0  0  0  0  0  0
   21.6238    7.5739    0.0000 O   0  0  0  0  0  0  0  0  0  0  0  0
   22.3383    7.1614    0.0000 C   0  0  0  0  0  0  0  0  0  0  0  0
   23.0528    7.5739    0.0000 C   0  0  0  0  0  0  0  0  0  0  0  0
   23.7672    7.1614    0.0000 C   0  0  0  0  0  0  0  0  0  0  0  0
   24.4817    7.5739    0.0000 C   0  0  0  0  0  0  0  0  0  0  0  0
   25.1962    7.1614    0.0000 C   0  0  0  0  0  0  0  0  0  0  0  0
   25.9106    7.5739    0.0000 C   0  0  0  0  0  0  0  0  0  0  0  0
   26.6251    7.1614    0.0000 C   0  0  0  0  0  0  0  0  0  0  0  0
   27.3396    7.5739    0.0000 C   0  0  0  0  0  0  0  0  0  0  0  0
   26.6251    6.3364    0.0000 C   0  0  0  0  0  0  0  0  0  0  0  0
   10.4942    7.8759    0.0000 H   0  0  0  0  0  0  0  0  0  0  0  0
   10.1923    6.7489    0.0000 H   0  0  0  0  0  0  0  0  0  0  0  0
   11.3192    6.4470    0.0000 H   0  0  0  0  0  0  0  0  0  0  0  0
   10.9067    7.9864    0.0000 H   0  0  0  0  0  0  0  0  0  0  0  0
   12.4181    8.1854    0.0000 H   0  0  0  0  0  0  0  0  0  0  0  0
   12.0337    9.1134    0.0000 H   0  0  0  0  0  0  0  0  0  0  0  0
   11.0379    8.9823    0.0000 H   0  0  0  0  0  0  0  0  0  0  0  0
   11.9654    6.4242    0.0000 H   0  0  0  0  0  0  0  0  0  0  0  0
   12.7059    6.4242    0.0000 H   0  0  0  0  0  0  0  0  0  0  0  0
   13.5470    8.2326    0.0000 H   0  0  0  0  0  0  0  0  0  0  0  0
   13.0502    6.7489    0.0000 H   0  0  0  0  0  0  0  0  0  0  0  0
   13.9079    6.3490    0.0000 H   0  0  0  0  0  0  0  0  0  0  0  0
   14.3966    6.6311    0.0000 H   0  0  0  0  0  0  0  0  0  0  0  0
   14.8494    8.3112    0.0000 H   0  0  0  0  0  0  0  0  0  0  0  0
   14.1088    8.3112    0.0000 H   0  0  0  0  0  0  0  0  0  0  0  0
   15.2285    6.3372    0.0000 H   0  0  0  0  0  0  0  0  0  0  0  0
   15.9166    6.7642    0.0000 H   0  0  0  0  0  0  0  0  0  0  0  0
   16.2783    8.3112    0.0000 H   0  0  0  0  0  0  0  0  0  0  0  0
   15.5378    8.3112    0.0000 H   0  0  0  0  0  0  0  0  0  0  0  0
   17.6812    6.4242    0.0000 H   0  0  0  0  0  0  0  0  0  0  0  0
   18.4217    6.4242    0.0000 H   0  0  0  0  0  0  0  0  0  0  0  0
   19.1362    8.3112    0.0000 H   0  0  0  0  0  0  0  0  0  0  0  0
   18.3957    8.3112    0.0000 H   0  0  0  0  0  0  0  0  0  0  0  0
   19.1101    6.4242    0.0000 H   0  0  0  0  0  0  0  0  0  0  0  0
   19.8507    6.4242    0.0000 H   0  0  0  0  0  0  0  0  0  0  0  0
   20.5651    8.3112    0.0000 H   0  0  0  0  0  0  0  0  0  0  0  0
   19.8246    8.3112    0.0000 H   0  0  0  0  0  0  0  0  0  0  0  0
   21.9680    6.4242    0.0000 H   0  0  0  0  0  0  0  0  0  0  0  0
   22.7085    6.4242    0.0000 H   0  0  0  0  0  0  0  0  0  0  0  0
   23.4230    8.3112    0.0000 H   0  0  0  0  0  0  0  0  0  0  0  0
   22.6825    8.3112    0.0000 H   0  0  0  0  0  0  0  0  0  0  0  0
   23.3970    6.4242    0.0000 H   0  0  0  0  0  0  0  0  0  0  0  0
   24.1375    6.4242    0.0000 H   0  0  0  0  0  0  0  0  0  0  0  0
   24.8520    8.3112    0.0000 H   0  0  0  0  0  0  0  0  0  0  0  0
   24.1114    8.3112    0.0000 H   0  0  0  0  0  0  0  0  0  0  0  0
   24.8259    6.4242    0.0000 H   0  0  0  0  0  0  0  0  0  0  0  0
   25.5664    6.4242    0.0000 H   0  0  0  0  0  0  0  0  0  0  0  0
   26.2809    8.3112    0.0000 H   0  0  0  0  0  0  0  0  0  0  0  0
   25.5404    8.3112    0.0000 H   0  0  0  0  0  0  0  0  0  0  0  0
   26.6251    7.9864    0.0000 H   0  0  0  0  0  0  0  0  0  0  0  0
   27.5531    6.7770    0.0000 H   0  0  0  0  0  0  0  0  0  0  0  0
   28.1646    7.5739    0.0000 H   0  0  0  0  0  0  0  0  0  0  0  0
   27.5531    8.3708    0.0000 H   0  0  0  0  0  0  0  0  0  0  0  0
   25.8001    6.3364    0.0000 H   0  0  0  0  0  0  0  0  0  0  0  0
   26.6251    5.5114    0.0000 H   0  0  0  0  0  0  0  0  0  0  0  0
   27.4501    6.3364    0.0000 H   0  0  0  0  0  0  0  0  0  0  0  0
  1  2  1  0  0  0  0
  2  3  1  0  0  0  0
  2  4  1  0  0  0  0
  4  5  1  0  0  0  0
  5  6  1  0  0  0  0
  6  7  1  0  0  0  0
  7  8  1  0  0  0  0
  8  9  1  0  0  0  0
  9 10  1  0  0  0  0
 10 11  1  0  0  0  0
 11 12  2  0  0  0  0
 11 13  1  0  0  0  0
 13 14  1  0  0  0  0
 14 15  1  0  0  0  0
 15 16  1  0  0  0  0
 16 17  1  0  0  0  0
 17 18  2  0  0  0  0
 17 19  1  0  0  0  0
 19 20  1  0  0  0  0
 20 21  1  0  0  0  0
 21 22  1  0  0  0  0
 22 23  1  0  0  0  0
 23 24  1  0  0  0  0
 24 25  1  0  0  0  0
 25 26  1  0  0  0  0
 26 27  1  0  0  0  0
 26 28  1  0  0  0  0
  1 29  1  0  0  0  0
  1 30  1  0  0  0  0
  1 31  1  0  0  0  0
  2 32  1  0  0  0  0
  3 33  1  0  0  0  0
  3 34  1  0  0  0  0
  3 35  1  0  0  0  0
  4 36  1  0  0  0  0
  4 37  1  0  0  0  0
  5 38  1  0  0  0  0
  5 39  1  0  0  0  0
  6 40  1  0  0  0  0
  6 41  1  0  0  0  0
  7 42  1  0  0  0  0
  7 43  1  0  0  0  0
  8 44  1  0  0  0  0
  8 45  1  0  0  0  0
  9 46  1  0  0  0  0
  9 47  1  0  0  0  0
 13 48  1  0  0  0  0
 13 49  1  0  0  0  0
 14 50  1  0  0  0  0
 14 51  1  0  0  0  0
 15 52  1  0  0  0  0
 15 53  1  0  0  0  0
 16 54  1  0  0  0  0
 16 55  1  0  0  0  0
 20 56  1  0  0  0  0
 20 57  1  0  0  0  0
 21 58  1  0  0  0  0
 21 59  1  0  0  0  0
 22 60  1  0  0  0  0
 22 61  1  0  0  0  0
 23 62  1  0  0  0  0
 23 63  1  0  0  0  0
 24 64  1  0  0  0  0
 24 65  1  0  0  0  0
 25 66  1  0  0  0  0
 25 67  1  0  0  0  0
 26 68  1  0  0  0  0
 27 69  1  0  0  0  0
 27 70  1  0  0  0  0
 27 71  1  0  0  0  0
 28 72  1  0  0  0  0
 28 73  1  0  0  0  0
 28 74  1  0  0  0  0
M  END
>  <InChIKey>
AYWLCKHHUFBVGJ-UHFFFAOYSA-N

>  <UN GHS>
Non-irritant

>  <CASRN>
33703-08-1

> <Outcome>
0

>  <Index>
26

>  <StandardizerResult>
Clear Stereo (ID: ClearStereo)
Wedge Clean (ID: WedgeClean)
Mesomerize (ID: Mesomerize)
Tautomerize (ID: Tautomerize)
Add Explicit Hydrogens (ID: AddExplicitH)
Neutralize (ID: Neutralize)
Clean 2D (ID: Clean2D)

> <knn Distance>
2.64575123786926

> <CpId>
26

$$$$
33
  Mrv1532301301811342D          

 50 49  0  0  0  0            999 V2000
    6.7006    4.7025    0.0000 C   0  0  0  0  0  0  0  0  0  0  0  0
    7.4151    4.2900    0.0000 C   0  0  0  0  0  0  0  0  0  0  0  0
    8.1295    4.7025    0.0000 C   0  0  0  0  0  0  0  0  0  0  0  0
    8.8440    4.2900    0.0000 C   0  0  0  0  0  0  0  0  0  0  0  0
    9.5585    4.7025    0.0000 C   0  0  0  0  0  0  0  0  0  0  0  0
   10.2729    4.2900    0.0000 C   0  0  0  0  0  0  0  0  0  0  0  0
   10.9874    4.7025    0.0000 C   0  0  0  0  0  0  0  0  0  0  0  0
   11.7019    4.2900    0.0000 C   0  0  0  0  0  0  0  0  0  0  0  0
   12.4164    4.7025    0.0000 C   0  0  0  0  0  0  0  0  0  0  0  0
   13.1308    4.2900    0.0000 C   0  0  0  0  0  0  0  0  0  0  0  0
   13.8453    4.7025    0.0000 C   0  0  0  0  0  0  0  0  0  0  0  0
   14.5598    4.2900    0.0000 C   0  0  0  0  0  0  0  0  0  0  0  0
   15.2742    4.7025    0.0000 C   0  0  0  0  0  0  0  0  0  0  0  0
   15.9887    4.2900    0.0000 C   0  0  0  0  0  0  0  0  0  0  0  0
   16.7032    4.7025    0.0000 C   0  0  0  0  0  0  0  0  0  0  0  0
   15.9887    3.4650    0.0000 C   0  0  0  0  0  0  0  0  0  0  0  0
    7.1131    5.4169    0.0000 H   0  0  0  0  0  0  0  0  0  0  0  0
    5.9861    5.1150    0.0000 H   0  0  0  0  0  0  0  0  0  0  0  0
    6.2881    3.9880    0.0000 H   0  0  0  0  0  0  0  0  0  0  0  0
    7.0448    3.5527    0.0000 H   0  0  0  0  0  0  0  0  0  0  0  0
    7.7853    3.5527    0.0000 H   0  0  0  0  0  0  0  0  0  0  0  0
    8.4998    5.4397    0.0000 H   0  0  0  0  0  0  0  0  0  0  0  0
    7.7593    5.4397    0.0000 H   0  0  0  0  0  0  0  0  0  0  0  0
    8.4737    3.5527    0.0000 H   0  0  0  0  0  0  0  0  0  0  0  0
    9.2143    3.5527    0.0000 H   0  0  0  0  0  0  0  0  0  0  0  0
    9.9287    5.4397    0.0000 H   0  0  0  0  0  0  0  0  0  0  0  0
    9.1882    5.4397    0.0000 H   0  0  0  0  0  0  0  0  0  0  0  0
    9.9027    3.5527    0.0000 H   0  0  0  0  0  0  0  0  0  0  0  0
   10.6432    3.5527    0.0000 H   0  0  0  0  0  0  0  0  0  0  0  0
   11.3577    5.4397    0.0000 H   0  0  0  0  0  0  0  0  0  0  0  0
   10.6172    5.4397    0.0000 H   0  0  0  0  0  0  0  0  0  0  0  0
   11.3316    3.5527    0.0000 H   0  0  0  0  0  0  0  0  0  0  0  0
   12.0721    3.5527    0.0000 H   0  0  0  0  0  0  0  0  0  0  0  0
   12.7866    5.4397    0.0000 H   0  0  0  0  0  0  0  0  0  0  0  0
   12.0461    5.4397    0.0000 H   0  0  0  0  0  0  0  0  0  0  0  0
   12.7606    3.5527    0.0000 H   0  0  0  0  0  0  0  0  0  0  0  0
   13.5011    3.5527    0.0000 H   0  0  0  0  0  0  0  0  0  0  0  0
   14.2156    5.4397    0.0000 H   0  0  0  0  0  0  0  0  0  0  0  0
   13.4750    5.4397    0.0000 H   0  0  0  0  0  0  0  0  0  0  0  0
   14.1895    3.5527    0.0000 H   0  0  0  0  0  0  0  0  0  0  0  0
   14.9300    3.5527    0.0000 H   0  0  0  0  0  0  0  0  0  0  0  0
   15.6445    5.4397    0.0000 H   0  0  0  0  0  0  0  0  0  0  0  0
   14.9040    5.4397    0.0000 H   0  0  0  0  0  0  0  0  0  0  0  0
   15.9887    5.1150    0.0000 H   0  0  0  0  0  0  0  0  0  0  0  0
   16.9167    3.9056    0.0000 H   0  0  0  0  0  0  0  0  0  0  0  0
   17.5282    4.7025    0.0000 H   0  0  0  0  0  0  0  0  0  0  0  0
   16.9167    5.4993    0.0000 H   0  0  0  0  0  0  0  0  0  0  0  0
   15.1637    3.4650    0.0000 H   0  0  0  0  0  0  0  0  0  0  0  0
   15.9887    2.6400    0.0000 H   0  0  0  0  0  0  0  0  0  0  0  0
   16.8137    3.4650    0.0000 H   0  0  0  0  0  0  0  0  0  0  0  0
  1  2  1  0  0  0  0
  2  3  1  0  0  0  0
  3  4  1  0  0  0  0
  4  5  1  0  0  0  0
  5  6  1  0  0  0  0
  6  7  1  0  0  0  0
  7  8  1  0  0  0  0
  8  9  1  0  0  0  0
  9 10  1  0  0  0  0
 10 11  1  0  0  0  0
 11 12  1  0  0  0  0
 12 13  1  0  0  0  0
 13 14  1  0  0  0  0
 14 15  1  0  0  0  0
 14 16  1  0  0  0  0
  1 17  1  0  0  0  0
  1 18  1  0  0  0  0
  1 19  1  0  0  0  0
  2 20  1  0  0  0  0
  2 21  1  0  0  0  0
  3 22  1  0  0  0  0
  3 23  1  0  0  0  0
  4 24  1  0  0  0  0
  4 25  1  0  0  0  0
  5 26  1  0  0  0  0
  5 27  1  0  0  0  0
  6 28  1  0  0  0  0
  6 29  1  0  0  0  0
  7 30  1  0  0  0  0
  7 31  1  0  0  0  0
  8 32  1  0  0  0  0
  8 33  1  0  0  0  0
  9 34  1  0  0  0  0
  9 35  1  0  0  0  0
 10 36  1  0  0  0  0
 10 37  1  0  0  0  0
 11 38  1  0  0  0  0
 11 39  1  0  0  0  0
 12 40  1  0  0  0  0
 12 41  1  0  0  0  0
 13 42  1  0  0  0  0
 13 43  1  0  0  0  0
 14 44  1  0  0  0  0
 15 45  1  0  0  0  0
 15 46  1  0  0  0  0
 15 47  1  0  0  0  0
 16 48  1  0  0  0  0
 16 49  1  0  0  0  0
 16 50  1  0  0  0  0
M  END
>  <InChIKey>
BANXPJUEBPWEOT-UHFFFAOYSA-N

>  <UN GHS>
Non-irritant

>  <CASRN>
93685-80-4

> <Outcome>
0

>  <Index>
33

>  <StandardizerResult>
Clear Stereo (ID: ClearStereo)
Wedge Clean (ID: WedgeClean)
Mesomerize (ID: Mesomerize)
Tautomerize (ID: Tautomerize)
Add Explicit Hydrogens (ID: AddExplicitH)
Neutralize (ID: Neutralize)
Clean 2D (ID: Clean2D)

> <knn Distance>
2.64575123786926

> <CpId>
33

$$$$
49
  Mrv1532301301811342D          

 15 14  0  0  0  0            999 V2000
    1.2267    0.7279    0.0000 C   0  0  0  0  0  0  0  0  0  0  0  0
    0.8142    0.0134    0.0000 C   0  0  0  0  0  0  0  0  0  0  0  0
   -0.0108    0.0134    0.0000 C   0  0  0  0  0  0  0  0  0  0  0  0
   -0.4233   -0.7011    0.0000 C   0  0  0  0  0  0  0  0  0  0  0  0
   -0.4233    0.7279    0.0000 C   0  0  0  0  0  0  0  0  0  0  0  0
    1.9411    0.3154    0.0000 H   0  0  0  0  0  0  0  0  0  0  0  0
    1.6392    1.4423    0.0000 H   0  0  0  0  0  0  0  0  0  0  0  0
    0.5122    1.1404    0.0000 H   0  0  0  0  0  0  0  0  0  0  0  0
    1.2267   -0.7011    0.0000 H   0  0  0  0  0  0  0  0  0  0  0  0
   -1.1378   -0.2886    0.0000 H   0  0  0  0  0  0  0  0  0  0  0  0
   -0.8358   -1.4156    0.0000 H   0  0  0  0  0  0  0  0  0  0  0  0
    0.2911   -1.1136    0.0000 H   0  0  0  0  0  0  0  0  0  0  0  0
    0.2911    1.1404    0.0000 H   0  0  0  0  0  0  0  0  0  0  0  0
   -0.8358    1.4423    0.0000 H   0  0  0  0  0  0  0  0  0  0  0  0
   -1.1378    0.3154    0.0000 H   0  0  0  0  0  0  0  0  0  0  0  0
  1  2  1  0  0  0  0
  2  3  2  0  0  0  0
  3  4  1  0  0  0  0
  3  5  1  0  0  0  0
  1  6  1  0  0  0  0
  1  7  1  0  0  0  0
  1  8  1  0  0  0  0
  2  9  1  0  0  0  0
  4 10  1  0  0  0  0
  4 11  1  0  0  0  0
  4 12  1  0  0  0  0
  5 13  1  0  0  0  0
  5 14  1  0  0  0  0
  5 15  1  0  0  0  0
M  END
>  <InChIKey>
BKOOMYPCSUNDGP-UHFFFAOYSA-N

>  <UN GHS>
Non-irritant

>  <CASRN>
513-35-9

> <Outcome>
0

>  <Index>
49

>  <StandardizerResult>
Clear Stereo (ID: ClearStereo)
Wedge Clean (ID: WedgeClean)
Mesomerize (ID: Mesomerize)
Tautomerize (ID: Tautomerize)
Add Explicit Hydrogens (ID: AddExplicitH)
Neutralize (ID: Neutralize)
Clean 2D (ID: Clean2D)

> <knn Distance>
2.64575123786926

> <CpId>
49

$$$$
63
  Mrv1532301301811342D          

 21 21  0  0  0  0            999 V2000
    1.4289    3.3000    0.0000 C   0  0  0  0  0  0  0  0  0  0  0  0
    1.4289    2.4750    0.0000 C   0  0  0  0  0  0  0  0  0  0  0  0
    2.1434    2.0625    0.0000 O   0  0  0  0  0  0  0  0  0  0  0  0
    0.7145    2.0625    0.0000 O   0  0  0  0  0  0  0  0  0  0  0  0
    0.7145    1.2375    0.0000 C   0  0  0  0  0  0  0  0  0  0  0  0
    1.4289    0.8250    0.0000 C   0  0  0  0  0  0  0  0  0  0  0  0
    1.4289   -0.0000    0.0000 C   0  0  0  0  0  0  0  0  0  0  0  0
    0.7145   -0.4125    0.0000 C   0  0  0  0  0  0  0  0  0  0  0  0
   -0.0000   -0.0000    0.0000 C   0  0  0  0  0  0  0  0  0  0  0  0
   -0.0000    0.8250    0.0000 C   0  0  0  0  0  0  0  0  0  0  0  0
   -0.7145    1.2375    0.0000 C   0  0  0  0  0  0  0  0  0  0  0  0
   -0.7145    2.0625    0.0000 O   0  0  0  0  0  0  0  0  0  0  0  0
   -1.4290    0.8250    0.0000 O   0  0  0  0  0  0  0  0  0  0  0  0
    2.2539    3.3000    0.0000 H   0  0  0  0  0  0  0  0  0  0  0  0
    1.4289    4.1250    0.0000 H   0  0  0  0  0  0  0  0  0  0  0  0
    0.6039    3.3000    0.0000 H   0  0  0  0  0  0  0  0  0  0  0  0
    2.1434    1.2375    0.0000 H   0  0  0  0  0  0  0  0  0  0  0  0
    2.1434   -0.4125    0.0000 H   0  0  0  0  0  0  0  0  0  0  0  0
    0.7145   -1.2375    0.0000 H   0  0  0  0  0  0  0  0  0  0  0  0
   -0.7145   -0.4125    0.0000 H   0  0  0  0  0  0  0  0  0  0  0  0
   -0.0000    2.4750    0.0000 H   0  0  0  0  0  0  0  0  0  0  0  0
  1  2  1  0  0  0  0
  2  3  2  0  0  0  0
  2  4  1  0  0  0  0
  4  5  1  0  0  0  0
  5  6  4  0  0  0  0
  6  7  4  0  0  0  0
  7  8  4  0  0  0  0
  8  9  4  0  0  0  0
  9 10  4  0  0  0  0
  5 10  4  0  0  0  0
 10 11  1  0  0  0  0
 11 12  1  0  0  0  0
 11 13  2  0  0  0  0
  1 14  1  0  0  0  0
  1 15  1  0  0  0  0
  1 16  1  0  0  0  0
  6 17  1  0  0  0  0
  7 18  1  0  0  0  0
  8 19  1  0  0  0  0
  9 20  1  0  0  0  0
 12 21  1  0  0  0  0
M  END
>  <InChIKey>
BSYNRYMUTXBXSQ-UHFFFAOYSA-N

>  <UN GHS>
Non-irritant

>  <CASRN>
50-78-2

> <Outcome>
0

>  <Index>
63

>  <StandardizerResult>
Dearomatize (ID: Dearomatize)
Clear Stereo (ID: ClearStereo)
Wedge Clean (ID: WedgeClean)
Mesomerize (ID: Mesomerize)
Tautomerize (ID: Tautomerize)
Aromatize (ID: Aromatize)
Add Explicit Hydrogens (ID: AddExplicitH)
Neutralize (ID: Neutralize)
Clean 2D (ID: Clean2D)

> <knn Distance>
2.64575123786926

> <CpId>
63

$$$$
72
  Mrv1532301301811342D          

 21 21  0  0  0  0            999 V2000
   -0.7145    3.7125    0.0000 C   0  0  0  0  0  0  0  0  0  0  0  0
   -0.0000    3.3000    0.0000 C   0  0  0  0  0  0  0  0  0  0  0  0
    0.7145    3.7125    0.0000 O   0  0  0  0  0  0  0  0  0  0  0  0
   -0.0000    2.4750    0.0000 C   0  0  0  0  0  0  0  0  0  0  0  0
    0.7145    2.0625    0.0000 C   0  0  0  0  0  0  0  0  0  0  0  0
    0.7145    1.2375    0.0000 C   0  0  0  0  0  0  0  0  0  0  0  0
    1.4289    0.8250    0.0000 C   0  0  0  0  0  0  0  0  0  0  0  0
    1.4289   -0.0000    0.0000 C   0  0  0  0  0  0  0  0  0  0  0  0
    0.7145   -0.4125    0.0000 C   0  0  0  0  0  0  0  0  0  0  0  0
   -0.0000   -0.0000    0.0000 C   0  0  0  0  0  0  0  0  0  0  0  0
   -0.0000    0.8250    0.0000 C   0  0  0  0  0  0  0  0  0  0  0  0
   -0.3020    4.4270    0.0000 H   0  0  0  0  0  0  0  0  0  0  0  0
   -1.4289    4.1250    0.0000 H   0  0  0  0  0  0  0  0  0  0  0  0
   -1.1270    2.9980    0.0000 H   0  0  0  0  0  0  0  0  0  0  0  0
   -0.7145    2.0625    0.0000 H   0  0  0  0  0  0  0  0  0  0  0  0
    1.4289    2.4750    0.0000 H   0  0  0  0  0  0  0  0  0  0  0  0
    2.1434    1.2375    0.0000 H   0  0  0  0  0  0  0  0  0  0  0  0
    2.1434   -0.4125    0.0000 H   0  0  0  0  0  0  0  0  0  0  0  0
    0.7145   -1.2375    0.0000 H   0  0  0  0  0  0  0  0  0  0  0  0
   -0.7145   -0.4125    0.0000 H   0  0  0  0  0  0  0  0  0  0  0  0
   -0.7145    1.2375    0.0000 H   0  0  0  0  0  0  0  0  0  0  0  0
  1  2  1  0  0  0  0
  2  3  2  0  0  0  0
  4  2  1  4  0  0  0
  4  5  2  0  0  0  0
  5  6  1  0  0  0  0
  6  7  4  0  0  0  0
  7  8  4  0  0  0  0
  8  9  4  0  0  0  0
  9 10  4  0  0  0  0
 10 11  4  0  0  0  0
  6 11  4  0  0  0  0
  1 12  1  0  0  0  0
  1 13  1  0  0  0  0
  1 14  1  0  0  0  0
  4 15  1  0  0  0  0
  5 16  1  0  0  0  0
  7 17  1  0  0  0  0
  8 18  1  0  0  0  0
  9 19  1  0  0  0  0
 10 20  1  0  0  0  0
 11 21  1  0  0  0  0
M  END
>  <InChIKey>
BWHOZHOGCMHOBV-BQYQJAHWSA-N

>  <UN GHS>
Non-irritant

>  <CASRN>
122-57-6

> <Outcome>
0

>  <Index>
72

>  <StandardizerResult>
Dearomatize (ID: Dearomatize)
Clear Stereo (ID: ClearStereo)
Wedge Clean (ID: WedgeClean)
Mesomerize (ID: Mesomerize)
Tautomerize (ID: Tautomerize)
Aromatize (ID: Aromatize)
Add Explicit Hydrogens (ID: AddExplicitH)
Neutralize (ID: Neutralize)
Clean 2D (ID: Clean2D)

> <knn Distance>
2.64575123786926

> <CpId>
72

$$$$
114
  Mrv1532301301811342D          

 36 35  0  0  0  0            999 V2000
    3.5211    2.8574    0.0000 C   0  0  0  0  0  0  0  0  0  0  0  0
    4.2355    3.2699    0.0000 C   0  0  0  0  0  0  0  0  0  0  0  0
    4.9500    2.8574    0.0000 C   0  0  0  0  0  0  0  0  0  0  0  0
    5.6645    3.2699    0.0000 C   0  0  0  0  0  0  0  0  0  0  0  0
    6.3789    2.8574    0.0000 C   0  0  0  0  0  0  0  0  0  0  0  0
    7.0934    3.2699    0.0000 C   0  0  0  0  0  0  0  0  0  0  0  0
    7.8079    2.8574    0.0000 C   0  0  0  0  0  0  0  0  0  0  0  0
    8.5224    3.2699    0.0000 C   0  0  0  0  0  0  0  0  0  0  0  0
    9.2368    2.8574    0.0000 C   0  0  0  0  0  0  0  0  0  0  0  0
    9.9513    3.2699    0.0000 C   0  0  0  0  0  0  0  0  0  0  0  0
   10.6658    2.8574    0.0000 C   0  0  0  0  0  0  0  0  0  0  0  0
   11.3802    3.2699    0.0000 C   0  0  0  0  0  0  0  0  0  0  0  0
    3.1086    3.5719    0.0000 H   0  0  0  0  0  0  0  0  0  0  0  0
    2.8066    2.4449    0.0000 H   0  0  0  0  0  0  0  0  0  0  0  0
    3.9336    2.1429    0.0000 H   0  0  0  0  0  0  0  0  0  0  0  0
    4.6058    4.0072    0.0000 H   0  0  0  0  0  0  0  0  0  0  0  0
    3.8653    4.0072    0.0000 H   0  0  0  0  0  0  0  0  0  0  0  0
    4.5797    2.1202    0.0000 H   0  0  0  0  0  0  0  0  0  0  0  0
    5.3203    2.1202    0.0000 H   0  0  0  0  0  0  0  0  0  0  0  0
    6.0347    4.0072    0.0000 H   0  0  0  0  0  0  0  0  0  0  0  0
    5.2942    4.0072    0.0000 H   0  0  0  0  0  0  0  0  0  0  0  0
    6.0087    2.1202    0.0000 H   0  0  0  0  0  0  0  0  0  0  0  0
    6.7492    2.1202    0.0000 H   0  0  0  0  0  0  0  0  0  0  0  0
    7.4637    4.0072    0.0000 H   0  0  0  0  0  0  0  0  0  0  0  0
    6.7232    4.0072    0.0000 H   0  0  0  0  0  0  0  0  0  0  0  0
    7.4376    2.1202    0.0000 H   0  0  0  0  0  0  0  0  0  0  0  0
    8.1781    2.1202    0.0000 H   0  0  0  0  0  0  0  0  0  0  0  0
    8.8926    4.0072    0.0000 H   0  0  0  0  0  0  0  0  0  0  0  0
    8.1521    4.0072    0.0000 H   0  0  0  0  0  0  0  0  0  0  0  0
    8.8666    2.1202    0.0000 H   0  0  0  0  0  0  0  0  0  0  0  0
    9.6071    2.1202    0.0000 H   0  0  0  0  0  0  0  0  0  0  0  0
   10.3216    4.0072    0.0000 H   0  0  0  0  0  0  0  0  0  0  0  0
    9.5810    4.0072    0.0000 H   0  0  0  0  0  0  0  0  0  0  0  0
   10.6658    2.0324    0.0000 H   0  0  0  0  0  0  0  0  0  0  0  0
   12.0947    2.8574    0.0000 H   0  0  0  0  0  0  0  0  0  0  0  0
   11.3802    4.0949    0.0000 H   0  0  0  0  0  0  0  0  0  0  0  0
  1  2  1  0  0  0  0
  2  3  1  0  0  0  0
  3  4  1  0  0  0  0
  4  5  1  0  0  0  0
  5  6  1  0  0  0  0
  6  7  1  0  0  0  0
  7  8  1  0  0  0  0
  8  9  1  0  0  0  0
  9 10  1  0  0  0  0
 10 11  1  0  0  0  0
 11 12  2  0  0  0  0
  1 13  1  0  0  0  0
  1 14  1  0  0  0  0
  1 15  1  0  0  0  0
  2 16  1  0  0  0  0
  2 17  1  0  0  0  0
  3 18  1  0  0  0  0
  3 19  1  0  0  0  0
  4 20  1  0  0  0  0
  4 21  1  0  0  0  0
  5 22  1  0  0  0  0
  5 23  1  0  0  0  0
  6 24  1  0  0  0  0
  6 25  1  0  0  0  0
  7 26  1  0  0  0  0
  7 27  1  0  0  0  0
  8 28  1  0  0  0  0
  8 29  1  0  0  0  0
  9 30  1  0  0  0  0
  9 31  1  0  0  0  0
 10 32  1  0  0  0  0
 10 33  1  0  0  0  0
 11 34  1  0  0  0  0
 12 35  1  0  0  0  0
 12 36  1  0  0  0  0
M  END
>  <InChIKey>
CRSBERNSMYQZNG-UHFFFAOYSA-N

>  <UN GHS>
Non-irritant

>  <CASRN>
112-41-4

> <Outcome>
0

>  <Index>
114

>  <StandardizerResult>
Clear Stereo (ID: ClearStereo)
Wedge Clean (ID: WedgeClean)
Mesomerize (ID: Mesomerize)
Tautomerize (ID: Tautomerize)
Add Explicit Hydrogens (ID: AddExplicitH)
Neutralize (ID: Neutralize)
Clean 2D (ID: Clean2D)

> <knn Distance>
2.64575123786926

> <CpId>
114

$$$$
130
  Mrv1532301301811342D          

173172  0  0  0  0            999 V2000
   22.7936   13.9868    0.0000 C   0  0  0  0  0  0  0  0  0  0  0  0
   23.5080   13.5743    0.0000 C   0  0  0  0  0  0  0  0  0  0  0  0
   24.2225   13.9868    0.0000 C   0  0  0  0  0  0  0  0  0  0  0  0
   24.9370   13.5743    0.0000 C   0  0  0  0  0  0  0  0  0  0  0  0
   25.6514   13.9868    0.0000 C   0  0  0  0  0  0  0  0  0  0  0  0
   26.3659   13.5743    0.0000 C   0  0  0  0  0  0  0  0  0  0  0  0
   27.0804   13.9868    0.0000 C   0  0  0  0  0  0  0  0  0  0  0  0
   27.7948   13.5743    0.0000 C   0  0  0  0  0  0  0  0  0  0  0  0
   28.5093   13.9868    0.0000 C   0  0  0  0  0  0  0  0  0  0  0  0
   29.2238   13.5743    0.0000 C   0  0  0  0  0  0  0  0  0  0  0  0
   29.9383   13.9868    0.0000 C   0  0  0  0  0  0  0  0  0  0  0  0
   30.6527   13.5743    0.0000 C   0  0  0  0  0  0  0  0  0  0  0  0
   31.3672   13.9868    0.0000 C   0  0  0  0  0  0  0  0  0  0  0  0
   32.0817   13.5743    0.0000 C   0  0  0  0  0  0  0  0  0  0  0  0
   32.7961   13.9868    0.0000 C   0  0  0  0  0  0  0  0  0  0  0  0
   33.5106   13.5743    0.0000 C   0  0  0  0  0  0  0  0  0  0  0  0
   34.2251   13.9868    0.0000 C   0  0  0  0  0  0  0  0  0  0  0  0
   34.9396   13.5743    0.0000 C   0  0  0  0  0  0  0  0  0  0  0  0
   34.9396   12.7493    0.0000 O   0  0  0  0  0  0  0  0  0  0  0  0
   35.6540   13.9868    0.0000 O   0  0  0  0  0  0  0  0  0  0  0  0
   36.3685   13.5743    0.0000 C   0  0  0  0  0  0  0  0  0  0  0  0
   37.0830   13.9868    0.0000 C   0  0  0  0  0  0  0  0  0  0  0  0
   37.7974   13.5743    0.0000 C   0  0  0  0  0  0  0  0  0  0  0  0
   38.5119   13.9868    0.0000 O   0  0  0  0  0  0  0  0  0  0  0  0
   39.2264   13.5743    0.0000 C   0  0  0  0  0  0  0  0  0  0  0  0
   39.2264   12.7493    0.0000 O   0  0  0  0  0  0  0  0  0  0  0  0
   39.9409   13.9868    0.0000 C   0  0  0  0  0  0  0  0  0  0  0  0
   40.6553   13.5743    0.0000 C   0  0  0  0  0  0  0  0  0  0  0  0
   41.3698   13.9868    0.0000 C   0  0  0  0  0  0  0  0  0  0  0  0
   42.0843   13.5743    0.0000 C   0  0  0  0  0  0  0  0  0  0  0  0
   42.7987   13.9868    0.0000 C   0  0  0  0  0  0  0  0  0  0  0  0
   43.5132   13.5743    0.0000 C   0  0  0  0  0  0  0  0  0  0  0  0
   44.2277   13.9868    0.0000 C   0  0  0  0  0  0  0  0  0  0  0  0
   44.9422   13.5743    0.0000 C   0  0  0  0  0  0  0  0  0  0  0  0
   45.6566   13.9868    0.0000 C   0  0  0  0  0  0  0  0  0  0  0  0
   46.3711   13.5743    0.0000 C   0  0  0  0  0  0  0  0  0  0  0  0
   47.0856   13.9868    0.0000 C   0  0  0  0  0  0  0  0  0  0  0  0
   47.8000   13.5743    0.0000 C   0  0  0  0  0  0  0  0  0  0  0  0
   48.5145   13.9868    0.0000 C   0  0  0  0  0  0  0  0  0  0  0  0
   49.2290   13.5743    0.0000 C   0  0  0  0  0  0  0  0  0  0  0  0
   49.9434   13.9868    0.0000 C   0  0  0  0  0  0  0  0  0  0  0  0
   50.6579   13.5743    0.0000 C   0  0  0  0  0  0  0  0  0  0  0  0
   51.3724   13.9868    0.0000 C   0  0  0  0  0  0  0  0  0  0  0  0
   37.0830   14.8118    0.0000 O   0  0  0  0  0  0  0  0  0  0  0  0
   36.3685   15.2243    0.0000 C   0  0  0  0  0  0  0  0  0  0  0  0
   35.6540   14.8118    0.0000 O   0  0  0  0  0  0  0  0  0  0  0  0
   36.3685   16.0493    0.0000 C   0  0  0  0  0  0  0  0  0  0  0  0
   35.6540   16.4618    0.0000 C   0  0  0  0  0  0  0  0  0  0  0  0
   35.6540   17.2868    0.0000 C   0  0  0  0  0  0  0  0  0  0  0  0
   34.9396   17.6993    0.0000 C   0  0  0  0  0  0  0  0  0  0  0  0
   34.9396   18.5243    0.0000 C   0  0  0  0  0  0  0  0  0  0  0  0
   34.2251   18.9368    0.0000 C   0  0  0  0  0  0  0  0  0  0  0  0
   34.2251   19.7618    0.0000 C   0  0  0  0  0  0  0  0  0  0  0  0
   33.5106   20.1743    0.0000 C   0  0  0  0  0  0  0  0  0  0  0  0
   33.5106   20.9993    0.0000 C   0  0  0  0  0  0  0  0  0  0  0  0
   32.7961   21.4118    0.0000 C   0  0  0  0  0  0  0  0  0  0  0  0
   32.7961   22.2368    0.0000 C   0  0  0  0  0  0  0  0  0  0  0  0
   32.0817   22.6493    0.0000 C   0  0  0  0  0  0  0  0  0  0  0  0
   32.0817   23.4743    0.0000 C   0  0  0  0  0  0  0  0  0  0  0  0
   31.3672   23.8868    0.0000 C   0  0  0  0  0  0  0  0  0  0  0  0
   31.3672   24.7118    0.0000 C   0  0  0  0  0  0  0  0  0  0  0  0
   30.6527   25.1243    0.0000 C   0  0  0  0  0  0  0  0  0  0  0  0
   30.6527   25.9493    0.0000 C   0  0  0  0  0  0  0  0  0  0  0  0
   23.2061   14.7013    0.0000 H   0  0  0  0  0  0  0  0  0  0  0  0
   22.0791   14.3993    0.0000 H   0  0  0  0  0  0  0  0  0  0  0  0
   22.3811   13.2724    0.0000 H   0  0  0  0  0  0  0  0  0  0  0  0
   23.1378   12.8371    0.0000 H   0  0  0  0  0  0  0  0  0  0  0  0
   23.8783   12.8371    0.0000 H   0  0  0  0  0  0  0  0  0  0  0  0
   24.5928   14.7241    0.0000 H   0  0  0  0  0  0  0  0  0  0  0  0
   23.8522   14.7241    0.0000 H   0  0  0  0  0  0  0  0  0  0  0  0
   24.5667   12.8371    0.0000 H   0  0  0  0  0  0  0  0  0  0  0  0
   25.3072   12.8371    0.0000 H   0  0  0  0  0  0  0  0  0  0  0  0
   26.0217   14.7241    0.0000 H   0  0  0  0  0  0  0  0  0  0  0  0
   25.2812   14.7241    0.0000 H   0  0  0  0  0  0  0  0  0  0  0  0
   25.9956   12.8371    0.0000 H   0  0  0  0  0  0  0  0  0  0  0  0
   26.7362   12.8371    0.0000 H   0  0  0  0  0  0  0  0  0  0  0  0
   27.4506   14.7241    0.0000 H   0  0  0  0  0  0  0  0  0  0  0  0
   26.7101   14.7241    0.0000 H   0  0  0  0  0  0  0  0  0  0  0  0
   27.4246   12.8371    0.0000 H   0  0  0  0  0  0  0  0  0  0  0  0
   28.1651   12.8371    0.0000 H   0  0  0  0  0  0  0  0  0  0  0  0
   28.8796   14.7241    0.0000 H   0  0  0  0  0  0  0  0  0  0  0  0
   28.1391   14.7241    0.0000 H   0  0  0  0  0  0  0  0  0  0  0  0
   28.8535   12.8371    0.0000 H   0  0  0  0  0  0  0  0  0  0  0  0
   29.5940   12.8371    0.0000 H   0  0  0  0  0  0  0  0  0  0  0  0
   30.3085   14.7241    0.0000 H   0  0  0  0  0  0  0  0  0  0  0  0
   29.5680   14.7241    0.0000 H   0  0  0  0  0  0  0  0  0  0  0  0
   30.2825   12.8371    0.0000 H   0  0  0  0  0  0  0  0  0  0  0  0
   31.0230   12.8371    0.0000 H   0  0  0  0  0  0  0  0  0  0  0  0
   31.7375   14.7241    0.0000 H   0  0  0  0  0  0  0  0  0  0  0  0
   30.9969   14.7241    0.0000 H   0  0  0  0  0  0  0  0  0  0  0  0
   31.7114   12.8371    0.0000 H   0  0  0  0  0  0  0  0  0  0  0  0
   32.4519   12.8371    0.0000 H   0  0  0  0  0  0  0  0  0  0  0  0
   33.1664   14.7241    0.0000 H   0  0  0  0  0  0  0  0  0  0  0  0
   32.4259   14.7241    0.0000 H   0  0  0  0  0  0  0  0  0  0  0  0
   33.1404   12.8371    0.0000 H   0  0  0  0  0  0  0  0  0  0  0  0
   33.8809   12.8371    0.0000 H   0  0  0  0  0  0  0  0  0  0  0  0
   34.5953   14.7241    0.0000 H   0  0  0  0  0  0  0  0  0  0  0  0
   33.8548   14.7241    0.0000 H   0  0  0  0  0  0  0  0  0  0  0  0
   35.9982   12.8371    0.0000 H   0  0  0  0  0  0  0  0  0  0  0  0
   36.7388   12.8371    0.0000 H   0  0  0  0  0  0  0  0  0  0  0  0
   37.0830   13.1618    0.0000 H   0  0  0  0  0  0  0  0  0  0  0  0
   37.9407   12.7619    0.0000 H   0  0  0  0  0  0  0  0  0  0  0  0
   38.4294   13.0440    0.0000 H   0  0  0  0  0  0  0  0  0  0  0  0
   40.3111   14.7241    0.0000 H   0  0  0  0  0  0  0  0  0  0  0  0
   39.5706   14.7241    0.0000 H   0  0  0  0  0  0  0  0  0  0  0  0
   40.2851   12.8371    0.0000 H   0  0  0  0  0  0  0  0  0  0  0  0
   41.0256   12.8371    0.0000 H   0  0  0  0  0  0  0  0  0  0  0  0
   41.7401   14.7241    0.0000 H   0  0  0  0  0  0  0  0  0  0  0  0
   40.9995   14.7241    0.0000 H   0  0  0  0  0  0  0  0  0  0  0  0
   41.7140   12.8371    0.0000 H   0  0  0  0  0  0  0  0  0  0  0  0
   42.4545   12.8371    0.0000 H   0  0  0  0  0  0  0  0  0  0  0  0
   43.1690   14.7241    0.0000 H   0  0  0  0  0  0  0  0  0  0  0  0
   42.4285   14.7241    0.0000 H   0  0  0  0  0  0  0  0  0  0  0  0
   43.1429   12.8371    0.0000 H   0  0  0  0  0  0  0  0  0  0  0  0
   43.8835   12.8371    0.0000 H   0  0  0  0  0  0  0  0  0  0  0  0
   44.5979   14.7241    0.0000 H   0  0  0  0  0  0  0  0  0  0  0  0
   43.8574   14.7241    0.0000 H   0  0  0  0  0  0  0  0  0  0  0  0
   44.5719   12.8371    0.0000 H   0  0  0  0  0  0  0  0  0  0  0  0
   45.3124   12.8371    0.0000 H   0  0  0  0  0  0  0  0  0  0  0  0
   46.0269   14.7241    0.0000 H   0  0  0  0  0  0  0  0  0  0  0  0
   45.2864   14.7241    0.0000 H   0  0  0  0  0  0  0  0  0  0  0  0
   46.0008   12.8371    0.0000 H   0  0  0  0  0  0  0  0  0  0  0  0
   46.7414   12.8371    0.0000 H   0  0  0  0  0  0  0  0  0  0  0  0
   47.4558   14.7241    0.0000 H   0  0  0  0  0  0  0  0  0  0  0  0
   46.7153   14.7241    0.0000 H   0  0  0  0  0  0  0  0  0  0  0  0
   47.4298   12.8371    0.0000 H   0  0  0  0  0  0  0  0  0  0  0  0
   48.1703   12.8371    0.0000 H   0  0  0  0  0  0  0  0  0  0  0  0
   48.8848   14.7241    0.0000 H   0  0  0  0  0  0  0  0  0  0  0  0
   48.1442   14.7241    0.0000 H   0  0  0  0  0  0  0  0  0  0  0  0
   48.8587   12.8371    0.0000 H   0  0  0  0  0  0  0  0  0  0  0  0
   49.5992   12.8371    0.0000 H   0  0  0  0  0  0  0  0  0  0  0  0
   50.3137   14.7241    0.0000 H   0  0  0  0  0  0  0  0  0  0  0  0
   49.5732   14.7241    0.0000 H   0  0  0  0  0  0  0  0  0  0  0  0
   50.2877   12.8371    0.0000 H   0  0  0  0  0  0  0  0  0  0  0  0
   51.0282   12.8371    0.0000 H   0  0  0  0  0  0  0  0  0  0  0  0
   51.7849   13.2724    0.0000 H   0  0  0  0  0  0  0  0  0  0  0  0
   52.0869   14.3993    0.0000 H   0  0  0  0  0  0  0  0  0  0  0  0
   50.9599   14.7013    0.0000 H   0  0  0  0  0  0  0  0  0  0  0  0
   37.1921   16.0973    0.0000 H   0  0  0  0  0  0  0  0  0  0  0  0
   36.8218   16.7386    0.0000 H   0  0  0  0  0  0  0  0  0  0  0  0
   34.8304   16.4139    0.0000 H   0  0  0  0  0  0  0  0  0  0  0  0
   35.2007   15.7726    0.0000 H   0  0  0  0  0  0  0  0  0  0  0  0
   36.4776   17.3348    0.0000 H   0  0  0  0  0  0  0  0  0  0  0  0
   36.1074   17.9761    0.0000 H   0  0  0  0  0  0  0  0  0  0  0  0
   34.1160   17.6514    0.0000 H   0  0  0  0  0  0  0  0  0  0  0  0
   34.4862   17.0101    0.0000 H   0  0  0  0  0  0  0  0  0  0  0  0
   35.7632   18.5723    0.0000 H   0  0  0  0  0  0  0  0  0  0  0  0
   35.3929   19.2136    0.0000 H   0  0  0  0  0  0  0  0  0  0  0  0
   33.4015   18.8889    0.0000 H   0  0  0  0  0  0  0  0  0  0  0  0
   33.7717   18.2476    0.0000 H   0  0  0  0  0  0  0  0  0  0  0  0
   35.0487   19.8098    0.0000 H   0  0  0  0  0  0  0  0  0  0  0  0
   34.6784   20.4511    0.0000 H   0  0  0  0  0  0  0  0  0  0  0  0
   32.6870   20.1264    0.0000 H   0  0  0  0  0  0  0  0  0  0  0  0
   33.0573   19.4851    0.0000 H   0  0  0  0  0  0  0  0  0  0  0  0
   34.3342   21.0473    0.0000 H   0  0  0  0  0  0  0  0  0  0  0  0
   33.9640   21.6886    0.0000 H   0  0  0  0  0  0  0  0  0  0  0  0
   31.9725   21.3639    0.0000 H   0  0  0  0  0  0  0  0  0  0  0  0
   32.3428   20.7226    0.0000 H   0  0  0  0  0  0  0  0  0  0  0  0
   33.6197   22.2848    0.0000 H   0  0  0  0  0  0  0  0  0  0  0  0
   33.2495   22.9261    0.0000 H   0  0  0  0  0  0  0  0  0  0  0  0
   31.2581   22.6014    0.0000 H   0  0  0  0  0  0  0  0  0  0  0  0
   31.6283   21.9601    0.0000 H   0  0  0  0  0  0  0  0  0  0  0  0
   32.9053   23.5223    0.0000 H   0  0  0  0  0  0  0  0  0  0  0  0
   32.5350   24.1636    0.0000 H   0  0  0  0  0  0  0  0  0  0  0  0
   30.5436   23.8389    0.0000 H   0  0  0  0  0  0  0  0  0  0  0  0
   30.9139   23.1976    0.0000 H   0  0  0  0  0  0  0  0  0  0  0  0
   32.1908   24.7598    0.0000 H   0  0  0  0  0  0  0  0  0  0  0  0
   31.8205   25.4011    0.0000 H   0  0  0  0  0  0  0  0  0  0  0  0
   29.8291   25.0764    0.0000 H   0  0  0  0  0  0  0  0  0  0  0  0
   30.1994   24.4351    0.0000 H   0  0  0  0  0  0  0  0  0  0  0  0
   31.4777   25.9493    0.0000 H   0  0  0  0  0  0  0  0  0  0  0  0
   30.6527   26.7743    0.0000 H   0  0  0  0  0  0  0  0  0  0  0  0
   29.8277   25.9493    0.0000 H   0  0  0  0  0  0  0  0  0  0  0  0
  1  2  1  0  0  0  0
  2  3  1  0  0  0  0
  3  4  1  0  0  0  0
  4  5  1  0  0  0  0
  5  6  1  0  0  0  0
  6  7  1  0  0  0  0
  7  8  1  0  0  0  0
  8  9  1  0  0  0  0
  9 10  1  0  0  0  0
 10 11  1  0  0  0  0
 11 12  1  0  0  0  0
 12 13  1  0  0  0  0
 13 14  1  0  0  0  0
 14 15  1  0  0  0  0
 15 16  1  0  0  0  0
 16 17  1  0  0  0  0
 17 18  1  0  0  0  0
 18 19  2  0  0  0  0
 18 20  1  0  0  0  0
 20 21  1  0  0  0  0
 21 22  1  0  0  0  0
 22 23  1  0  0  0  0
 23 24  1  0  0  0  0
 24 25  1  0  0  0  0
 25 26  2  0  0  0  0
 25 27  1  0  0  0  0
 27 28  1  0  0  0  0
 28 29  1  0  0  0  0
 29 30  1  0  0  0  0
 30 31  1  0  0  0  0
 31 32  1  0  0  0  0
 32 33  1  0  0  0  0
 33 34  1  0  0  0  0
 34 35  1  0  0  0  0
 35 36  1  0  0  0  0
 36 37  1  0  0  0  0
 37 38  1  0  0  0  0
 38 39  1  0  0  0  0
 39 40  1  0  0  0  0
 40 41  1  0  0  0  0
 41 42  1  0  0  0  0
 42 43  1  0  0  0  0
 22 44  1  0  0  0  0
 44 45  1  0  0  0  0
 45 46  2  0  0  0  0
 45 47  1  0  0  0  0
 47 48  1  0  0  0  0
 48 49  1  0  0  0  0
 49 50  1  0  0  0  0
 50 51  1  0  0  0  0
 51 52  1  0  0  0  0
 52 53  1  0  0  0  0
 53 54  1  0  0  0  0
 54 55  1  0  0  0  0
 55 56  1  0  0  0  0
 56 57  1  0  0  0  0
 57 58  1  0  0  0  0
 58 59  1  0  0  0  0
 59 60  1  0  0  0  0
 60 61  1  0  0  0  0
 61 62  1  0  0  0  0
 62 63  1  0  0  0  0
  1 64  1  0  0  0  0
  1 65  1  0  0  0  0
  1 66  1  0  0  0  0
  2 67  1  0  0  0  0
  2 68  1  0  0  0  0
  3 69  1  0  0  0  0
  3 70  1  0  0  0  0
  4 71  1  0  0  0  0
  4 72  1  0  0  0  0
  5 73  1  0  0  0  0
  5 74  1  0  0  0  0
  6 75  1  0  0  0  0
  6 76  1  0  0  0  0
  7 77  1  0  0  0  0
  7 78  1  0  0  0  0
  8 79  1  0  0  0  0
  8 80  1  0  0  0  0
  9 81  1  0  0  0  0
  9 82  1  0  0  0  0
 10 83  1  0  0  0  0
 10 84  1  0  0  0  0
 11 85  1  0  0  0  0
 11 86  1  0  0  0  0
 12 87  1  0  0  0  0
 12 88  1  0  0  0  0
 13 89  1  0  0  0  0
 13 90  1  0  0  0  0
 14 91  1  0  0  0  0
 14 92  1  0  0  0  0
 15 93  1  0  0  0  0
 15 94  1  0  0  0  0
 16 95  1  0  0  0  0
 16 96  1  0  0  0  0
 17 97  1  0  0  0  0
 17 98  1  0  0  0  0
 21 99  1  0  0  0  0
 21100  1  0  0  0  0
 22101  1  0  0  0  0
 23102  1  0  0  0  0
 23103  1  0  0  0  0
 27104  1  0  0  0  0
 27105  1  0  0  0  0
 28106  1  0  0  0  0
 28107  1  0  0  0  0
 29108  1  0  0  0  0
 29109  1  0  0  0  0
 30110  1  0  0  0  0
 30111  1  0  0  0  0
 31112  1  0  0  0  0
 31113  1  0  0  0  0
 32114  1  0  0  0  0
 32115  1  0  0  0  0
 33116  1  0  0  0  0
 33117  1  0  0  0  0
 34118  1  0  0  0  0
 34119  1  0  0  0  0
 35120  1  0  0  0  0
 35121  1  0  0  0  0
 36122  1  0  0  0  0
 36123  1  0  0  0  0
 37124  1  0  0  0  0
 37125  1  0  0  0  0
 38126  1  0  0  0  0
 38127  1  0  0  0  0
 39128  1  0  0  0  0
 39129  1  0  0  0  0
 40130  1  0  0  0  0
 40131  1  0  0  0  0
 41132  1  0  0  0  0
 41133  1  0  0  0  0
 42134  1  0  0  0  0
 42135  1  0  0  0  0
 43136  1  0  0  0  0
 43137  1  0  0  0  0
 43138  1  0  0  0  0
 47139  1  0  0  0  0
 47140  1  0  0  0  0
 48141  1  0  0  0  0
 48142  1  0  0  0  0
 49143  1  0  0  0  0
 49144  1  0  0  0  0
 50145  1  0  0  0  0
 50146  1  0  0  0  0
 51147  1  0  0  0  0
 51148  1  0  0  0  0
 52149  1  0  0  0  0
 52150  1  0  0  0  0
 53151  1  0  0  0  0
 53152  1  0  0  0  0
 54153  1  0  0  0  0
 54154  1  0  0  0  0
 55155  1  0  0  0  0
 55156  1  0  0  0  0
 56157  1  0  0  0  0
 56158  1  0  0  0  0
 57159  1  0  0  0  0
 57160  1  0  0  0  0
 58161  1  0  0  0  0
 58162  1  0  0  0  0
 59163  1  0  0  0  0
 59164  1  0  0  0  0
 60165  1  0  0  0  0
 60166  1  0  0  0  0
 61167  1  0  0  0  0
 61168  1  0  0  0  0
 62169  1  0  0  0  0
 62170  1  0  0  0  0
 63171  1  0  0  0  0
 63172  1  0  0  0  0
 63173  1  0  0  0  0
M  END
>  <InChIKey>
DCXXMTOCNZCJGO-UHFFFAOYSA-N

>  <UN GHS>
Non-irritant

>  <CASRN>
555-43-1

> <Outcome>
0

>  <Index>
130

>  <StandardizerResult>
Clear Stereo (ID: ClearStereo)
Wedge Clean (ID: WedgeClean)
Mesomerize (ID: Mesomerize)
Tautomerize (ID: Tautomerize)
Add Explicit Hydrogens (ID: AddExplicitH)
Neutralize (ID: Neutralize)
Clean 2D (ID: Clean2D)

> <knn Distance>
2.64575123786926

> <CpId>
130

$$$$
141
  Mrv1532301301811342D          

 59 58  0  0  0  0            999 V2000
   11.6605    7.5581    0.0000 C   0  0  0  0  0  0  0  0  0  0  0  0
   12.3750    7.1456    0.0000 C   0  0  0  0  0  0  0  0  0  0  0  0
   13.0895    7.5581    0.0000 C   0  0  0  0  0  0  0  0  0  0  0  0
   13.8039    7.1456    0.0000 C   0  0  0  0  0  0  0  0  0  0  0  0
   14.5184    7.5581    0.0000 O   0  0  0  0  0  0  0  0  0  0  0  0
   15.2329    7.1456    0.0000 C   0  0  0  0  0  0  0  0  0  0  0  0
   15.9474    7.5581    0.0000 C   0  0  0  0  0  0  0  0  0  0  0  0
   16.6618    7.1456    0.0000 O   0  0  0  0  0  0  0  0  0  0  0  0
   17.3763    7.5581    0.0000 C   0  0  0  0  0  0  0  0  0  0  0  0
   18.0908    7.1456    0.0000 C   0  0  0  0  0  0  0  0  0  0  0  0
   18.8052    7.5581    0.0000 O   0  0  0  0  0  0  0  0  0  0  0  0
   19.5197    7.1456    0.0000 C   0  0  0  0  0  0  0  0  0  0  0  0
   20.2342    7.5581    0.0000 O   0  0  0  0  0  0  0  0  0  0  0  0
   20.9487    7.1456    0.0000 C   0  0  0  0  0  0  0  0  0  0  0  0
   21.6631    7.5581    0.0000 C   0  0  0  0  0  0  0  0  0  0  0  0
   22.3776    7.1456    0.0000 O   0  0  0  0  0  0  0  0  0  0  0  0
   23.0921    7.5581    0.0000 C   0  0  0  0  0  0  0  0  0  0  0  0
   23.8065    7.1456    0.0000 C   0  0  0  0  0  0  0  0  0  0  0  0
   24.5210    7.5581    0.0000 O   0  0  0  0  0  0  0  0  0  0  0  0
   25.2355    7.1456    0.0000 C   0  0  0  0  0  0  0  0  0  0  0  0
   25.9500    7.5581    0.0000 C   0  0  0  0  0  0  0  0  0  0  0  0
   26.6644    7.1456    0.0000 C   0  0  0  0  0  0  0  0  0  0  0  0
   27.3789    7.5581    0.0000 C   0  0  0  0  0  0  0  0  0  0  0  0
   12.0730    8.2726    0.0000 H   0  0  0  0  0  0  0  0  0  0  0  0
   10.9461    7.9706    0.0000 H   0  0  0  0  0  0  0  0  0  0  0  0
   11.2480    6.8436    0.0000 H   0  0  0  0  0  0  0  0  0  0  0  0
   12.0047    6.4083    0.0000 H   0  0  0  0  0  0  0  0  0  0  0  0
   12.7453    6.4083    0.0000 H   0  0  0  0  0  0  0  0  0  0  0  0
   13.4597    8.2953    0.0000 H   0  0  0  0  0  0  0  0  0  0  0  0
   12.7192    8.2953    0.0000 H   0  0  0  0  0  0  0  0  0  0  0  0
   13.4337    6.4083    0.0000 H   0  0  0  0  0  0  0  0  0  0  0  0
   14.1742    6.4083    0.0000 H   0  0  0  0  0  0  0  0  0  0  0  0
   14.8626    6.4083    0.0000 H   0  0  0  0  0  0  0  0  0  0  0  0
   15.6031    6.4083    0.0000 H   0  0  0  0  0  0  0  0  0  0  0  0
   16.3176    8.2953    0.0000 H   0  0  0  0  0  0  0  0  0  0  0  0
   15.5771    8.2953    0.0000 H   0  0  0  0  0  0  0  0  0  0  0  0
   17.7466    8.2953    0.0000 H   0  0  0  0  0  0  0  0  0  0  0  0
   17.0060    8.2953    0.0000 H   0  0  0  0  0  0  0  0  0  0  0  0
   17.7205    6.4083    0.0000 H   0  0  0  0  0  0  0  0  0  0  0  0
   18.4610    6.4083    0.0000 H   0  0  0  0  0  0  0  0  0  0  0  0
   19.1495    6.4083    0.0000 H   0  0  0  0  0  0  0  0  0  0  0  0
   19.8900    6.4083    0.0000 H   0  0  0  0  0  0  0  0  0  0  0  0
   20.5784    6.4083    0.0000 H   0  0  0  0  0  0  0  0  0  0  0  0
   21.3189    6.4083    0.0000 H   0  0  0  0  0  0  0  0  0  0  0  0
   22.0334    8.2953    0.0000 H   0  0  0  0  0  0  0  0  0  0  0  0
   21.2929    8.2953    0.0000 H   0  0  0  0  0  0  0  0  0  0  0  0
   23.4623    8.2953    0.0000 H   0  0  0  0  0  0  0  0  0  0  0  0
   22.7218    8.2953    0.0000 H   0  0  0  0  0  0  0  0  0  0  0  0
   23.4363    6.4083    0.0000 H   0  0  0  0  0  0  0  0  0  0  0  0
   24.1768    6.4083    0.0000 H   0  0  0  0  0  0  0  0  0  0  0  0
   24.8652    6.4083    0.0000 H   0  0  0  0  0  0  0  0  0  0  0  0
   25.6057    6.4083    0.0000 H   0  0  0  0  0  0  0  0  0  0  0  0
   26.3202    8.2953    0.0000 H   0  0  0  0  0  0  0  0  0  0  0  0
   25.5797    8.2953    0.0000 H   0  0  0  0  0  0  0  0  0  0  0  0
   26.2942    6.4083    0.0000 H   0  0  0  0  0  0  0  0  0  0  0  0
   27.0347    6.4083    0.0000 H   0  0  0  0  0  0  0  0  0  0  0  0
   27.7914    6.8436    0.0000 H   0  0  0  0  0  0  0  0  0  0  0  0
   28.0934    7.9706    0.0000 H   0  0  0  0  0  0  0  0  0  0  0  0
   26.9664    8.2726    0.0000 H   0  0  0  0  0  0  0  0  0  0  0  0
  1  2  1  0  0  0  0
  2  3  1  0  0  0  0
  3  4  1  0  0  0  0
  4  5  1  0  0  0  0
  5  6  1  0  0  0  0
  6  7  1  0  0  0  0
  7  8  1  0  0  0  0
  8  9  1  0  0  0  0
  9 10  1  0  0  0  0
 10 11  1  0  0  0  0
 11 12  1  0  0  0  0
 12 13  1  0  0  0  0
 13 14  1  0  0  0  0
 14 15  1  0  0  0  0
 15 16  1  0  0  0  0
 16 17  1  0  0  0  0
 17 18  1  0  0  0  0
 18 19  1  0  0  0  0
 19 20  1  0  0  0  0
 20 21  1  0  0  0  0
 21 22  1  0  0  0  0
 22 23  1  0  0  0  0
  1 24  1  0  0  0  0
  1 25  1  0  0  0  0
  1 26  1  0  0  0  0
  2 27  1  0  0  0  0
  2 28  1  0  0  0  0
  3 29  1  0  0  0  0
  3 30  1  0  0  0  0
  4 31  1  0  0  0  0
  4 32  1  0  0  0  0
  6 33  1  0  0  0  0
  6 34  1  0  0  0  0
  7 35  1  0  0  0  0
  7 36  1  0  0  0  0
  9 37  1  0  0  0  0
  9 38  1  0  0  0  0
 10 39  1  0  0  0  0
 10 40  1  0  0  0  0
 12 41  1  0  0  0  0
 12 42  1  0  0  0  0
 14 43  1  0  0  0  0
 14 44  1  0  0  0  0
 15 45  1  0  0  0  0
 15 46  1  0  0  0  0
 17 47  1  0  0  0  0
 17 48  1  0  0  0  0
 18 49  1  0  0  0  0
 18 50  1  0  0  0  0
 20 51  1  0  0  0  0
 20 52  1  0  0  0  0
 21 53  1  0  0  0  0
 21 54  1  0  0  0  0
 22 55  1  0  0  0  0
 22 56  1  0  0  0  0
 23 57  1  0  0  0  0
 23 58  1  0  0  0  0
 23 59  1  0  0  0  0
M  END
>  <InChIKey>
DKWHHTWSTXZKDW-UHFFFAOYSA-N

>  <UN GHS>
Non-irritant

>  <CASRN>
143-29-3

> <Outcome>
0

>  <Index>
141

>  <StandardizerResult>
Clear Stereo (ID: ClearStereo)
Wedge Clean (ID: WedgeClean)
Mesomerize (ID: Mesomerize)
Tautomerize (ID: Tautomerize)
Add Explicit Hydrogens (ID: AddExplicitH)
Neutralize (ID: Neutralize)
Clean 2D (ID: Clean2D)

> <knn Distance>
2.64575123786926

> <CpId>
141

$$$$
157
  Mrv1532301301811342D          

 27 26  0  0  0  0            999 V2000
    2.9980    2.5572    0.0000 C   0  0  0  0  0  0  0  0  0  0  0  0
    3.7125    2.1447    0.0000 C   0  0  0  0  0  0  0  0  0  0  0  0
    4.4270    2.5572    0.0000 C   0  0  0  0  0  0  0  0  0  0  0  0
    5.1414    2.1447    0.0000 C   0  0  0  0  0  0  0  0  0  0  0  0
    5.8559    2.5572    0.0000 O   0  0  0  0  0  0  0  0  0  0  0  0
    6.5704    2.1447    0.0000 C   0  0  0  0  0  0  0  0  0  0  0  0
    7.2849    2.5572    0.0000 C   0  0  0  0  0  0  0  0  0  0  0  0
    7.9993    2.1447    0.0000 C   0  0  0  0  0  0  0  0  0  0  0  0
    8.7138    2.5572    0.0000 C   0  0  0  0  0  0  0  0  0  0  0  0
    3.4105    3.2717    0.0000 H   0  0  0  0  0  0  0  0  0  0  0  0
    2.2836    2.9697    0.0000 H   0  0  0  0  0  0  0  0  0  0  0  0
    2.5855    1.8427    0.0000 H   0  0  0  0  0  0  0  0  0  0  0  0
    3.3422    1.4075    0.0000 H   0  0  0  0  0  0  0  0  0  0  0  0
    4.0828    1.4075    0.0000 H   0  0  0  0  0  0  0  0  0  0  0  0
    4.7972    3.2945    0.0000 H   0  0  0  0  0  0  0  0  0  0  0  0
    4.0567    3.2945    0.0000 H   0  0  0  0  0  0  0  0  0  0  0  0
    4.7712    1.4075    0.0000 H   0  0  0  0  0  0  0  0  0  0  0  0
    5.5117    1.4075    0.0000 H   0  0  0  0  0  0  0  0  0  0  0  0
    6.2001    1.4075    0.0000 H   0  0  0  0  0  0  0  0  0  0  0  0
    6.9406    1.4075    0.0000 H   0  0  0  0  0  0  0  0  0  0  0  0
    7.6551    3.2945    0.0000 H   0  0  0  0  0  0  0  0  0  0  0  0
    6.9146    3.2945    0.0000 H   0  0  0  0  0  0  0  0  0  0  0  0
    7.6291    1.4075    0.0000 H   0  0  0  0  0  0  0  0  0  0  0  0
    8.3696    1.4075    0.0000 H   0  0  0  0  0  0  0  0  0  0  0  0
    9.1263    1.8427    0.0000 H   0  0  0  0  0  0  0  0  0  0  0  0
    9.4283    2.9697    0.0000 H   0  0  0  0  0  0  0  0  0  0  0  0
    8.3013    3.2717    0.0000 H   0  0  0  0  0  0  0  0  0  0  0  0
  1  2  1  0  0  0  0
  2  3  1  0  0  0  0
  3  4  1  0  0  0  0
  4  5  1  0  0  0  0
  5  6  1  0  0  0  0
  6  7  1  0  0  0  0
  7  8  1  0  0  0  0
  8  9  1  0  0  0  0
  1 10  1  0  0  0  0
  1 11  1  0  0  0  0
  1 12  1  0  0  0  0
  2 13  1  0  0  0  0
  2 14  1  0  0  0  0
  3 15  1  0  0  0  0
  3 16  1  0  0  0  0
  4 17  1  0  0  0  0
  4 18  1  0  0  0  0
  6 19  1  0  0  0  0
  6 20  1  0  0  0  0
  7 21  1  0  0  0  0
  7 22  1  0  0  0  0
  8 23  1  0  0  0  0
  8 24  1  0  0  0  0
  9 25  1  0  0  0  0
  9 26  1  0  0  0  0
  9 27  1  0  0  0  0
M  END
>  <InChIKey>
DURPTKYDGMDSBL-UHFFFAOYSA-N

>  <UN GHS>
Non-irritant

>  <CASRN>
142-96-1

> <Outcome>
0

>  <Index>
157

>  <StandardizerResult>
Clear Stereo (ID: ClearStereo)
Wedge Clean (ID: WedgeClean)
Mesomerize (ID: Mesomerize)
Tautomerize (ID: Tautomerize)
Add Explicit Hydrogens (ID: AddExplicitH)
Neutralize (ID: Neutralize)
Clean 2D (ID: Clean2D)

> <knn Distance>
2.64575123786926

> <CpId>
157

$$$$
162
  Mrv1532301301811342D          

 29 30  0  0  0  0            999 V2000
    1.3876    0.0088    0.0000 C   0  0  0  0  0  0  0  0  0  0  0  0
    2.1020   -0.4037    0.0000 O   0  0  0  0  0  0  0  0  0  0  0  0
    2.1020   -1.2287    0.0000 C   0  0  0  0  0  0  0  0  0  0  0  0
    2.8165   -1.6412    0.0000 C   0  0  0  0  0  0  0  0  0  0  0  0
    2.8165   -2.4662    0.0000 C   0  0  0  0  0  0  0  0  0  0  0  0
    2.1020   -2.8787    0.0000 C   0  0  0  0  0  0  0  0  0  0  0  0
    2.1020   -3.7037    0.0000 C   0  0  0  0  0  0  0  0  0  0  0  0
    2.8165   -4.1162    0.0000 O   0  0  0  0  0  0  0  0  0  0  0  0
    1.3876   -4.1162    0.0000 C   0  0  0  0  0  0  0  0  0  0  0  0
    1.3876   -4.9412    0.0000 C   0  0  0  0  0  0  0  0  0  0  0  0
    0.6731   -5.3537    0.0000 C   0  0  0  0  0  0  0  0  0  0  0  0
   -0.0414   -4.9412    0.0000 C   0  0  0  0  0  0  0  0  0  0  0  0
   -0.0414   -4.1162    0.0000 C   0  0  0  0  0  0  0  0  0  0  0  0
    0.6731   -3.7037    0.0000 C   0  0  0  0  0  0  0  0  0  0  0  0
    1.3876   -2.4662    0.0000 C   0  0  0  0  0  0  0  0  0  0  0  0
    0.6731   -2.8787    0.0000 O   0  0  0  0  0  0  0  0  0  0  0  0
    1.3876   -1.6412    0.0000 C   0  0  0  0  0  0  0  0  0  0  0  0
    1.8001    0.7233    0.0000 H   0  0  0  0  0  0  0  0  0  0  0  0
    0.6731    0.4213    0.0000 H   0  0  0  0  0  0  0  0  0  0  0  0
    0.9751   -0.7057    0.0000 H   0  0  0  0  0  0  0  0  0  0  0  0
    3.5310   -1.2287    0.0000 H   0  0  0  0  0  0  0  0  0  0  0  0
    3.5310   -2.8787    0.0000 H   0  0  0  0  0  0  0  0  0  0  0  0
    2.1020   -5.3537    0.0000 H   0  0  0  0  0  0  0  0  0  0  0  0
    0.6731   -6.1787    0.0000 H   0  0  0  0  0  0  0  0  0  0  0  0
   -0.7558   -5.3537    0.0000 H   0  0  0  0  0  0  0  0  0  0  0  0
   -0.7558   -3.7037    0.0000 H   0  0  0  0  0  0  0  0  0  0  0  0
    1.3876   -3.2912    0.0000 H   0  0  0  0  0  0  0  0  0  0  0  0
   -0.0414   -2.4662    0.0000 H   0  0  0  0  0  0  0  0  0  0  0  0
    0.6731   -1.2287    0.0000 H   0  0  0  0  0  0  0  0  0  0  0  0
  1  2  1  0  0  0  0
  2  3  1  0  0  0  0
  3  4  4  0  0  0  0
  4  5  4  0  0  0  0
  5  6  4  0  0  0  0
  6  7  1  0  0  0  0
  7  8  2  0  0  0  0
  7  9  1  0  0  0  0
  9 10  4  0  0  0  0
 10 11  4  0  0  0  0
 11 12  4  0  0  0  0
 12 13  4  0  0  0  0
 13 14  4  0  0  0  0
  9 14  4  0  0  0  0
  6 15  4  0  0  0  0
 15 16  1  0  0  0  0
 15 17  4  0  0  0  0
  3 17  4  0  0  0  0
  1 18  1  0  0  0  0
  1 19  1  0  0  0  0
  1 20  1  0  0  0  0
  4 21  1  0  0  0  0
  5 22  1  0  0  0  0
 10 23  1  0  0  0  0
 11 24  1  0  0  0  0
 12 25  1  0  0  0  0
 13 26  1  0  0  0  0
 14 27  1  0  0  0  0
 16 28  1  0  0  0  0
 17 29  1  0  0  0  0
M  END
>  <InChIKey>
DXGLGDHPHMLXJC-UHFFFAOYSA-N

>  <UN GHS>
Non-irritant

>  <CASRN>
131-57-7

> <Outcome>
0

>  <Index>
162

>  <StandardizerResult>
Dearomatize (ID: Dearomatize)
Clear Stereo (ID: ClearStereo)
Wedge Clean (ID: WedgeClean)
Mesomerize (ID: Mesomerize)
Tautomerize (ID: Tautomerize)
Aromatize (ID: Aromatize)
Add Explicit Hydrogens (ID: AddExplicitH)
Neutralize (ID: Neutralize)
Clean 2D (ID: Clean2D)

> <knn Distance>
2.64575123786926

> <CpId>
162

$$$$
172
  Mrv1532301301811342D          

 26 25  0  0  0  0            999 V2000
    4.5378    2.1428    0.0000 C   0  0  0  0  0  0  0  0  0  0  0  0
    3.7128    2.1428    0.0000 C   0  0  0  0  0  0  0  0  0  0  0  0
    3.3003    1.4284    0.0000 C   0  0  0  0  0  0  0  0  0  0  0  0
    2.4753    1.4284    0.0000 C   0  0  0  0  0  0  0  0  0  0  0  0
    2.0628    0.7139    0.0000 C   0  0  0  0  0  0  0  0  0  0  0  0
    1.2378    0.7139    0.0000 C   0  0  0  0  0  0  0  0  0  0  0  0
    0.8253   -0.0006    0.0000 C   0  0  0  0  0  0  0  0  0  0  0  0
    0.0003   -0.0006    0.0000 C   0  0  0  0  0  0  0  0  0  0  0  0
   -0.4122   -0.7151    0.0000 C   0  0  0  0  0  0  0  0  0  0  0  0
    0.0003   -1.4295    0.0000 C   0  0  0  0  0  0  0  0  0  0  0  0
    4.5378    1.3178    0.0000 H   0  0  0  0  0  0  0  0  0  0  0  0
    5.3628    2.1428    0.0000 H   0  0  0  0  0  0  0  0  0  0  0  0
    4.5378    2.9678    0.0000 H   0  0  0  0  0  0  0  0  0  0  0  0
    3.6649    2.9664    0.0000 H   0  0  0  0  0  0  0  0  0  0  0  0
    3.0236    2.5962    0.0000 H   0  0  0  0  0  0  0  0  0  0  0  0
    3.7128    0.7139    0.0000 H   0  0  0  0  0  0  0  0  0  0  0  0
    2.0628    2.1428    0.0000 H   0  0  0  0  0  0  0  0  0  0  0  0
    2.1108   -0.1097    0.0000 H   0  0  0  0  0  0  0  0  0  0  0  0
    2.7521    0.2605    0.0000 H   0  0  0  0  0  0  0  0  0  0  0  0
    1.1899    1.5375    0.0000 H   0  0  0  0  0  0  0  0  0  0  0  0
    0.5486    1.1672    0.0000 H   0  0  0  0  0  0  0  0  0  0  0  0
    1.2378   -0.7151    0.0000 H   0  0  0  0  0  0  0  0  0  0  0  0
   -0.4122    0.7139    0.0000 H   0  0  0  0  0  0  0  0  0  0  0  0
   -1.2372   -0.7151    0.0000 H   0  0  0  0  0  0  0  0  0  0  0  0
   -0.4122   -2.1440    0.0000 H   0  0  0  0  0  0  0  0  0  0  0  0
    0.8253   -1.4295    0.0000 H   0  0  0  0  0  0  0  0  0  0  0  0
  1  2  1  0  0  0  0
  3  2  1  4  0  0  0
  3  4  2  0  0  0  0
  4  5  1  0  0  0  0
  5  6  1  0  0  0  0
  7  6  1  4  0  0  0
  7  8  2  0  0  0  0
  8  9  1  0  0  0  0
  9 10  2  0  0  0  0
  1 11  1  0  0  0  0
  1 12  1  0  0  0  0
  1 13  1  0  0  0  0
  2 14  1  0  0  0  0
  2 15  1  0  0  0  0
  3 16  1  0  0  0  0
  4 17  1  0  0  0  0
  5 18  1  0  0  0  0
  5 19  1  0  0  0  0
  6 20  1  0  0  0  0
  6 21  1  0  0  0  0
  7 22  1  0  0  0  0
  8 23  1  0  0  0  0
  9 24  1  0  0  0  0
 10 25  1  0  0  0  0
 10 26  1  0  0  0  0
M  END
>  <InChIKey>
FDBJNQUXZRDJHC-KQQUZDAGSA-N

>  <UN GHS>
Non-irritant

>  <CASRN>
68526-56-7

> <Outcome>
0

>  <Index>
172

>  <StandardizerResult>
Clear Stereo (ID: ClearStereo)
Wedge Clean (ID: WedgeClean)
Mesomerize (ID: Mesomerize)
Tautomerize (ID: Tautomerize)
Add Explicit Hydrogens (ID: AddExplicitH)
Neutralize (ID: Neutralize)
Clean 2D (ID: Clean2D)

> <knn Distance>
2.64575123786926

> <CpId>
172

$$$$
179
  Mrv1532301301811342D          

 62 61  0  0  0  0            999 V2000
    9.1359    6.1385    0.0000 C   0  0  0  0  0  0  0  0  0  0  0  0
    9.8503    5.7260    0.0000 C   0  0  0  0  0  0  0  0  0  0  0  0
   10.5648    6.1385    0.0000 C   0  0  0  0  0  0  0  0  0  0  0  0
   11.2793    5.7260    0.0000 C   0  0  0  0  0  0  0  0  0  0  0  0
   11.9937    6.1385    0.0000 C   0  0  0  0  0  0  0  0  0  0  0  0
   12.7082    5.7260    0.0000 C   0  0  0  0  0  0  0  0  0  0  0  0
   13.4227    6.1385    0.0000 C   0  0  0  0  0  0  0  0  0  0  0  0
   14.1372    5.7260    0.0000 C   0  0  0  0  0  0  0  0  0  0  0  0
   14.8516    6.1385    0.0000 C   0  0  0  0  0  0  0  0  0  0  0  0
   15.5661    5.7260    0.0000 C   0  0  0  0  0  0  0  0  0  0  0  0
   16.2806    6.1385    0.0000 C   0  0  0  0  0  0  0  0  0  0  0  0
   16.2806    6.9635    0.0000 C   0  0  0  0  0  0  0  0  0  0  0  0
   16.9950    5.7260    0.0000 C   0  0  0  0  0  0  0  0  0  0  0  0
   17.7095    6.1385    0.0000 C   0  0  0  0  0  0  0  0  0  0  0  0
   18.4240    5.7260    0.0000 C   0  0  0  0  0  0  0  0  0  0  0  0
   19.1385    6.1385    0.0000 C   0  0  0  0  0  0  0  0  0  0  0  0
   19.8529    5.7260    0.0000 C   0  0  0  0  0  0  0  0  0  0  0  0
   20.5674    6.1385    0.0000 C   0  0  0  0  0  0  0  0  0  0  0  0
   21.2819    5.7260    0.0000 C   0  0  0  0  0  0  0  0  0  0  0  0
   21.9963    6.1385    0.0000 C   0  0  0  0  0  0  0  0  0  0  0  0
    9.5484    6.8529    0.0000 H   0  0  0  0  0  0  0  0  0  0  0  0
    8.4214    6.5510    0.0000 H   0  0  0  0  0  0  0  0  0  0  0  0
    8.7234    5.4240    0.0000 H   0  0  0  0  0  0  0  0  0  0  0  0
    9.4801    4.9887    0.0000 H   0  0  0  0  0  0  0  0  0  0  0  0
   10.2206    4.9887    0.0000 H   0  0  0  0  0  0  0  0  0  0  0  0
   10.9351    6.8757    0.0000 H   0  0  0  0  0  0  0  0  0  0  0  0
   10.1945    6.8757    0.0000 H   0  0  0  0  0  0  0  0  0  0  0  0
   10.9090    4.9887    0.0000 H   0  0  0  0  0  0  0  0  0  0  0  0
   11.6495    4.9887    0.0000 H   0  0  0  0  0  0  0  0  0  0  0  0
   12.3640    6.8757    0.0000 H   0  0  0  0  0  0  0  0  0  0  0  0
   11.6235    6.8757    0.0000 H   0  0  0  0  0  0  0  0  0  0  0  0
   12.3380    4.9887    0.0000 H   0  0  0  0  0  0  0  0  0  0  0  0
   13.0785    4.9887    0.0000 H   0  0  0  0  0  0  0  0  0  0  0  0
   13.7929    6.8757    0.0000 H   0  0  0  0  0  0  0  0  0  0  0  0
   13.0524    6.8757    0.0000 H   0  0  0  0  0  0  0  0  0  0  0  0
   13.7669    4.9887    0.0000 H   0  0  0  0  0  0  0  0  0  0  0  0
   14.5074    4.9887    0.0000 H   0  0  0  0  0  0  0  0  0  0  0  0
   15.2219    6.8757    0.0000 H   0  0  0  0  0  0  0  0  0  0  0  0
   14.4814    6.8757    0.0000 H   0  0  0  0  0  0  0  0  0  0  0  0
   15.1958    4.9887    0.0000 H   0  0  0  0  0  0  0  0  0  0  0  0
   15.9364    4.9887    0.0000 H   0  0  0  0  0  0  0  0  0  0  0  0
   15.5661    6.5510    0.0000 H   0  0  0  0  0  0  0  0  0  0  0  0
   17.0775    6.7499    0.0000 H   0  0  0  0  0  0  0  0  0  0  0  0
   16.6931    7.6779    0.0000 H   0  0  0  0  0  0  0  0  0  0  0  0
   15.6972    7.5468    0.0000 H   0  0  0  0  0  0  0  0  0  0  0  0
   16.6248    4.9887    0.0000 H   0  0  0  0  0  0  0  0  0  0  0  0
   17.3653    4.9887    0.0000 H   0  0  0  0  0  0  0  0  0  0  0  0
   18.2063    6.7971    0.0000 H   0  0  0  0  0  0  0  0  0  0  0  0
   17.7095    5.3135    0.0000 H   0  0  0  0  0  0  0  0  0  0  0  0
   18.5672    4.9135    0.0000 H   0  0  0  0  0  0  0  0  0  0  0  0
   19.0560    5.1957    0.0000 H   0  0  0  0  0  0  0  0  0  0  0  0
   19.5087    6.8757    0.0000 H   0  0  0  0  0  0  0  0  0  0  0  0
   18.7682    6.8757    0.0000 H   0  0  0  0  0  0  0  0  0  0  0  0
   19.8879    4.9017    0.0000 H   0  0  0  0  0  0  0  0  0  0  0  0
   20.5760    5.3287    0.0000 H   0  0  0  0  0  0  0  0  0  0  0  0
   20.9377    6.8757    0.0000 H   0  0  0  0  0  0  0  0  0  0  0  0
   20.1971    6.8757    0.0000 H   0  0  0  0  0  0  0  0  0  0  0  0
   21.4197    4.9126    0.0000 H   0  0  0  0  0  0  0  0  0  0  0  0
   21.9116    5.1930    0.0000 H   0  0  0  0  0  0  0  0  0  0  0  0
   22.7771    5.8720    0.0000 H   0  0  0  0  0  0  0  0  0  0  0  0
   22.4404    6.8338    0.0000 H   0  0  0  0  0  0  0  0  0  0  0  0
   21.4262    6.7347    0.0000 H   0  0  0  0  0  0  0  0  0  0  0  0
  1  2  1  0  0  0  0
  2  3  1  0  0  0  0
  3  4  1  0  0  0  0
  4  5  1  0  0  0  0
  5  6  1  0  0  0  0
  6  7  1  0  0  0  0
  7  8  1  0  0  0  0
  8  9  1  0  0  0  0
  9 10  1  0  0  0  0
 10 11  1  0  0  0  0
 11 12  1  0  0  0  0
 11 13  1  0  0  0  0
 13 14  1  0  0  0  0
 14 15  1  0  0  0  0
 15 16  1  0  0  0  0
 16 17  1  0  0  0  0
 17 18  1  0  0  0  0
 18 19  1  0  0  0  0
 19 20  1  0  0  0  0
  1 21  1  0  0  0  0
  1 22  1  0  0  0  0
  1 23  1  0  0  0  0
  2 24  1  0  0  0  0
  2 25  1  0  0  0  0
  3 26  1  0  0  0  0
  3 27  1  0  0  0  0
  4 28  1  0  0  0  0
  4 29  1  0  0  0  0
  5 30  1  0  0  0  0
  5 31  1  0  0  0  0
  6 32  1  0  0  0  0
  6 33  1  0  0  0  0
  7 34  1  0  0  0  0
  7 35  1  0  0  0  0
  8 36  1  0  0  0  0
  8 37  1  0  0  0  0
  9 38  1  0  0  0  0
  9 39  1  0  0  0  0
 10 40  1  0  0  0  0
 10 41  1  0  0  0  0
 11 42  1  0  0  0  0
 12 43  1  0  0  0  0
 12 44  1  0  0  0  0
 12 45  1  0  0  0  0
 13 46  1  0  0  0  0
 13 47  1  0  0  0  0
 14 48  1  0  0  0  0
 14 49  1  0  0  0  0
 15 50  1  0  0  0  0
 15 51  1  0  0  0  0
 16 52  1  0  0  0  0
 16 53  1  0  0  0  0
 17 54  1  0  0  0  0
 17 55  1  0  0  0  0
 18 56  1  0  0  0  0
 18 57  1  0  0  0  0
 19 58  1  0  0  0  0
 19 59  1  0  0  0  0
 20 60  1  0  0  0  0
 20 61  1  0  0  0  0
 20 62  1  0  0  0  0
M  END
>  <InChIKey>
FFVPRSKCTDQLBP-UHFFFAOYSA-N

>  <UN GHS>
Non-irritant

>  <CASRN>
17438-89-0

> <Outcome>
0

>  <Index>
179

>  <StandardizerResult>
Clear Stereo (ID: ClearStereo)
Wedge Clean (ID: WedgeClean)
Mesomerize (ID: Mesomerize)
Tautomerize (ID: Tautomerize)
Add Explicit Hydrogens (ID: AddExplicitH)
Neutralize (ID: Neutralize)
Clean 2D (ID: Clean2D)

> <knn Distance>
2.64575123786926

> <CpId>
179

$$$$
196
  Mrv1532301301811342D          

 98 97  0  0  0  0            999 V2000
   -6.8385    1.0380    0.0000 C   0  0  0  0  0  0  0  0  0  0  0  0
   -6.1240    1.4505    0.0000 C   0  0  0  0  0  0  0  0  0  0  0  0
   -5.4095    1.0380    0.0000 C   0  0  0  0  0  0  0  0  0  0  0  0
   -4.6950    1.4505    0.0000 C   0  0  0  0  0  0  0  0  0  0  0  0
   -3.9806    1.0380    0.0000 C   0  0  0  0  0  0  0  0  0  0  0  0
   -3.9806    0.2130    0.0000 C   0  0  0  0  0  0  0  0  0  0  0  0
   -3.2661   -0.1995    0.0000 C   0  0  0  0  0  0  0  0  0  0  0  0
   -3.2661    1.4505    0.0000 C   0  0  0  0  0  0  0  0  0  0  0  0
   -2.5516    1.0380    0.0000 O   0  0  0  0  0  0  0  0  0  0  0  0
   -1.8372    1.4505    0.0000 C   0  0  0  0  0  0  0  0  0  0  0  0
   -1.8372    2.2755    0.0000 O   0  0  0  0  0  0  0  0  0  0  0  0
   -1.1227    1.0380    0.0000 C   0  0  0  0  0  0  0  0  0  0  0  0
   -0.4082    1.4505    0.0000 C   0  0  0  0  0  0  0  0  0  0  0  0
    0.3063    1.8630    0.0000 C   0  0  0  0  0  0  0  0  0  0  0  0
    1.0207    1.4505    0.0000 C   0  0  0  0  0  0  0  0  0  0  0  0
    1.0207    0.6255    0.0000 O   0  0  0  0  0  0  0  0  0  0  0  0
    1.7352    1.8630    0.0000 O   0  0  0  0  0  0  0  0  0  0  0  0
    2.4497    1.4505    0.0000 C   0  0  0  0  0  0  0  0  0  0  0  0
    3.1641    1.8630    0.0000 C   0  0  0  0  0  0  0  0  0  0  0  0
    3.1641    2.6880    0.0000 C   0  0  0  0  0  0  0  0  0  0  0  0
    3.8786    3.1005    0.0000 C   0  0  0  0  0  0  0  0  0  0  0  0
    3.8786    1.4505    0.0000 C   0  0  0  0  0  0  0  0  0  0  0  0
    4.5931    1.8630    0.0000 C   0  0  0  0  0  0  0  0  0  0  0  0
    5.3076    1.4505    0.0000 C   0  0  0  0  0  0  0  0  0  0  0  0
    6.0220    1.8630    0.0000 C   0  0  0  0  0  0  0  0  0  0  0  0
    0.0043    0.7360    0.0000 O   0  0  0  0  0  0  0  0  0  0  0  0
   -0.4082    0.0215    0.0000 C   0  0  0  0  0  0  0  0  0  0  0  0
    0.0043   -0.6930    0.0000 C   0  0  0  0  0  0  0  0  0  0  0  0
   -1.2332    0.0215    0.0000 O   0  0  0  0  0  0  0  0  0  0  0  0
   -0.8207    2.1649    0.0000 C   0  0  0  0  0  0  0  0  0  0  0  0
   -1.4882    2.6499    0.0000 O   0  0  0  0  0  0  0  0  0  0  0  0
   -0.4082    2.8794    0.0000 O   0  0  0  0  0  0  0  0  0  0  0  0
   -0.8207    3.5939    0.0000 C   0  0  0  0  0  0  0  0  0  0  0  0
   -0.4082    4.3083    0.0000 C   0  0  0  0  0  0  0  0  0  0  0  0
   -0.8207    5.0228    0.0000 C   0  0  0  0  0  0  0  0  0  0  0  0
   -1.6457    5.0228    0.0000 C   0  0  0  0  0  0  0  0  0  0  0  0
    0.4168    4.3083    0.0000 C   0  0  0  0  0  0  0  0  0  0  0  0
    0.8293    3.5939    0.0000 C   0  0  0  0  0  0  0  0  0  0  0  0
    1.6543    3.5939    0.0000 C   0  0  0  0  0  0  0  0  0  0  0  0
    2.0668    2.8794    0.0000 C   0  0  0  0  0  0  0  0  0  0  0  0
   -7.2510    1.7524    0.0000 H   0  0  0  0  0  0  0  0  0  0  0  0
   -7.5529    0.6255    0.0000 H   0  0  0  0  0  0  0  0  0  0  0  0
   -6.4260    0.3235    0.0000 H   0  0  0  0  0  0  0  0  0  0  0  0
   -5.7537    2.1877    0.0000 H   0  0  0  0  0  0  0  0  0  0  0  0
   -6.4942    2.1877    0.0000 H   0  0  0  0  0  0  0  0  0  0  0  0
   -5.7798    0.3007    0.0000 H   0  0  0  0  0  0  0  0  0  0  0  0
   -5.0392    0.3007    0.0000 H   0  0  0  0  0  0  0  0  0  0  0  0
   -4.3248    2.1877    0.0000 H   0  0  0  0  0  0  0  0  0  0  0  0
   -5.0653    2.1877    0.0000 H   0  0  0  0  0  0  0  0  0  0  0  0
   -4.6950    0.6255    0.0000 H   0  0  0  0  0  0  0  0  0  0  0  0
   -4.6126   -0.3173    0.0000 H   0  0  0  0  0  0  0  0  0  0  0  0
   -4.1238   -0.5995    0.0000 H   0  0  0  0  0  0  0  0  0  0  0  0
   -3.1051   -1.0087    0.0000 H   0  0  0  0  0  0  0  0  0  0  0  0
   -2.4419   -0.2355    0.0000 H   0  0  0  0  0  0  0  0  0  0  0  0
   -3.0352    0.5925    0.0000 H   0  0  0  0  0  0  0  0  0  0  0  0
   -2.8958    2.1877    0.0000 H   0  0  0  0  0  0  0  0  0  0  0  0
   -3.6364    2.1877    0.0000 H   0  0  0  0  0  0  0  0  0  0  0  0
   -1.4929    0.3007    0.0000 H   0  0  0  0  0  0  0  0  0  0  0  0
   -0.7524    0.3007    0.0000 H   0  0  0  0  0  0  0  0  0  0  0  0
    0.6765    2.6002    0.0000 H   0  0  0  0  0  0  0  0  0  0  0  0
   -0.0640    2.6002    0.0000 H   0  0  0  0  0  0  0  0  0  0  0  0
    2.0794    0.7132    0.0000 H   0  0  0  0  0  0  0  0  0  0  0  0
    2.8199    0.7132    0.0000 H   0  0  0  0  0  0  0  0  0  0  0  0
    2.4497    2.2755    0.0000 H   0  0  0  0  0  0  0  0  0  0  0  0
    3.0209    3.5004    0.0000 H   0  0  0  0  0  0  0  0  0  0  0  0
    2.5322    3.2183    0.0000 H   0  0  0  0  0  0  0  0  0  0  0  0
    4.1095    2.3084    0.0000 H   0  0  0  0  0  0  0  0  0  0  0  0
    4.7028    3.1364    0.0000 H   0  0  0  0  0  0  0  0  0  0  0  0
    4.0396    3.9096    0.0000 H   0  0  0  0  0  0  0  0  0  0  0  0
    3.5084    0.7132    0.0000 H   0  0  0  0  0  0  0  0  0  0  0  0
    4.2489    0.7132    0.0000 H   0  0  0  0  0  0  0  0  0  0  0  0
    5.0818    2.5276    0.0000 H   0  0  0  0  0  0  0  0  0  0  0  0
    4.5931    1.0380    0.0000 H   0  0  0  0  0  0  0  0  0  0  0  0
    5.4508    0.6380    0.0000 H   0  0  0  0  0  0  0  0  0  0  0  0
    5.9395    0.9202    0.0000 H   0  0  0  0  0  0  0  0  0  0  0  0
    6.8032    1.5978    0.0000 H   0  0  0  0  0  0  0  0  0  0  0  0
    6.4653    2.5588    0.0000 H   0  0  0  0  0  0  0  0  0  0  0  0
    5.4515    2.4589    0.0000 H   0  0  0  0  0  0  0  0  0  0  0  0
   -0.7102   -1.1055    0.0000 H   0  0  0  0  0  0  0  0  0  0  0  0
    0.4168   -1.4074    0.0000 H   0  0  0  0  0  0  0  0  0  0  0  0
    0.7188   -0.2805    0.0000 H   0  0  0  0  0  0  0  0  0  0  0  0
   -1.5580    3.9641    0.0000 H   0  0  0  0  0  0  0  0  0  0  0  0
   -1.5580    3.2236    0.0000 H   0  0  0  0  0  0  0  0  0  0  0  0
   -1.2332    4.3083    0.0000 H   0  0  0  0  0  0  0  0  0  0  0  0
   -0.1314    5.4762    0.0000 H   0  0  0  0  0  0  0  0  0  0  0  0
   -0.7727    5.8464    0.0000 H   0  0  0  0  0  0  0  0  0  0  0  0
   -1.4322    5.8197    0.0000 H   0  0  0  0  0  0  0  0  0  0  0  0
   -2.3602    5.4353    0.0000 H   0  0  0  0  0  0  0  0  0  0  0  0
   -2.2291    4.4394    0.0000 H   0  0  0  0  0  0  0  0  0  0  0  0
    1.1061    4.7617    0.0000 H   0  0  0  0  0  0  0  0  0  0  0  0
    0.4648    5.1319    0.0000 H   0  0  0  0  0  0  0  0  0  0  0  0
    0.1400    3.1405    0.0000 H   0  0  0  0  0  0  0  0  0  0  0  0
    0.7813    2.7703    0.0000 H   0  0  0  0  0  0  0  0  0  0  0  0
    2.1175    4.2766    0.0000 H   0  0  0  0  0  0  0  0  0  0  0  0
    1.4970    4.4037    0.0000 H   0  0  0  0  0  0  0  0  0  0  0  0
    1.2567    2.7231    0.0000 H   0  0  0  0  0  0  0  0  0  0  0  0
    1.5527    2.2342    0.0000 H   0  0  0  0  0  0  0  0  0  0  0  0
    2.8772    2.7250    0.0000 H   0  0  0  0  0  0  0  0  0  0  0  0
  1  2  1  0  0  0  0
  2  3  1  0  0  0  0
  3  4  1  0  0  0  0
  4  5  1  0  0  0  0
  5  6  1  0  0  0  0
  6  7  1  0  0  0  0
  5  8  1  0  0  0  0
  8  9  1  0  0  0  0
  9 10  1  0  0  0  0
 10 11  2  0  0  0  0
 10 12  1  0  0  0  0
 12 13  1  0  0  0  0
 13 14  1  0  0  0  0
 14 15  1  0  0  0  0
 15 16  2  0  0  0  0
 15 17  1  0  0  0  0
 17 18  1  0  0  0  0
 18 19  1  0  0  0  0
 19 20  1  0  0  0  0
 20 21  1  0  0  0  0
 19 22  1  0  0  0  0
 22 23  1  0  0  0  0
 23 24  1  0  0  0  0
 24 25  1  0  0  0  0
 13 26  1  0  0  0  0
 26 27  1  0  0  0  0
 27 28  1  0  0  0  0
 27 29  2  0  0  0  0
 13 30  1  0  0  0  0
 30 31  2  0  0  0  0
 30 32  1  0  0  0  0
 32 33  1  0  0  0  0
 33 34  1  0  0  0  0
 34 35  1  0  0  0  0
 35 36  1  0  0  0  0
 34 37  1  0  0  0  0
 37 38  1  0  0  0  0
 38 39  1  0  0  0  0
 39 40  1  0  0  0  0
  1 41  1  0  0  0  0
  1 42  1  0  0  0  0
  1 43  1  0  0  0  0
  2 44  1  0  0  0  0
  2 45  1  0  0  0  0
  3 46  1  0  0  0  0
  3 47  1  0  0  0  0
  4 48  1  0  0  0  0
  4 49  1  0  0  0  0
  5 50  1  0  0  0  0
  6 51  1  0  0  0  0
  6 52  1  0  0  0  0
  7 53  1  0  0  0  0
  7 54  1  0  0  0  0
  7 55  1  0  0  0  0
  8 56  1  0  0  0  0
  8 57  1  0  0  0  0
 12 58  1  0  0  0  0
 12 59  1  0  0  0  0
 14 60  1  0  0  0  0
 14 61  1  0  0  0  0
 18 62  1  0  0  0  0
 18 63  1  0  0  0  0
 19 64  1  0  0  0  0
 20 65  1  0  0  0  0
 20 66  1  0  0  0  0
 21 67  1  0  0  0  0
 21 68  1  0  0  0  0
 21 69  1  0  0  0  0
 22 70  1  0  0  0  0
 22 71  1  0  0  0  0
 23 72  1  0  0  0  0
 23 73  1  0  0  0  0
 24 74  1  0  0  0  0
 24 75  1  0  0  0  0
 25 76  1  0  0  0  0
 25 77  1  0  0  0  0
 25 78  1  0  0  0  0
 28 79  1  0  0  0  0
 28 80  1  0  0  0  0
 28 81  1  0  0  0  0
 33 82  1  0  0  0  0
 33 83  1  0  0  0  0
 34 84  1  0  0  0  0
 35 85  1  0  0  0  0
 35 86  1  0  0  0  0
 36 87  1  0  0  0  0
 36 88  1  0  0  0  0
 36 89  1  0  0  0  0
 37 90  1  0  0  0  0
 37 91  1  0  0  0  0
 38 92  1  0  0  0  0
 38 93  1  0  0  0  0
 39 94  1  0  0  0  0
 39 95  1  0  0  0  0
 40 96  1  0  0  0  0
 40 97  1  0  0  0  0
 40 98  1  0  0  0  0
M  END
>  <InChIKey>
FRDNONBEXWDRDM-UHFFFAOYSA-N

>  <UN GHS>
Non-irritant

>  <CASRN>
144-15-0

> <Outcome>
0

>  <Index>
196

>  <StandardizerResult>
Clear Stereo (ID: ClearStereo)
Wedge Clean (ID: WedgeClean)
Mesomerize (ID: Mesomerize)
Tautomerize (ID: Tautomerize)
Add Explicit Hydrogens (ID: AddExplicitH)
Neutralize (ID: Neutralize)
Clean 2D (ID: Clean2D)

> <knn Distance>
2.64575123786926

> <CpId>
196

$$$$
198
  Mrv1532301301811342D          

 70 69  0  0  0  0            999 V2000
    9.6673    6.4405    0.0000 C   0  0  0  0  0  0  0  0  0  0  0  0
   10.3818    6.8530    0.0000 C   0  0  0  0  0  0  0  0  0  0  0  0
   11.0963    6.4405    0.0000 C   0  0  0  0  0  0  0  0  0  0  0  0
   11.8107    6.8530    0.0000 C   0  0  0  0  0  0  0  0  0  0  0  0
   12.5252    6.4405    0.0000 C   0  0  0  0  0  0  0  0  0  0  0  0
   12.5252    5.6155    0.0000 C   0  0  0  0  0  0  0  0  0  0  0  0
   13.2397    5.2030    0.0000 C   0  0  0  0  0  0  0  0  0  0  0  0
   13.2397    6.8530    0.0000 C   0  0  0  0  0  0  0  0  0  0  0  0
   13.2397    7.6780    0.0000 O   0  0  0  0  0  0  0  0  0  0  0  0
   13.9542    6.4405    0.0000 O   0  0  0  0  0  0  0  0  0  0  0  0
   14.6686    6.8530    0.0000 C   0  0  0  0  0  0  0  0  0  0  0  0
   15.3831    6.4405    0.0000 C   0  0  0  0  0  0  0  0  0  0  0  0
   16.0976    6.8530    0.0000 O   0  0  0  0  0  0  0  0  0  0  0  0
   16.8120    6.4405    0.0000 C   0  0  0  0  0  0  0  0  0  0  0  0
   17.5265    6.8530    0.0000 C   0  0  0  0  0  0  0  0  0  0  0  0
   18.2410    6.4405    0.0000 O   0  0  0  0  0  0  0  0  0  0  0  0
   18.9554    6.8530    0.0000 C   0  0  0  0  0  0  0  0  0  0  0  0
   19.6699    6.4405    0.0000 C   0  0  0  0  0  0  0  0  0  0  0  0
   20.3844    6.8530    0.0000 O   0  0  0  0  0  0  0  0  0  0  0  0
   21.0989    6.4405    0.0000 C   0  0  0  0  0  0  0  0  0  0  0  0
   21.0989    5.6155    0.0000 O   0  0  0  0  0  0  0  0  0  0  0  0
   21.8133    6.8530    0.0000 C   0  0  0  0  0  0  0  0  0  0  0  0
   21.8133    7.6780    0.0000 C   0  0  0  0  0  0  0  0  0  0  0  0
   22.5278    8.0905    0.0000 C   0  0  0  0  0  0  0  0  0  0  0  0
   22.5278    6.4405    0.0000 C   0  0  0  0  0  0  0  0  0  0  0  0
   23.2423    6.8530    0.0000 C   0  0  0  0  0  0  0  0  0  0  0  0
   23.9567    6.4405    0.0000 C   0  0  0  0  0  0  0  0  0  0  0  0
   24.6712    6.8530    0.0000 C   0  0  0  0  0  0  0  0  0  0  0  0
    9.2548    7.1550    0.0000 H   0  0  0  0  0  0  0  0  0  0  0  0
    8.9529    6.0280    0.0000 H   0  0  0  0  0  0  0  0  0  0  0  0
   10.0798    5.7260    0.0000 H   0  0  0  0  0  0  0  0  0  0  0  0
   10.7521    7.5902    0.0000 H   0  0  0  0  0  0  0  0  0  0  0  0
   10.0115    7.5902    0.0000 H   0  0  0  0  0  0  0  0  0  0  0  0
   10.7260    5.7032    0.0000 H   0  0  0  0  0  0  0  0  0  0  0  0
   11.4665    5.7032    0.0000 H   0  0  0  0  0  0  0  0  0  0  0  0
   12.1810    7.5902    0.0000 H   0  0  0  0  0  0  0  0  0  0  0  0
   11.4405    7.5902    0.0000 H   0  0  0  0  0  0  0  0  0  0  0  0
   11.8107    6.0280    0.0000 H   0  0  0  0  0  0  0  0  0  0  0  0
   11.8932    5.0852    0.0000 H   0  0  0  0  0  0  0  0  0  0  0  0
   12.3820    4.8030    0.0000 H   0  0  0  0  0  0  0  0  0  0  0  0
   13.4006    4.3938    0.0000 H   0  0  0  0  0  0  0  0  0  0  0  0
   14.0639    5.1670    0.0000 H   0  0  0  0  0  0  0  0  0  0  0  0
   13.4705    5.9950    0.0000 H   0  0  0  0  0  0  0  0  0  0  0  0
   15.0389    7.5902    0.0000 H   0  0  0  0  0  0  0  0  0  0  0  0
   14.2984    7.5902    0.0000 H   0  0  0  0  0  0  0  0  0  0  0  0
   15.0128    5.7032    0.0000 H   0  0  0  0  0  0  0  0  0  0  0  0
   15.7534    5.7032    0.0000 H   0  0  0  0  0  0  0  0  0  0  0  0
   16.4418    5.7032    0.0000 H   0  0  0  0  0  0  0  0  0  0  0  0
   17.1823    5.7032    0.0000 H   0  0  0  0  0  0  0  0  0  0  0  0
   17.8968    7.5902    0.0000 H   0  0  0  0  0  0  0  0  0  0  0  0
   17.1562    7.5902    0.0000 H   0  0  0  0  0  0  0  0  0  0  0  0
   19.3257    7.5902    0.0000 H   0  0  0  0  0  0  0  0  0  0  0  0
   18.5852    7.5902    0.0000 H   0  0  0  0  0  0  0  0  0  0  0  0
   19.2997    5.7032    0.0000 H   0  0  0  0  0  0  0  0  0  0  0  0
   20.0402    5.7032    0.0000 H   0  0  0  0  0  0  0  0  0  0  0  0
   21.0989    7.2655    0.0000 H   0  0  0  0  0  0  0  0  0  0  0  0
   21.6701    8.4904    0.0000 H   0  0  0  0  0  0  0  0  0  0  0  0
   21.1813    8.2083    0.0000 H   0  0  0  0  0  0  0  0  0  0  0  0
   22.7587    7.2984    0.0000 H   0  0  0  0  0  0  0  0  0  0  0  0
   23.3520    8.1265    0.0000 H   0  0  0  0  0  0  0  0  0  0  0  0
   22.6888    8.8996    0.0000 H   0  0  0  0  0  0  0  0  0  0  0  0
   22.1575    5.7032    0.0000 H   0  0  0  0  0  0  0  0  0  0  0  0
   22.8981    5.7032    0.0000 H   0  0  0  0  0  0  0  0  0  0  0  0
   23.7310    7.5177    0.0000 H   0  0  0  0  0  0  0  0  0  0  0  0
   23.2423    6.0280    0.0000 H   0  0  0  0  0  0  0  0  0  0  0  0
   24.1000    5.6280    0.0000 H   0  0  0  0  0  0  0  0  0  0  0  0
   24.5887    5.9102    0.0000 H   0  0  0  0  0  0  0  0  0  0  0  0
   25.4524    6.5878    0.0000 H   0  0  0  0  0  0  0  0  0  0  0  0
   25.1145    7.5488    0.0000 H   0  0  0  0  0  0  0  0  0  0  0  0
   24.1007    7.4489    0.0000 H   0  0  0  0  0  0  0  0  0  0  0  0
  1  2  1  0  0  0  0
  2  3  1  0  0  0  0
  3  4  1  0  0  0  0
  4  5  1  0  0  0  0
  5  6  1  0  0  0  0
  6  7  1  0  0  0  0
  5  8  1  0  0  0  0
  8  9  2  0  0  0  0
  8 10  1  0  0  0  0
 10 11  1  0  0  0  0
 11 12  1  0  0  0  0
 12 13  1  0  0  0  0
 13 14  1  0  0  0  0
 14 15  1  0  0  0  0
 15 16  1  0  0  0  0
 16 17  1  0  0  0  0
 17 18  1  0  0  0  0
 18 19  1  0  0  0  0
 19 20  1  0  0  0  0
 20 21  2  0  0  0  0
 20 22  1  0  0  0  0
 22 23  1  0  0  0  0
 23 24  1  0  0  0  0
 22 25  1  0  0  0  0
 25 26  1  0  0  0  0
 26 27  1  0  0  0  0
 27 28  1  0  0  0  0
  1 29  1  0  0  0  0
  1 30  1  0  0  0  0
  1 31  1  0  0  0  0
  2 32  1  0  0  0  0
  2 33  1  0  0  0  0
  3 34  1  0  0  0  0
  3 35  1  0  0  0  0
  4 36  1  0  0  0  0
  4 37  1  0  0  0  0
  5 38  1  0  0  0  0
  6 39  1  0  0  0  0
  6 40  1  0  0  0  0
  7 41  1  0  0  0  0
  7 42  1  0  0  0  0
  7 43  1  0  0  0  0
 11 44  1  0  0  0  0
 11 45  1  0  0  0  0
 12 46  1  0  0  0  0
 12 47  1  0  0  0  0
 14 48  1  0  0  0  0
 14 49  1  0  0  0  0
 15 50  1  0  0  0  0
 15 51  1  0  0  0  0
 17 52  1  0  0  0  0
 17 53  1  0  0  0  0
 18 54  1  0  0  0  0
 18 55  1  0  0  0  0
 22 56  1  0  0  0  0
 23 57  1  0  0  0  0
 23 58  1  0  0  0  0
 24 59  1  0  0  0  0
 24 60  1  0  0  0  0
 24 61  1  0  0  0  0
 25 62  1  0  0  0  0
 25 63  1  0  0  0  0
 26 64  1  0  0  0  0
 26 65  1  0  0  0  0
 27 66  1  0  0  0  0
 27 67  1  0  0  0  0
 28 68  1  0  0  0  0
 28 69  1  0  0  0  0
 28 70  1  0  0  0  0
M  END
>  <InChIKey>
FRQDZJMEHSJOPU-UHFFFAOYSA-N

>  <UN GHS>
Non-irritant

>  <CASRN>
94-28-0

> <Outcome>
0

>  <Index>
198

>  <StandardizerResult>
Clear Stereo (ID: ClearStereo)
Wedge Clean (ID: WedgeClean)
Mesomerize (ID: Mesomerize)
Tautomerize (ID: Tautomerize)
Add Explicit Hydrogens (ID: AddExplicitH)
Neutralize (ID: Neutralize)
Clean 2D (ID: Clean2D)

> <knn Distance>
2.64575123786926

> <CpId>
198

$$$$
220
  Mrv1532301301811342D          

 93 92  0  0  0  0            999 V2000
   17.8480   11.1300    0.0000 C   0  0  0  0  0  0  0  0  0  0  0  0
   18.5625   10.7175    0.0000 C   0  0  0  0  0  0  0  0  0  0  0  0
   19.2770   11.1300    0.0000 C   0  0  0  0  0  0  0  0  0  0  0  0
   19.9914   10.7175    0.0000 C   0  0  0  0  0  0  0  0  0  0  0  0
   20.7059   11.1300    0.0000 C   0  0  0  0  0  0  0  0  0  0  0  0
   21.4204   10.7175    0.0000 C   0  0  0  0  0  0  0  0  0  0  0  0
   22.1349   11.1300    0.0000 C   0  0  0  0  0  0  0  0  0  0  0  0
   22.8493   10.7175    0.0000 C   0  0  0  0  0  0  0  0  0  0  0  0
   23.5638   11.1300    0.0000 C   0  0  0  0  0  0  0  0  0  0  0  0
   24.2783   10.7175    0.0000 C   0  0  0  0  0  0  0  0  0  0  0  0
   24.9927   11.1300    0.0000 C   0  0  0  0  0  0  0  0  0  0  0  0
   25.7072   10.7175    0.0000 C   0  0  0  0  0  0  0  0  0  0  0  0
   26.4217   11.1300    0.0000 O   0  0  0  0  0  0  0  0  0  0  0  0
   27.1361   10.7175    0.0000 C   0  0  0  0  0  0  0  0  0  0  0  0
   27.1361    9.8925    0.0000 O   0  0  0  0  0  0  0  0  0  0  0  0
   27.8506   11.1300    0.0000 C   0  0  0  0  0  0  0  0  0  0  0  0
   28.5651   10.7175    0.0000 C   0  0  0  0  0  0  0  0  0  0  0  0
   29.2796   11.1300    0.0000 S   0  0  0  0  0  0  0  0  0  0  0  0
   29.9940   10.7175    0.0000 C   0  0  0  0  0  0  0  0  0  0  0  0
   30.7085   11.1300    0.0000 C   0  0  0  0  0  0  0  0  0  0  0  0
   31.4230   10.7175    0.0000 C   0  0  0  0  0  0  0  0  0  0  0  0
   31.4230    9.8925    0.0000 O   0  0  0  0  0  0  0  0  0  0  0  0
   32.1374   11.1300    0.0000 O   0  0  0  0  0  0  0  0  0  0  0  0
   32.8519   10.7175    0.0000 C   0  0  0  0  0  0  0  0  0  0  0  0
   33.5664   11.1300    0.0000 C   0  0  0  0  0  0  0  0  0  0  0  0
   34.2809   10.7175    0.0000 C   0  0  0  0  0  0  0  0  0  0  0  0
   34.9953   11.1300    0.0000 C   0  0  0  0  0  0  0  0  0  0  0  0
   35.7098   10.7175    0.0000 C   0  0  0  0  0  0  0  0  0  0  0  0
   36.4243   11.1300    0.0000 C   0  0  0  0  0  0  0  0  0  0  0  0
   37.1387   10.7175    0.0000 C   0  0  0  0  0  0  0  0  0  0  0  0
   37.8532   11.1300    0.0000 C   0  0  0  0  0  0  0  0  0  0  0  0
   38.5677   10.7175    0.0000 C   0  0  0  0  0  0  0  0  0  0  0  0
   39.2822   11.1300    0.0000 C   0  0  0  0  0  0  0  0  0  0  0  0
   39.9966   10.7175    0.0000 C   0  0  0  0  0  0  0  0  0  0  0  0
   40.7111   11.1300    0.0000 C   0  0  0  0  0  0  0  0  0  0  0  0
   18.2605   11.8444    0.0000 H   0  0  0  0  0  0  0  0  0  0  0  0
   17.1336   11.5425    0.0000 H   0  0  0  0  0  0  0  0  0  0  0  0
   17.4355   10.4155    0.0000 H   0  0  0  0  0  0  0  0  0  0  0  0
   18.1922    9.9802    0.0000 H   0  0  0  0  0  0  0  0  0  0  0  0
   18.9328    9.9802    0.0000 H   0  0  0  0  0  0  0  0  0  0  0  0
   19.6472   11.8672    0.0000 H   0  0  0  0  0  0  0  0  0  0  0  0
   18.9067   11.8672    0.0000 H   0  0  0  0  0  0  0  0  0  0  0  0
   19.6212    9.9802    0.0000 H   0  0  0  0  0  0  0  0  0  0  0  0
   20.3617    9.9802    0.0000 H   0  0  0  0  0  0  0  0  0  0  0  0
   21.0762   11.8672    0.0000 H   0  0  0  0  0  0  0  0  0  0  0  0
   20.3357   11.8672    0.0000 H   0  0  0  0  0  0  0  0  0  0  0  0
   21.0501    9.9802    0.0000 H   0  0  0  0  0  0  0  0  0  0  0  0
   21.7906    9.9802    0.0000 H   0  0  0  0  0  0  0  0  0  0  0  0
   22.5051   11.8672    0.0000 H   0  0  0  0  0  0  0  0  0  0  0  0
   21.7646   11.8672    0.0000 H   0  0  0  0  0  0  0  0  0  0  0  0
   22.4791    9.9802    0.0000 H   0  0  0  0  0  0  0  0  0  0  0  0
   23.2196    9.9802    0.0000 H   0  0  0  0  0  0  0  0  0  0  0  0
   23.9341   11.8672    0.0000 H   0  0  0  0  0  0  0  0  0  0  0  0
   23.1935   11.8672    0.0000 H   0  0  0  0  0  0  0  0  0  0  0  0
   23.9080    9.9802    0.0000 H   0  0  0  0  0  0  0  0  0  0  0  0
   24.6485    9.9802    0.0000 H   0  0  0  0  0  0  0  0  0  0  0  0
   25.3630   11.8672    0.0000 H   0  0  0  0  0  0  0  0  0  0  0  0
   24.6225   11.8672    0.0000 H   0  0  0  0  0  0  0  0  0  0  0  0
   25.3369    9.9802    0.0000 H   0  0  0  0  0  0  0  0  0  0  0  0
   26.0775    9.9802    0.0000 H   0  0  0  0  0  0  0  0  0  0  0  0
   28.2209   11.8672    0.0000 H   0  0  0  0  0  0  0  0  0  0  0  0
   27.4804   11.8672    0.0000 H   0  0  0  0  0  0  0  0  0  0  0  0
   28.1948    9.9802    0.0000 H   0  0  0  0  0  0  0  0  0  0  0  0
   28.9353    9.9802    0.0000 H   0  0  0  0  0  0  0  0  0  0  0  0
   29.6238    9.9802    0.0000 H   0  0  0  0  0  0  0  0  0  0  0  0
   30.3643    9.9802    0.0000 H   0  0  0  0  0  0  0  0  0  0  0  0
   31.0788   11.8672    0.0000 H   0  0  0  0  0  0  0  0  0  0  0  0
   30.3382   11.8672    0.0000 H   0  0  0  0  0  0  0  0  0  0  0  0
   32.4817    9.9802    0.0000 H   0  0  0  0  0  0  0  0  0  0  0  0
   33.2222    9.9802    0.0000 H   0  0  0  0  0  0  0  0  0  0  0  0
   33.9366   11.8672    0.0000 H   0  0  0  0  0  0  0  0  0  0  0  0
   33.1961   11.8672    0.0000 H   0  0  0  0  0  0  0  0  0  0  0  0
   33.9106    9.9802    0.0000 H   0  0  0  0  0  0  0  0  0  0  0  0
   34.6511    9.9802    0.0000 H   0  0  0  0  0  0  0  0  0  0  0  0
   35.3656   11.8672    0.0000 H   0  0  0  0  0  0  0  0  0  0  0  0
   34.6251   11.8672    0.0000 H   0  0  0  0  0  0  0  0  0  0  0  0
   35.3395    9.9802    0.0000 H   0  0  0  0  0  0  0  0  0  0  0  0
   36.0801    9.9802    0.0000 H   0  0  0  0  0  0  0  0  0  0  0  0
   36.7945   11.8672    0.0000 H   0  0  0  0  0  0  0  0  0  0  0  0
   36.0540   11.8672    0.0000 H   0  0  0  0  0  0  0  0  0  0  0  0
   36.7685    9.9802    0.0000 H   0  0  0  0  0  0  0  0  0  0  0  0
   37.5090    9.9802    0.0000 H   0  0  0  0  0  0  0  0  0  0  0  0
   38.2235   11.8672    0.0000 H   0  0  0  0  0  0  0  0  0  0  0  0
   37.4830   11.8672    0.0000 H   0  0  0  0  0  0  0  0  0  0  0  0
   38.1974    9.9802    0.0000 H   0  0  0  0  0  0  0  0  0  0  0  0
   38.9379    9.9802    0.0000 H   0  0  0  0  0  0  0  0  0  0  0  0
   39.6524   11.8672    0.0000 H   0  0  0  0  0  0  0  0  0  0  0  0
   38.9119   11.8672    0.0000 H   0  0  0  0  0  0  0  0  0  0  0  0
   39.6264    9.9802    0.0000 H   0  0  0  0  0  0  0  0  0  0  0  0
   40.3669    9.9802    0.0000 H   0  0  0  0  0  0  0  0  0  0  0  0
   41.1236   10.4155    0.0000 H   0  0  0  0  0  0  0  0  0  0  0  0
   41.4256   11.5425    0.0000 H   0  0  0  0  0  0  0  0  0  0  0  0
   40.2986   11.8444    0.0000 H   0  0  0  0  0  0  0  0  0  0  0  0
  1  2  1  0  0  0  0
  2  3  1  0  0  0  0
  3  4  1  0  0  0  0
  4  5  1  0  0  0  0
  5  6  1  0  0  0  0
  6  7  1  0  0  0  0
  7  8  1  0  0  0  0
  8  9  1  0  0  0  0
  9 10  1  0  0  0  0
 10 11  1  0  0  0  0
 11 12  1  0  0  0  0
 12 13  1  0  0  0  0
 13 14  1  0  0  0  0
 14 15  2  0  0  0  0
 14 16  1  0  0  0  0
 16 17  1  0  0  0  0
 17 18  1  0  0  0  0
 18 19  1  0  0  0  0
 19 20  1  0  0  0  0
 20 21  1  0  0  0  0
 21 22  2  0  0  0  0
 21 23  1  0  0  0  0
 23 24  1  0  0  0  0
 24 25  1  0  0  0  0
 25 26  1  0  0  0  0
 26 27  1  0  0  0  0
 27 28  1  0  0  0  0
 28 29  1  0  0  0  0
 29 30  1  0  0  0  0
 30 31  1  0  0  0  0
 31 32  1  0  0  0  0
 32 33  1  0  0  0  0
 33 34  1  0  0  0  0
 34 35  1  0  0  0  0
  1 36  1  0  0  0  0
  1 37  1  0  0  0  0
  1 38  1  0  0  0  0
  2 39  1  0  0  0  0
  2 40  1  0  0  0  0
  3 41  1  0  0  0  0
  3 42  1  0  0  0  0
  4 43  1  0  0  0  0
  4 44  1  0  0  0  0
  5 45  1  0  0  0  0
  5 46  1  0  0  0  0
  6 47  1  0  0  0  0
  6 48  1  0  0  0  0
  7 49  1  0  0  0  0
  7 50  1  0  0  0  0
  8 51  1  0  0  0  0
  8 52  1  0  0  0  0
  9 53  1  0  0  0  0
  9 54  1  0  0  0  0
 10 55  1  0  0  0  0
 10 56  1  0  0  0  0
 11 57  1  0  0  0  0
 11 58  1  0  0  0  0
 12 59  1  0  0  0  0
 12 60  1  0  0  0  0
 16 61  1  0  0  0  0
 16 62  1  0  0  0  0
 17 63  1  0  0  0  0
 17 64  1  0  0  0  0
 19 65  1  0  0  0  0
 19 66  1  0  0  0  0
 20 67  1  0  0  0  0
 20 68  1  0  0  0  0
 24 69  1  0  0  0  0
 24 70  1  0  0  0  0
 25 71  1  0  0  0  0
 25 72  1  0  0  0  0
 26 73  1  0  0  0  0
 26 74  1  0  0  0  0
 27 75  1  0  0  0  0
 27 76  1  0  0  0  0
 28 77  1  0  0  0  0
 28 78  1  0  0  0  0
 29 79  1  0  0  0  0
 29 80  1  0  0  0  0
 30 81  1  0  0  0  0
 30 82  1  0  0  0  0
 31 83  1  0  0  0  0
 31 84  1  0  0  0  0
 32 85  1  0  0  0  0
 32 86  1  0  0  0  0
 33 87  1  0  0  0  0
 33 88  1  0  0  0  0
 34 89  1  0  0  0  0
 34 90  1  0  0  0  0
 35 91  1  0  0  0  0
 35 92  1  0  0  0  0
 35 93  1  0  0  0  0
M  END
>  <InChIKey>
GHKOFFNLGXMVNJ-UHFFFAOYSA-N

>  <UN GHS>
Non-irritant

>  <CASRN>
123-28-4

> <Outcome>
0

>  <Index>
220

>  <StandardizerResult>
Clear Stereo (ID: ClearStereo)
Wedge Clean (ID: WedgeClean)
Mesomerize (ID: Mesomerize)
Tautomerize (ID: Tautomerize)
Add Explicit Hydrogens (ID: AddExplicitH)
Neutralize (ID: Neutralize)
Clean 2D (ID: Clean2D)

> <knn Distance>
2.64575123786926

> <CpId>
220

$$$$
222
  Mrv1532301301811342D          

 32 31  0  0  0  0            999 V2000
    4.2355    3.2704    0.0000 C   0  0  0  0  0  0  0  0  0  0  0  0
    4.9500    2.8579    0.0000 C   0  0  0  0  0  0  0  0  0  0  0  0
    5.6645    3.2704    0.0000 C   0  0  0  0  0  0  0  0  0  0  0  0
    6.3789    2.8579    0.0000 C   0  0  0  0  0  0  0  0  0  0  0  0
    7.0934    3.2704    0.0000 C   0  0  0  0  0  0  0  0  0  0  0  0
    7.8079    2.8579    0.0000 C   0  0  0  0  0  0  0  0  0  0  0  0
    8.5224    3.2704    0.0000 C   0  0  0  0  0  0  0  0  0  0  0  0
    9.2368    2.8579    0.0000 C   0  0  0  0  0  0  0  0  0  0  0  0
    9.9513    3.2704    0.0000 C   0  0  0  0  0  0  0  0  0  0  0  0
   10.6658    2.8579    0.0000 C   0  0  0  0  0  0  0  0  0  0  0  0
   11.3802    3.2704    0.0000 O   0  0  0  0  0  0  0  0  0  0  0  0
   10.6658    2.0329    0.0000 O   0  0  0  0  0  0  0  0  0  0  0  0
    4.6480    3.9849    0.0000 H   0  0  0  0  0  0  0  0  0  0  0  0
    3.5211    3.6829    0.0000 H   0  0  0  0  0  0  0  0  0  0  0  0
    3.8230    2.5559    0.0000 H   0  0  0  0  0  0  0  0  0  0  0  0
    4.5797    2.1207    0.0000 H   0  0  0  0  0  0  0  0  0  0  0  0
    5.3203    2.1207    0.0000 H   0  0  0  0  0  0  0  0  0  0  0  0
    6.0347    4.0076    0.0000 H   0  0  0  0  0  0  0  0  0  0  0  0
    5.2942    4.0076    0.0000 H   0  0  0  0  0  0  0  0  0  0  0  0
    6.0087    2.1207    0.0000 H   0  0  0  0  0  0  0  0  0  0  0  0
    6.7492    2.1207    0.0000 H   0  0  0  0  0  0  0  0  0  0  0  0
    7.4637    4.0076    0.0000 H   0  0  0  0  0  0  0  0  0  0  0  0
    6.7232    4.0076    0.0000 H   0  0  0  0  0  0  0  0  0  0  0  0
    7.4376    2.1207    0.0000 H   0  0  0  0  0  0  0  0  0  0  0  0
    8.1781    2.1207    0.0000 H   0  0  0  0  0  0  0  0  0  0  0  0
    8.8926    4.0076    0.0000 H   0  0  0  0  0  0  0  0  0  0  0  0
    8.1521    4.0076    0.0000 H   0  0  0  0  0  0  0  0  0  0  0  0
    8.8666    2.1207    0.0000 H   0  0  0  0  0  0  0  0  0  0  0  0
    9.6071    2.1207    0.0000 H   0  0  0  0  0  0  0  0  0  0  0  0
   10.3216    4.0076    0.0000 H   0  0  0  0  0  0  0  0  0  0  0  0
    9.5810    4.0076    0.0000 H   0  0  0  0  0  0  0  0  0  0  0  0
   12.0947    2.8579    0.0000 H   0  0  0  0  0  0  0  0  0  0  0  0
  1  2  1  0  0  0  0
  2  3  1  0  0  0  0
  3  4  1  0  0  0  0
  4  5  1  0  0  0  0
  5  6  1  0  0  0  0
  6  7  1  0  0  0  0
  7  8  1  0  0  0  0
  8  9  1  0  0  0  0
  9 10  1  0  0  0  0
 10 11  1  0  0  0  0
 10 12  2  0  0  0  0
  1 13  1  0  0  0  0
  1 14  1  0  0  0  0
  1 15  1  0  0  0  0
  2 16  1  0  0  0  0
  2 17  1  0  0  0  0
  3 18  1  0  0  0  0
  3 19  1  0  0  0  0
  4 20  1  0  0  0  0
  4 21  1  0  0  0  0
  5 22  1  0  0  0  0
  5 23  1  0  0  0  0
  6 24  1  0  0  0  0
  6 25  1  0  0  0  0
  7 26  1  0  0  0  0
  7 27  1  0  0  0  0
  8 28  1  0  0  0  0
  8 29  1  0  0  0  0
  9 30  1  0  0  0  0
  9 31  1  0  0  0  0
 11 32  1  0  0  0  0
M  END
>  <InChIKey>
GHVNFZFCNZKVNT-UHFFFAOYSA-N

>  <UN GHS>
Non-irritant

>  <CASRN>
68583-51-7

> <Outcome>
0

>  <Index>
222

>  <StandardizerResult>
Clear Stereo (ID: ClearStereo)
Wedge Clean (ID: WedgeClean)
Mesomerize (ID: Mesomerize)
Tautomerize (ID: Tautomerize)
Add Explicit Hydrogens (ID: AddExplicitH)
Neutralize (ID: Neutralize)
Clean 2D (ID: Clean2D)

> <knn Distance>
2.64575123786926

> <CpId>
222

$$$$
250
  Mrv1532301301811342D          

 42 41  0  0  0  0            999 V2000
    4.7586    3.5720    0.0000 C   0  0  0  0  0  0  0  0  0  0  0  0
    5.4730    3.9845    0.0000 C   0  0  0  0  0  0  0  0  0  0  0  0
    6.1875    3.5720    0.0000 C   0  0  0  0  0  0  0  0  0  0  0  0
    6.9020    3.9845    0.0000 C   0  0  0  0  0  0  0  0  0  0  0  0
    7.6164    3.5720    0.0000 C   0  0  0  0  0  0  0  0  0  0  0  0
    8.3309    3.9845    0.0000 C   0  0  0  0  0  0  0  0  0  0  0  0
    9.0454    3.5720    0.0000 C   0  0  0  0  0  0  0  0  0  0  0  0
    9.7599    3.9845    0.0000 C   0  0  0  0  0  0  0  0  0  0  0  0
   10.4743    3.5720    0.0000 C   0  0  0  0  0  0  0  0  0  0  0  0
   11.1888    3.9845    0.0000 C   0  0  0  0  0  0  0  0  0  0  0  0
   11.9033    3.5720    0.0000 C   0  0  0  0  0  0  0  0  0  0  0  0
   12.6177    3.9845    0.0000 C   0  0  0  0  0  0  0  0  0  0  0  0
   13.3322    3.5720    0.0000 C   0  0  0  0  0  0  0  0  0  0  0  0
   14.0467    3.9845    0.0000 C   0  0  0  0  0  0  0  0  0  0  0  0
    4.3461    4.2865    0.0000 H   0  0  0  0  0  0  0  0  0  0  0  0
    4.0441    3.1595    0.0000 H   0  0  0  0  0  0  0  0  0  0  0  0
    5.1711    2.8575    0.0000 H   0  0  0  0  0  0  0  0  0  0  0  0
    5.8433    4.7217    0.0000 H   0  0  0  0  0  0  0  0  0  0  0  0
    5.1028    4.7217    0.0000 H   0  0  0  0  0  0  0  0  0  0  0  0
    5.8172    2.8347    0.0000 H   0  0  0  0  0  0  0  0  0  0  0  0
    6.5578    2.8347    0.0000 H   0  0  0  0  0  0  0  0  0  0  0  0
    7.2722    4.7217    0.0000 H   0  0  0  0  0  0  0  0  0  0  0  0
    6.5317    4.7217    0.0000 H   0  0  0  0  0  0  0  0  0  0  0  0
    7.2462    2.8347    0.0000 H   0  0  0  0  0  0  0  0  0  0  0  0
    7.9867    2.8347    0.0000 H   0  0  0  0  0  0  0  0  0  0  0  0
    8.7012    4.7217    0.0000 H   0  0  0  0  0  0  0  0  0  0  0  0
    7.9607    4.7217    0.0000 H   0  0  0  0  0  0  0  0  0  0  0  0
    8.6751    2.8347    0.0000 H   0  0  0  0  0  0  0  0  0  0  0  0
    9.4156    2.8347    0.0000 H   0  0  0  0  0  0  0  0  0  0  0  0
   10.1301    4.7217    0.0000 H   0  0  0  0  0  0  0  0  0  0  0  0
    9.3896    4.7217    0.0000 H   0  0  0  0  0  0  0  0  0  0  0  0
   10.1041    2.8347    0.0000 H   0  0  0  0  0  0  0  0  0  0  0  0
   10.8446    2.8347    0.0000 H   0  0  0  0  0  0  0  0  0  0  0  0
   11.5591    4.7217    0.0000 H   0  0  0  0  0  0  0  0  0  0  0  0
   10.8185    4.7217    0.0000 H   0  0  0  0  0  0  0  0  0  0  0  0
   11.5330    2.8347    0.0000 H   0  0  0  0  0  0  0  0  0  0  0  0
   12.2735    2.8347    0.0000 H   0  0  0  0  0  0  0  0  0  0  0  0
   12.9880    4.7217    0.0000 H   0  0  0  0  0  0  0  0  0  0  0  0
   12.2475    4.7217    0.0000 H   0  0  0  0  0  0  0  0  0  0  0  0
   13.3322    2.7470    0.0000 H   0  0  0  0  0  0  0  0  0  0  0  0
   14.7612    3.5720    0.0000 H   0  0  0  0  0  0  0  0  0  0  0  0
   14.0467    4.8095    0.0000 H   0  0  0  0  0  0  0  0  0  0  0  0
  1  2  1  0  0  0  0
  2  3  1  0  0  0  0
  3  4  1  0  0  0  0
  4  5  1  0  0  0  0
  5  6  1  0  0  0  0
  6  7  1  0  0  0  0
  7  8  1  0  0  0  0
  8  9  1  0  0  0  0
  9 10  1  0  0  0  0
 10 11  1  0  0  0  0
 11 12  1  0  0  0  0
 12 13  1  0  0  0  0
 13 14  2  0  0  0  0
  1 15  1  0  0  0  0
  1 16  1  0  0  0  0
  1 17  1  0  0  0  0
  2 18  1  0  0  0  0
  2 19  1  0  0  0  0
  3 20  1  0  0  0  0
  3 21  1  0  0  0  0
  4 22  1  0  0  0  0
  4 23  1  0  0  0  0
  5 24  1  0  0  0  0
  5 25  1  0  0  0  0
  6 26  1  0  0  0  0
  6 27  1  0  0  0  0
  7 28  1  0  0  0  0
  7 29  1  0  0  0  0
  8 30  1  0  0  0  0
  8 31  1  0  0  0  0
  9 32  1  0  0  0  0
  9 33  1  0  0  0  0
 10 34  1  0  0  0  0
 10 35  1  0  0  0  0
 11 36  1  0  0  0  0
 11 37  1  0  0  0  0
 12 38  1  0  0  0  0
 12 39  1  0  0  0  0
 13 40  1  0  0  0  0
 14 41  1  0  0  0  0
 14 42  1  0  0  0  0
M  END
>  <InChIKey>
HFDVRLIODXPAHB-UHFFFAOYSA-N

>  <UN GHS>
Non-irritant

>  <CASRN>
1120-36-1

> <Outcome>
0

>  <Index>
250

>  <StandardizerResult>
Clear Stereo (ID: ClearStereo)
Wedge Clean (ID: WedgeClean)
Mesomerize (ID: Mesomerize)
Tautomerize (ID: Tautomerize)
Add Explicit Hydrogens (ID: AddExplicitH)
Neutralize (ID: Neutralize)
Clean 2D (ID: Clean2D)

> <knn Distance>
2.64575123786926

> <CpId>
250

$$$$
252
  Mrv1532301301811342D          

 40 41  0  0  0  0            999 V2000
    1.5631   -2.0836    0.0000 C   0  0  0  0  0  0  0  0  0  0  0  0
    0.7381   -2.0836    0.0000 C   0  0  0  0  0  0  0  0  0  0  0  0
   -0.0869   -2.0836    0.0000 C   0  0  0  0  0  0  0  0  0  0  0  0
    0.7381   -2.9086    0.0000 C   0  0  0  0  0  0  0  0  0  0  0  0
    1.4525   -3.3211    0.0000 C   0  0  0  0  0  0  0  0  0  0  0  0
    1.4525   -4.1461    0.0000 C   0  0  0  0  0  0  0  0  0  0  0  0
    0.7381   -4.5586    0.0000 C   0  0  0  0  0  0  0  0  0  0  0  0
    0.0236   -4.1461    0.0000 C   0  0  0  0  0  0  0  0  0  0  0  0
    0.0236   -3.3211    0.0000 C   0  0  0  0  0  0  0  0  0  0  0  0
    0.7381   -1.2586    0.0000 C   0  0  0  0  0  0  0  0  0  0  0  0
    1.5631   -1.2586    0.0000 C   0  0  0  0  0  0  0  0  0  0  0  0
   -0.0869   -1.2586    0.0000 C   0  0  0  0  0  0  0  0  0  0  0  0
    0.7381   -0.4336    0.0000 C   0  0  0  0  0  0  0  0  0  0  0  0
    0.0236   -0.0211    0.0000 C   0  0  0  0  0  0  0  0  0  0  0  0
    0.0236    0.8039    0.0000 C   0  0  0  0  0  0  0  0  0  0  0  0
    0.7381    1.2164    0.0000 C   0  0  0  0  0  0  0  0  0  0  0  0
    1.4525    0.8039    0.0000 C   0  0  0  0  0  0  0  0  0  0  0  0
    1.4525   -0.0211    0.0000 C   0  0  0  0  0  0  0  0  0  0  0  0
    1.2474   -2.8458    0.0000 H   0  0  0  0  0  0  0  0  0  0  0  0
    2.1464   -2.6670    0.0000 H   0  0  0  0  0  0  0  0  0  0  0  0
    2.3253   -1.7679    0.0000 H   0  0  0  0  0  0  0  0  0  0  0  0
   -0.8491   -1.7679    0.0000 H   0  0  0  0  0  0  0  0  0  0  0  0
   -0.6703   -2.6670    0.0000 H   0  0  0  0  0  0  0  0  0  0  0  0
    0.2288   -2.8458    0.0000 H   0  0  0  0  0  0  0  0  0  0  0  0
    2.2100   -3.6480    0.0000 H   0  0  0  0  0  0  0  0  0  0  0  0
    1.8856   -4.8483    0.0000 H   0  0  0  0  0  0  0  0  0  0  0  0
    0.7381   -5.3836    0.0000 H   0  0  0  0  0  0  0  0  0  0  0  0
   -0.6909   -4.5586    0.0000 H   0  0  0  0  0  0  0  0  0  0  0  0
   -0.7339   -3.6480    0.0000 H   0  0  0  0  0  0  0  0  0  0  0  0
    2.3398   -0.9807    0.0000 H   0  0  0  0  0  0  0  0  0  0  0  0
    1.8026   -0.4691    0.0000 H   0  0  0  0  0  0  0  0  0  0  0  0
    1.0716   -0.5959    0.0000 H   0  0  0  0  0  0  0  0  0  0  0  0
    0.4045   -0.5959    0.0000 H   0  0  0  0  0  0  0  0  0  0  0  0
   -0.3264   -0.4691    0.0000 H   0  0  0  0  0  0  0  0  0  0  0  0
   -0.8637   -0.9807    0.0000 H   0  0  0  0  0  0  0  0  0  0  0  0
   -0.7565    0.2475    0.0000 H   0  0  0  0  0  0  0  0  0  0  0  0
   -0.4227    1.4978    0.0000 H   0  0  0  0  0  0  0  0  0  0  0  0
    0.7381    2.0414    0.0000 H   0  0  0  0  0  0  0  0  0  0  0  0
    2.1670    1.2164    0.0000 H   0  0  0  0  0  0  0  0  0  0  0  0
    2.2326    0.2475    0.0000 H   0  0  0  0  0  0  0  0  0  0  0  0
  1  2  1  0  0  0  0
  2  3  1  0  0  0  0
  2  4  1  0  0  0  0
  4  5  4  0  0  0  0
  5  6  4  0  0  0  0
  6  7  4  0  0  0  0
  7  8  4  0  0  0  0
  8  9  4  0  0  0  0
  4  9  4  0  0  0  0
  2 10  1  0  0  0  0
 10 11  1  0  0  0  0
 10 12  1  0  0  0  0
 10 13  1  0  0  0  0
 13 14  4  0  0  0  0
 14 15  4  0  0  0  0
 15 16  4  0  0  0  0
 16 17  4  0  0  0  0
 17 18  4  0  0  0  0
 13 18  4  0  0  0  0
  1 19  1  0  0  0  0
  1 20  1  0  0  0  0
  1 21  1  0  0  0  0
  3 22  1  0  0  0  0
  3 23  1  0  0  0  0
  3 24  1  0  0  0  0
  5 25  1  0  0  0  0
  6 26  1  0  0  0  0
  7 27  1  0  0  0  0
  8 28  1  0  0  0  0
  9 29  1  0  0  0  0
 11 30  1  0  0  0  0
 11 31  1  0  0  0  0
 11 32  1  0  0  0  0
 12 33  1  0  0  0  0
 12 34  1  0  0  0  0
 12 35  1  0  0  0  0
 14 36  1  0  0  0  0
 15 37  1  0  0  0  0
 16 38  1  0  0  0  0
 17 39  1  0  0  0  0
 18 40  1  0  0  0  0
M  END
>  <InChIKey>
HGTUJZTUQFXBIH-UHFFFAOYSA-N

>  <UN GHS>
Non-irritant

>  <CASRN>
1889-67-4

> <Outcome>
0

>  <Index>
252

>  <StandardizerResult>
Dearomatize (ID: Dearomatize)
Clear Stereo (ID: ClearStereo)
Wedge Clean (ID: WedgeClean)
Mesomerize (ID: Mesomerize)
Tautomerize (ID: Tautomerize)
Aromatize (ID: Aromatize)
Add Explicit Hydrogens (ID: AddExplicitH)
Neutralize (ID: Neutralize)
Clean 2D (ID: Clean2D)

> <knn Distance>
2.64575123786926

> <CpId>
252

$$$$
282
  Mrv1532301301811342D          

 42 41  0  0  0  0            999 V2000
    5.9961    4.2868    0.0000 C   0  0  0  0  0  0  0  0  0  0  0  0
    6.7105    4.6993    0.0000 C   0  0  0  0  0  0  0  0  0  0  0  0
    6.7105    5.5243    0.0000 C   0  0  0  0  0  0  0  0  0  0  0  0
    7.4250    4.2868    0.0000 C   0  0  0  0  0  0  0  0  0  0  0  0
    7.4250    3.4618    0.0000 O   0  0  0  0  0  0  0  0  0  0  0  0
    8.1395    4.6993    0.0000 O   0  0  0  0  0  0  0  0  0  0  0  0
    8.8539    4.2868    0.0000 C   0  0  0  0  0  0  0  0  0  0  0  0
    9.5684    4.6993    0.0000 C   0  0  0  0  0  0  0  0  0  0  0  0
   10.2829    4.2868    0.0000 O   0  0  0  0  0  0  0  0  0  0  0  0
   10.9974    4.6993    0.0000 C   0  0  0  0  0  0  0  0  0  0  0  0
   11.7118    4.2868    0.0000 C   0  0  0  0  0  0  0  0  0  0  0  0
   12.4263    4.6993    0.0000 O   0  0  0  0  0  0  0  0  0  0  0  0
   13.1408    4.2868    0.0000 C   0  0  0  0  0  0  0  0  0  0  0  0
   13.8552    4.6993    0.0000 C   0  0  0  0  0  0  0  0  0  0  0  0
   14.5697    4.2868    0.0000 O   0  0  0  0  0  0  0  0  0  0  0  0
   15.2842    4.6993    0.0000 C   0  0  0  0  0  0  0  0  0  0  0  0
   15.2842    5.5243    0.0000 O   0  0  0  0  0  0  0  0  0  0  0  0
   15.9987    4.2868    0.0000 C   0  0  0  0  0  0  0  0  0  0  0  0
   16.7131    4.6993    0.0000 C   0  0  0  0  0  0  0  0  0  0  0  0
   15.9987    3.4618    0.0000 C   0  0  0  0  0  0  0  0  0  0  0  0
    5.5836    5.0013    0.0000 H   0  0  0  0  0  0  0  0  0  0  0  0
    5.2816    3.8743    0.0000 H   0  0  0  0  0  0  0  0  0  0  0  0
    6.4086    3.5723    0.0000 H   0  0  0  0  0  0  0  0  0  0  0  0
    7.4250    5.9368    0.0000 H   0  0  0  0  0  0  0  0  0  0  0  0
    5.9961    5.9368    0.0000 H   0  0  0  0  0  0  0  0  0  0  0  0
    8.4837    3.5496    0.0000 H   0  0  0  0  0  0  0  0  0  0  0  0
    9.2242    3.5496    0.0000 H   0  0  0  0  0  0  0  0  0  0  0  0
    9.9387    5.4365    0.0000 H   0  0  0  0  0  0  0  0  0  0  0  0
    9.1982    5.4365    0.0000 H   0  0  0  0  0  0  0  0  0  0  0  0
   11.3676    5.4365    0.0000 H   0  0  0  0  0  0  0  0  0  0  0  0
   10.6271    5.4365    0.0000 H   0  0  0  0  0  0  0  0  0  0  0  0
   11.3416    3.5496    0.0000 H   0  0  0  0  0  0  0  0  0  0  0  0
   12.0821    3.5496    0.0000 H   0  0  0  0  0  0  0  0  0  0  0  0
   12.7705    3.5496    0.0000 H   0  0  0  0  0  0  0  0  0  0  0  0
   13.5110    3.5496    0.0000 H   0  0  0  0  0  0  0  0  0  0  0  0
   14.2255    5.4365    0.0000 H   0  0  0  0  0  0  0  0  0  0  0  0
   13.4850    5.4365    0.0000 H   0  0  0  0  0  0  0  0  0  0  0  0
   17.1256    3.9848    0.0000 H   0  0  0  0  0  0  0  0  0  0  0  0
   17.4276    5.1118    0.0000 H   0  0  0  0  0  0  0  0  0  0  0  0
   16.3006    5.4138    0.0000 H   0  0  0  0  0  0  0  0  0  0  0  0
   15.2842    3.0493    0.0000 H   0  0  0  0  0  0  0  0  0  0  0  0
   16.7131    3.0493    0.0000 H   0  0  0  0  0  0  0  0  0  0  0  0
  1  2  1  0  0  0  0
  2  3  2  0  0  0  0
  2  4  1  0  0  0  0
  4  5  2  0  0  0  0
  4  6  1  0  0  0  0
  6  7  1  0  0  0  0
  7  8  1  0  0  0  0
  8  9  1  0  0  0  0
  9 10  1  0  0  0  0
 10 11  1  0  0  0  0
 11 12  1  0  0  0  0
 12 13  1  0  0  0  0
 13 14  1  0  0  0  0
 14 15  1  0  0  0  0
 15 16  1  0  0  0  0
 16 17  2  0  0  0  0
 16 18  1  0  0  0  0
 18 19  1  0  0  0  0
 18 20  2  0  0  0  0
  1 21  1  0  0  0  0
  1 22  1  0  0  0  0
  1 23  1  0  0  0  0
  3 24  1  0  0  0  0
  3 25  1  0  0  0  0
  7 26  1  0  0  0  0
  7 27  1  0  0  0  0
  8 28  1  0  0  0  0
  8 29  1  0  0  0  0
 10 30  1  0  0  0  0
 10 31  1  0  0  0  0
 11 32  1  0  0  0  0
 11 33  1  0  0  0  0
 13 34  1  0  0  0  0
 13 35  1  0  0  0  0
 14 36  1  0  0  0  0
 14 37  1  0  0  0  0
 19 38  1  0  0  0  0
 19 39  1  0  0  0  0
 19 40  1  0  0  0  0
 20 41  1  0  0  0  0
 20 42  1  0  0  0  0
M  END
>  <InChIKey>
HWSSEYVMGDIFMH-UHFFFAOYSA-N

>  <UN GHS>
Non-irritant

>  <CASRN>
109-16-0

> <Outcome>
0

>  <Index>
282

>  <StandardizerResult>
Clear Stereo (ID: ClearStereo)
Wedge Clean (ID: WedgeClean)
Mesomerize (ID: Mesomerize)
Tautomerize (ID: Tautomerize)
Add Explicit Hydrogens (ID: AddExplicitH)
Neutralize (ID: Neutralize)
Clean 2D (ID: Clean2D)

> <knn Distance>
2.64575123786926

> <CpId>
282

$$$$
301
  Mrv1532301301811342D          

 37 37  0  0  0  0            999 V2000
    2.8665   -4.9002    0.0000 C   0  0  0  0  0  0  0  0  0  0  0  0
    2.8665   -4.0752    0.0000 C   0  0  0  0  0  0  0  0  0  0  0  0
    2.1520   -3.6627    0.0000 C   0  0  0  0  0  0  0  0  0  0  0  0
    1.4376   -4.0752    0.0000 O   0  0  0  0  0  0  0  0  0  0  0  0
    3.5810   -3.6627    0.0000 C   0  0  0  0  0  0  0  0  0  0  0  0
    4.2954   -4.0752    0.0000 C   0  0  0  0  0  0  0  0  0  0  0  0
    5.0099   -3.6627    0.0000 C   0  0  0  0  0  0  0  0  0  0  0  0
    5.7244   -4.0752    0.0000 C   0  0  0  0  0  0  0  0  0  0  0  0
    6.4389   -3.6627    0.0000 C   0  0  0  0  0  0  0  0  0  0  0  0
    7.1533   -4.0752    0.0000 C   0  0  0  0  0  0  0  0  0  0  0  0
    7.1533   -4.9002    0.0000 C   0  0  0  0  0  0  0  0  0  0  0  0
    6.4389   -5.3127    0.0000 C   0  0  0  0  0  0  0  0  0  0  0  0
    5.7244   -4.9002    0.0000 C   0  0  0  0  0  0  0  0  0  0  0  0
    2.0415   -4.9002    0.0000 H   0  0  0  0  0  0  0  0  0  0  0  0
    2.8665   -5.7252    0.0000 H   0  0  0  0  0  0  0  0  0  0  0  0
    3.6915   -4.9002    0.0000 H   0  0  0  0  0  0  0  0  0  0  0  0
    2.1520   -4.4877    0.0000 H   0  0  0  0  0  0  0  0  0  0  0  0
    2.5223   -2.9255    0.0000 H   0  0  0  0  0  0  0  0  0  0  0  0
    1.7818   -2.9255    0.0000 H   0  0  0  0  0  0  0  0  0  0  0  0
    0.6126   -4.0752    0.0000 H   0  0  0  0  0  0  0  0  0  0  0  0
    3.9512   -2.9255    0.0000 H   0  0  0  0  0  0  0  0  0  0  0  0
    3.2107   -2.9255    0.0000 H   0  0  0  0  0  0  0  0  0  0  0  0
    3.9252   -4.8125    0.0000 H   0  0  0  0  0  0  0  0  0  0  0  0
    4.6657   -4.8125    0.0000 H   0  0  0  0  0  0  0  0  0  0  0  0
    5.3802   -2.9255    0.0000 H   0  0  0  0  0  0  0  0  0  0  0  0
    4.6397   -2.9255    0.0000 H   0  0  0  0  0  0  0  0  0  0  0  0
    5.0099   -4.4877    0.0000 H   0  0  0  0  0  0  0  0  0  0  0  0
    6.8091   -2.9255    0.0000 H   0  0  0  0  0  0  0  0  0  0  0  0
    6.0686   -2.9255    0.0000 H   0  0  0  0  0  0  0  0  0  0  0  0
    7.9769   -4.0272    0.0000 H   0  0  0  0  0  0  0  0  0  0  0  0
    7.6067   -3.3859    0.0000 H   0  0  0  0  0  0  0  0  0  0  0  0
    7.6067   -5.5895    0.0000 H   0  0  0  0  0  0  0  0  0  0  0  0
    7.9769   -4.9482    0.0000 H   0  0  0  0  0  0  0  0  0  0  0  0
    6.0686   -6.0500    0.0000 H   0  0  0  0  0  0  0  0  0  0  0  0
    6.8091   -6.0500    0.0000 H   0  0  0  0  0  0  0  0  0  0  0  0
    5.0924   -5.4305    0.0000 H   0  0  0  0  0  0  0  0  0  0  0  0
    5.5811   -5.7127    0.0000 H   0  0  0  0  0  0  0  0  0  0  0  0
  1  2  1  0  0  0  0
  2  3  1  0  0  0  0
  3  4  1  0  0  0  0
  2  5  1  0  0  0  0
  5  6  1  0  0  0  0
  6  7  1  0  0  0  0
  7  8  1  0  0  0  0
  8  9  1  0  0  0  0
  9 10  1  0  0  0  0
 10 11  1  0  0  0  0
 11 12  1  0  0  0  0
 12 13  1  0  0  0  0
  8 13  1  0  0  0  0
  1 14  1  0  0  0  0
  1 15  1  0  0  0  0
  1 16  1  0  0  0  0
  2 17  1  0  0  0  0
  3 18  1  0  0  0  0
  3 19  1  0  0  0  0
  4 20  1  0  0  0  0
  5 21  1  0  0  0  0
  5 22  1  0  0  0  0
  6 23  1  0  0  0  0
  6 24  1  0  0  0  0
  7 25  1  0  0  0  0
  7 26  1  0  0  0  0
  8 27  1  0  0  0  0
  9 28  1  0  0  0  0
  9 29  1  0  0  0  0
 10 30  1  0  0  0  0
 10 31  1  0  0  0  0
 11 32  1  0  0  0  0
 11 33  1  0  0  0  0
 12 34  1  0  0  0  0
 12 35  1  0  0  0  0
 13 36  1  0  0  0  0
 13 37  1  0  0  0  0
M  END
>  <InChIKey>
IDGMBCFBOMJIMX-UHFFFAOYSA-N

>  <UN GHS>
Non-irritant

>  <CASRN>
1141487-54-8

> <Outcome>
0

>  <Index>
301

>  <StandardizerResult>
Clear Stereo (ID: ClearStereo)
Wedge Clean (ID: WedgeClean)
Mesomerize (ID: Mesomerize)
Tautomerize (ID: Tautomerize)
Add Explicit Hydrogens (ID: AddExplicitH)
Neutralize (ID: Neutralize)
Clean 2D (ID: Clean2D)

> <knn Distance>
2.64575123786926

> <CpId>
301

$$$$
305
  Mrv1532301301811342D          

 30 29  0  0  0  0            999 V2000
    2.9667    2.5564    0.0000 C   0  0  0  0  0  0  0  0  0  0  0  0
    3.6812    2.1439    0.0000 C   0  0  0  0  0  0  0  0  0  0  0  0
    4.3957    2.5564    0.0000 C   0  0  0  0  0  0  0  0  0  0  0  0
    5.1101    2.1439    0.0000 C   0  0  0  0  0  0  0  0  0  0  0  0
    5.8246    2.5564    0.0000 C   0  0  0  0  0  0  0  0  0  0  0  0
    5.8246    3.3814    0.0000 C   0  0  0  0  0  0  0  0  0  0  0  0
    6.5391    3.7939    0.0000 C   0  0  0  0  0  0  0  0  0  0  0  0
    6.5391    2.1439    0.0000 C   0  0  0  0  0  0  0  0  0  0  0  0
    6.5391    1.3189    0.0000 O   0  0  0  0  0  0  0  0  0  0  0  0
    7.2536    2.5564    0.0000 O   0  0  0  0  0  0  0  0  0  0  0  0
    7.9680    2.1439    0.0000 C   0  0  0  0  0  0  0  0  0  0  0  0
    8.6825    2.5564    0.0000 C   0  0  0  0  0  0  0  0  0  0  0  0
    3.3792    3.2709    0.0000 H   0  0  0  0  0  0  0  0  0  0  0  0
    2.2523    2.9689    0.0000 H   0  0  0  0  0  0  0  0  0  0  0  0
    2.5542    1.8420    0.0000 H   0  0  0  0  0  0  0  0  0  0  0  0
    3.3109    1.4067    0.0000 H   0  0  0  0  0  0  0  0  0  0  0  0
    4.0515    1.4067    0.0000 H   0  0  0  0  0  0  0  0  0  0  0  0
    4.7659    3.2937    0.0000 H   0  0  0  0  0  0  0  0  0  0  0  0
    4.0254    3.2937    0.0000 H   0  0  0  0  0  0  0  0  0  0  0  0
    4.7399    1.4067    0.0000 H   0  0  0  0  0  0  0  0  0  0  0  0
    5.4804    1.4067    0.0000 H   0  0  0  0  0  0  0  0  0  0  0  0
    5.1101    2.9689    0.0000 H   0  0  0  0  0  0  0  0  0  0  0  0
    5.6814    4.1939    0.0000 H   0  0  0  0  0  0  0  0  0  0  0  0
    5.1926    3.9117    0.0000 H   0  0  0  0  0  0  0  0  0  0  0  0
    6.7699    3.0019    0.0000 H   0  0  0  0  0  0  0  0  0  0  0  0
    7.3633    3.8299    0.0000 H   0  0  0  0  0  0  0  0  0  0  0  0
    6.7000    4.6031    0.0000 H   0  0  0  0  0  0  0  0  0  0  0  0
    7.9680    1.3189    0.0000 H   0  0  0  0  0  0  0  0  0  0  0  0
    9.3970    2.1439    0.0000 H   0  0  0  0  0  0  0  0  0  0  0  0
    8.6825    3.3814    0.0000 H   0  0  0  0  0  0  0  0  0  0  0  0
  1  2  1  0  0  0  0
  2  3  1  0  0  0  0
  3  4  1  0  0  0  0
  4  5  1  0  0  0  0
  5  6  1  0  0  0  0
  6  7  1  0  0  0  0
  5  8  1  0  0  0  0
  8  9  2  0  0  0  0
  8 10  1  0  0  0  0
 10 11  1  0  0  0  0
 11 12  2  0  0  0  0
  1 13  1  0  0  0  0
  1 14  1  0  0  0  0
  1 15  1  0  0  0  0
  2 16  1  0  0  0  0
  2 17  1  0  0  0  0
  3 18  1  0  0  0  0
  3 19  1  0  0  0  0
  4 20  1  0  0  0  0
  4 21  1  0  0  0  0
  5 22  1  0  0  0  0
  6 23  1  0  0  0  0
  6 24  1  0  0  0  0
  7 25  1  0  0  0  0
  7 26  1  0  0  0  0
  7 27  1  0  0  0  0
 11 28  1  0  0  0  0
 12 29  1  0  0  0  0
 12 30  1  0  0  0  0
M  END
>  <InChIKey>
IGBZOHMCHDADGY-UHFFFAOYSA-N

>  <UN GHS>
Non-irritant

>  <CASRN>
94-04-2

> <Outcome>
0

>  <Index>
305

>  <StandardizerResult>
Clear Stereo (ID: ClearStereo)
Wedge Clean (ID: WedgeClean)
Mesomerize (ID: Mesomerize)
Tautomerize (ID: Tautomerize)
Add Explicit Hydrogens (ID: AddExplicitH)
Neutralize (ID: Neutralize)
Clean 2D (ID: Clean2D)

> <knn Distance>
2.64575123786926

> <CpId>
305

$$$$
320
  Mrv1532301301811342D          

 50 49  0  0  0  0            999 V2000
    7.9480    5.4138    0.0000 C   0  0  0  0  0  0  0  0  0  0  0  0
    8.6625    5.0013    0.0000 C   0  0  0  0  0  0  0  0  0  0  0  0
    9.3770    5.4138    0.0000 C   0  0  0  0  0  0  0  0  0  0  0  0
   10.0914    5.0013    0.0000 C   0  0  0  0  0  0  0  0  0  0  0  0
   10.8059    5.4138    0.0000 C   0  0  0  0  0  0  0  0  0  0  0  0
   11.5204    5.0013    0.0000 C   0  0  0  0  0  0  0  0  0  0  0  0
   12.2349    5.4138    0.0000 C   0  0  0  0  0  0  0  0  0  0  0  0
   12.9493    5.0013    0.0000 C   0  0  0  0  0  0  0  0  0  0  0  0
   13.6638    5.4138    0.0000 C   0  0  0  0  0  0  0  0  0  0  0  0
   14.3783    5.0013    0.0000 C   0  0  0  0  0  0  0  0  0  0  0  0
   15.0927    5.4138    0.0000 C   0  0  0  0  0  0  0  0  0  0  0  0
   15.8072    5.0013    0.0000 C   0  0  0  0  0  0  0  0  0  0  0  0
   16.5217    5.4138    0.0000 C   0  0  0  0  0  0  0  0  0  0  0  0
   17.2362    5.0013    0.0000 C   0  0  0  0  0  0  0  0  0  0  0  0
   17.9506    5.4138    0.0000 C   0  0  0  0  0  0  0  0  0  0  0  0
   18.6651    5.0013    0.0000 C   0  0  0  0  0  0  0  0  0  0  0  0
   19.3796    5.4138    0.0000 O   0  0  0  0  0  0  0  0  0  0  0  0
   18.6651    4.1763    0.0000 O   0  0  0  0  0  0  0  0  0  0  0  0
    8.3605    6.1283    0.0000 H   0  0  0  0  0  0  0  0  0  0  0  0
    7.2336    5.8263    0.0000 H   0  0  0  0  0  0  0  0  0  0  0  0
    7.5355    4.6993    0.0000 H   0  0  0  0  0  0  0  0  0  0  0  0
    8.2922    4.2641    0.0000 H   0  0  0  0  0  0  0  0  0  0  0  0
    9.0328    4.2641    0.0000 H   0  0  0  0  0  0  0  0  0  0  0  0
    9.7472    6.1510    0.0000 H   0  0  0  0  0  0  0  0  0  0  0  0
    9.0067    6.1510    0.0000 H   0  0  0  0  0  0  0  0  0  0  0  0
    9.7212    4.2641    0.0000 H   0  0  0  0  0  0  0  0  0  0  0  0
   10.4617    4.2641    0.0000 H   0  0  0  0  0  0  0  0  0  0  0  0
   11.1762    6.1510    0.0000 H   0  0  0  0  0  0  0  0  0  0  0  0
   10.4357    6.1510    0.0000 H   0  0  0  0  0  0  0  0  0  0  0  0
   11.1501    4.2641    0.0000 H   0  0  0  0  0  0  0  0  0  0  0  0
   11.8906    4.2641    0.0000 H   0  0  0  0  0  0  0  0  0  0  0  0
   12.6051    6.1510    0.0000 H   0  0  0  0  0  0  0  0  0  0  0  0
   11.8646    6.1510    0.0000 H   0  0  0  0  0  0  0  0  0  0  0  0
   12.5791    4.2641    0.0000 H   0  0  0  0  0  0  0  0  0  0  0  0
   13.3196    4.2641    0.0000 H   0  0  0  0  0  0  0  0  0  0  0  0
   14.0341    6.1510    0.0000 H   0  0  0  0  0  0  0  0  0  0  0  0
   13.2935    6.1510    0.0000 H   0  0  0  0  0  0  0  0  0  0  0  0
   14.0080    4.2641    0.0000 H   0  0  0  0  0  0  0  0  0  0  0  0
   14.7485    4.2641    0.0000 H   0  0  0  0  0  0  0  0  0  0  0  0
   15.4630    6.1510    0.0000 H   0  0  0  0  0  0  0  0  0  0  0  0
   14.7225    6.1510    0.0000 H   0  0  0  0  0  0  0  0  0  0  0  0
   15.4370    4.2641    0.0000 H   0  0  0  0  0  0  0  0  0  0  0  0
   16.1775    4.2641    0.0000 H   0  0  0  0  0  0  0  0  0  0  0  0
   16.8919    6.1510    0.0000 H   0  0  0  0  0  0  0  0  0  0  0  0
   16.1514    6.1510    0.0000 H   0  0  0  0  0  0  0  0  0  0  0  0
   16.8659    4.2641    0.0000 H   0  0  0  0  0  0  0  0  0  0  0  0
   17.6064    4.2641    0.0000 H   0  0  0  0  0  0  0  0  0  0  0  0
   18.3209    6.1510    0.0000 H   0  0  0  0  0  0  0  0  0  0  0  0
   17.5804    6.1510    0.0000 H   0  0  0  0  0  0  0  0  0  0  0  0
   20.0940    5.0013    0.0000 H   0  0  0  0  0  0  0  0  0  0  0  0
  1  2  1  0  0  0  0
  2  3  1  0  0  0  0
  3  4  1  0  0  0  0
  4  5  1  0  0  0  0
  5  6  1  0  0  0  0
  6  7  1  0  0  0  0
  7  8  1  0  0  0  0
  8  9  1  0  0  0  0
  9 10  1  0  0  0  0
 10 11  1  0  0  0  0
 11 12  1  0  0  0  0
 12 13  1  0  0  0  0
 13 14  1  0  0  0  0
 14 15  1  0  0  0  0
 15 16  1  0  0  0  0
 16 17  1  0  0  0  0
 16 18  2  0  0  0  0
  1 19  1  0  0  0  0
  1 20  1  0  0  0  0
  1 21  1  0  0  0  0
  2 22  1  0  0  0  0
  2 23  1  0  0  0  0
  3 24  1  0  0  0  0
  3 25  1  0  0  0  0
  4 26  1  0  0  0  0
  4 27  1  0  0  0  0
  5 28  1  0  0  0  0
  5 29  1  0  0  0  0
  6 30  1  0  0  0  0
  6 31  1  0  0  0  0
  7 32  1  0  0  0  0
  7 33  1  0  0  0  0
  8 34  1  0  0  0  0
  8 35  1  0  0  0  0
  9 36  1  0  0  0  0
  9 37  1  0  0  0  0
 10 38  1  0  0  0  0
 10 39  1  0  0  0  0
 11 40  1  0  0  0  0
 11 41  1  0  0  0  0
 12 42  1  0  0  0  0
 12 43  1  0  0  0  0
 13 44  1  0  0  0  0
 13 45  1  0  0  0  0
 14 46  1  0  0  0  0
 14 47  1  0  0  0  0
 15 48  1  0  0  0  0
 15 49  1  0  0  0  0
 17 50  1  0  0  0  0
M  END
>  <InChIKey>
IPCSVZSSVZVIGE-UHFFFAOYSA-N

>  <UN GHS>
Non-irritant

>  <CASRN>
57-10-3

> <Outcome>
0

>  <Index>
320

>  <StandardizerResult>
Clear Stereo (ID: ClearStereo)
Wedge Clean (ID: WedgeClean)
Mesomerize (ID: Mesomerize)
Tautomerize (ID: Tautomerize)
Add Explicit Hydrogens (ID: AddExplicitH)
Neutralize (ID: Neutralize)
Clean 2D (ID: Clean2D)

> <knn Distance>
2.64575123786926

> <CpId>
320

$$$$
334
  Mrv1532301301811342D          

 62 61  0  0  0  0            999 V2000
    7.1704    4.9831    0.0000 C   0  0  0  0  0  0  0  0  0  0  0  0
    7.8848    5.3956    0.0000 C   0  0  0  0  0  0  0  0  0  0  0  0
    8.5993    4.9831    0.0000 C   0  0  0  0  0  0  0  0  0  0  0  0
    9.3138    5.3956    0.0000 C   0  0  0  0  0  0  0  0  0  0  0  0
   10.0283    4.9831    0.0000 C   0  0  0  0  0  0  0  0  0  0  0  0
   10.7427    5.3956    0.0000 C   0  0  0  0  0  0  0  0  0  0  0  0
   11.4572    4.9831    0.0000 C   0  0  0  0  0  0  0  0  0  0  0  0
   12.1717    5.3956    0.0000 C   0  0  0  0  0  0  0  0  0  0  0  0
   12.8861    4.9831    0.0000 C   0  0  0  0  0  0  0  0  0  0  0  0
   12.8861    4.1581    0.0000 C   0  0  0  0  0  0  0  0  0  0  0  0
   13.6006    5.3956    0.0000 C   0  0  0  0  0  0  0  0  0  0  0  0
   13.6006    6.2206    0.0000 C   0  0  0  0  0  0  0  0  0  0  0  0
   14.3151    4.9831    0.0000 C   0  0  0  0  0  0  0  0  0  0  0  0
   15.0296    5.3956    0.0000 C   0  0  0  0  0  0  0  0  0  0  0  0
   15.7440    4.9831    0.0000 C   0  0  0  0  0  0  0  0  0  0  0  0
   16.4585    5.3956    0.0000 C   0  0  0  0  0  0  0  0  0  0  0  0
   17.1730    4.9831    0.0000 C   0  0  0  0  0  0  0  0  0  0  0  0
   17.8874    5.3956    0.0000 C   0  0  0  0  0  0  0  0  0  0  0  0
   18.6019    4.9831    0.0000 C   0  0  0  0  0  0  0  0  0  0  0  0
   19.3164    5.3956    0.0000 C   0  0  0  0  0  0  0  0  0  0  0  0
    6.7579    5.6976    0.0000 H   0  0  0  0  0  0  0  0  0  0  0  0
    6.4559    4.5706    0.0000 H   0  0  0  0  0  0  0  0  0  0  0  0
    7.5829    4.2687    0.0000 H   0  0  0  0  0  0  0  0  0  0  0  0
    8.2551    6.1329    0.0000 H   0  0  0  0  0  0  0  0  0  0  0  0
    7.5146    6.1329    0.0000 H   0  0  0  0  0  0  0  0  0  0  0  0
    8.2291    4.2459    0.0000 H   0  0  0  0  0  0  0  0  0  0  0  0
    8.9696    4.2459    0.0000 H   0  0  0  0  0  0  0  0  0  0  0  0
    9.6840    6.1329    0.0000 H   0  0  0  0  0  0  0  0  0  0  0  0
    8.9435    6.1329    0.0000 H   0  0  0  0  0  0  0  0  0  0  0  0
    9.6580    4.2459    0.0000 H   0  0  0  0  0  0  0  0  0  0  0  0
   10.3985    4.2459    0.0000 H   0  0  0  0  0  0  0  0  0  0  0  0
   11.1130    6.1329    0.0000 H   0  0  0  0  0  0  0  0  0  0  0  0
   10.3725    6.1329    0.0000 H   0  0  0  0  0  0  0  0  0  0  0  0
   11.0869    4.2459    0.0000 H   0  0  0  0  0  0  0  0  0  0  0  0
   11.8275    4.2459    0.0000 H   0  0  0  0  0  0  0  0  0  0  0  0
   12.5419    6.1329    0.0000 H   0  0  0  0  0  0  0  0  0  0  0  0
   11.8014    6.1329    0.0000 H   0  0  0  0  0  0  0  0  0  0  0  0
   12.1717    4.5706    0.0000 H   0  0  0  0  0  0  0  0  0  0  0  0
   12.3028    3.5748    0.0000 H   0  0  0  0  0  0  0  0  0  0  0  0
   13.2986    3.4437    0.0000 H   0  0  0  0  0  0  0  0  0  0  0  0
   13.6830    4.3717    0.0000 H   0  0  0  0  0  0  0  0  0  0  0  0
   12.8861    5.8081    0.0000 H   0  0  0  0  0  0  0  0  0  0  0  0
   14.3975    6.0071    0.0000 H   0  0  0  0  0  0  0  0  0  0  0  0
   14.0131    6.9351    0.0000 H   0  0  0  0  0  0  0  0  0  0  0  0
   13.0173    6.8040    0.0000 H   0  0  0  0  0  0  0  0  0  0  0  0
   14.8119    4.3245    0.0000 H   0  0  0  0  0  0  0  0  0  0  0  0
   14.3151    5.8081    0.0000 H   0  0  0  0  0  0  0  0  0  0  0  0
   15.5264    6.0543    0.0000 H   0  0  0  0  0  0  0  0  0  0  0  0
   15.0296    4.5706    0.0000 H   0  0  0  0  0  0  0  0  0  0  0  0
   15.8873    4.1707    0.0000 H   0  0  0  0  0  0  0  0  0  0  0  0
   16.3760    4.4528    0.0000 H   0  0  0  0  0  0  0  0  0  0  0  0
   16.8288    6.1329    0.0000 H   0  0  0  0  0  0  0  0  0  0  0  0
   16.0882    6.1329    0.0000 H   0  0  0  0  0  0  0  0  0  0  0  0
   17.2079    4.1589    0.0000 H   0  0  0  0  0  0  0  0  0  0  0  0
   17.8960    4.5859    0.0000 H   0  0  0  0  0  0  0  0  0  0  0  0
   18.2577    6.1329    0.0000 H   0  0  0  0  0  0  0  0  0  0  0  0
   17.5172    6.1329    0.0000 H   0  0  0  0  0  0  0  0  0  0  0  0
   18.7397    4.1697    0.0000 H   0  0  0  0  0  0  0  0  0  0  0  0
   19.2316    4.4502    0.0000 H   0  0  0  0  0  0  0  0  0  0  0  0
   20.0972    5.1292    0.0000 H   0  0  0  0  0  0  0  0  0  0  0  0
   19.7604    6.0910    0.0000 H   0  0  0  0  0  0  0  0  0  0  0  0
   18.7462    5.9919    0.0000 H   0  0  0  0  0  0  0  0  0  0  0  0
  1  2  1  0  0  0  0
  2  3  1  0  0  0  0
  3  4  1  0  0  0  0
  4  5  1  0  0  0  0
  5  6  1  0  0  0  0
  6  7  1  0  0  0  0
  7  8  1  0  0  0  0
  8  9  1  0  0  0  0
  9 10  1  0  0  0  0
  9 11  1  0  0  0  0
 11 12  1  0  0  0  0
 11 13  1  0  0  0  0
 13 14  1  0  0  0  0
 14 15  1  0  0  0  0
 15 16  1  0  0  0  0
 16 17  1  0  0  0  0
 17 18  1  0  0  0  0
 18 19  1  0  0  0  0
 19 20  1  0  0  0  0
  1 21  1  0  0  0  0
  1 22  1  0  0  0  0
  1 23  1  0  0  0  0
  2 24  1  0  0  0  0
  2 25  1  0  0  0  0
  3 26  1  0  0  0  0
  3 27  1  0  0  0  0
  4 28  1  0  0  0  0
  4 29  1  0  0  0  0
  5 30  1  0  0  0  0
  5 31  1  0  0  0  0
  6 32  1  0  0  0  0
  6 33  1  0  0  0  0
  7 34  1  0  0  0  0
  7 35  1  0  0  0  0
  8 36  1  0  0  0  0
  8 37  1  0  0  0  0
  9 38  1  0  0  0  0
 10 39  1  0  0  0  0
 10 40  1  0  0  0  0
 10 41  1  0  0  0  0
 11 42  1  0  0  0  0
 12 43  1  0  0  0  0
 12 44  1  0  0  0  0
 12 45  1  0  0  0  0
 13 46  1  0  0  0  0
 13 47  1  0  0  0  0
 14 48  1  0  0  0  0
 14 49  1  0  0  0  0
 15 50  1  0  0  0  0
 15 51  1  0  0  0  0
 16 52  1  0  0  0  0
 16 53  1  0  0  0  0
 17 54  1  0  0  0  0
 17 55  1  0  0  0  0
 18 56  1  0  0  0  0
 18 57  1  0  0  0  0
 19 58  1  0  0  0  0
 19 59  1  0  0  0  0
 20 60  1  0  0  0  0
 20 61  1  0  0  0  0
 20 62  1  0  0  0  0
M  END
>  <InChIKey>
IZWHERZFONYXEC-UHFFFAOYSA-N

>  <UN GHS>
Non-irritant

>  <CASRN>
68649-11-6

> <Outcome>
0

>  <Index>
334

>  <StandardizerResult>
Clear Stereo (ID: ClearStereo)
Wedge Clean (ID: WedgeClean)
Mesomerize (ID: Mesomerize)
Tautomerize (ID: Tautomerize)
Add Explicit Hydrogens (ID: AddExplicitH)
Neutralize (ID: Neutralize)
Clean 2D (ID: Clean2D)

> <knn Distance>
2.64575123786926

> <CpId>
334

$$$$
342
  Mrv1532301301811342D          

 34 33  0  0  0  0            999 V2000
    4.1631   -2.8991    0.0000 C   0  0  0  0  0  0  0  0  0  0  0  0
    3.3381   -2.8991    0.0000 C   0  0  0  0  0  0  0  0  0  0  0  0
    2.9256   -2.1846    0.0000 C   0  0  0  0  0  0  0  0  0  0  0  0
    3.6401   -1.7721    0.0000 C   0  0  0  0  0  0  0  0  0  0  0  0
    2.2111   -2.5971    0.0000 C   0  0  0  0  0  0  0  0  0  0  0  0
    2.5131   -1.4701    0.0000 O   0  0  0  0  0  0  0  0  0  0  0  0
    1.6881   -1.4701    0.0000 O   0  0  0  0  0  0  0  0  0  0  0  0
    1.2756   -0.7556    0.0000 C   0  0  0  0  0  0  0  0  0  0  0  0
    1.9901   -0.3431    0.0000 C   0  0  0  0  0  0  0  0  0  0  0  0
    0.5611   -1.1681    0.0000 C   0  0  0  0  0  0  0  0  0  0  0  0
    0.8631   -0.0412    0.0000 C   0  0  0  0  0  0  0  0  0  0  0  0
    0.0381   -0.0412    0.0000 C   0  0  0  0  0  0  0  0  0  0  0  0
    4.1631   -3.7241    0.0000 H   0  0  0  0  0  0  0  0  0  0  0  0
    4.9881   -2.8991    0.0000 H   0  0  0  0  0  0  0  0  0  0  0  0
    4.1631   -2.0741    0.0000 H   0  0  0  0  0  0  0  0  0  0  0  0
    2.6488   -3.3524    0.0000 H   0  0  0  0  0  0  0  0  0  0  0  0
    3.2901   -3.7227    0.0000 H   0  0  0  0  0  0  0  0  0  0  0  0
    4.3545   -1.3596    0.0000 H   0  0  0  0  0  0  0  0  0  0  0  0
    3.6401   -0.9471    0.0000 H   0  0  0  0  0  0  0  0  0  0  0  0
    2.9256   -1.3596    0.0000 H   0  0  0  0  0  0  0  0  0  0  0  0
    2.1031   -1.7792    0.0000 H   0  0  0  0  0  0  0  0  0  0  0  0
    1.4141   -2.3842    0.0000 H   0  0  0  0  0  0  0  0  0  0  0  0
    1.7097   -3.2522    0.0000 H   0  0  0  0  0  0  0  0  0  0  0  0
    2.4026   -1.0576    0.0000 H   0  0  0  0  0  0  0  0  0  0  0  0
    2.7045    0.0694    0.0000 H   0  0  0  0  0  0  0  0  0  0  0  0
    1.5776    0.3713    0.0000 H   0  0  0  0  0  0  0  0  0  0  0  0
    0.1486   -0.4537    0.0000 H   0  0  0  0  0  0  0  0  0  0  0  0
   -0.1533   -1.5806    0.0000 H   0  0  0  0  0  0  0  0  0  0  0  0
    0.9736   -1.8826    0.0000 H   0  0  0  0  0  0  0  0  0  0  0  0
    0.6496    0.7557    0.0000 H   0  0  0  0  0  0  0  0  0  0  0  0
    1.6600   -0.2547    0.0000 H   0  0  0  0  0  0  0  0  0  0  0  0
    0.3033    0.7400    0.0000 H   0  0  0  0  0  0  0  0  0  0  0  0
   -0.6164    0.4611    0.0000 H   0  0  0  0  0  0  0  0  0  0  0  0
   -0.6479   -0.4995    0.0000 H   0  0  0  0  0  0  0  0  0  0  0  0
  1  2  1  0  0  0  0
  2  3  1  0  0  0  0
  3  4  1  0  0  0  0
  3  5  1  0  0  0  0
  3  6  1  0  0  0  0
  6  7  1  0  0  0  0
  7  8  1  0  0  0  0
  8  9  1  0  0  0  0
  8 10  1  0  0  0  0
  8 11  1  0  0  0  0
 11 12  1  0  0  0  0
  1 13  1  0  0  0  0
  1 14  1  0  0  0  0
  1 15  1  0  0  0  0
  2 16  1  0  0  0  0
  2 17  1  0  0  0  0
  4 18  1  0  0  0  0
  4 19  1  0  0  0  0
  4 20  1  0  0  0  0
  5 21  1  0  0  0  0
  5 22  1  0  0  0  0
  5 23  1  0  0  0  0
  9 24  1  0  0  0  0
  9 25  1  0  0  0  0
  9 26  1  0  0  0  0
 10 27  1  0  0  0  0
 10 28  1  0  0  0  0
 10 29  1  0  0  0  0
 11 30  1  0  0  0  0
 11 31  1  0  0  0  0
 12 32  1  0  0  0  0
 12 33  1  0  0  0  0
 12 34  1  0  0  0  0
M  END
>  <InChIKey>
JJRDRFZYKKFYMO-UHFFFAOYSA-N

>  <UN GHS>
Non-irritant

>  <CASRN>
10508-09-5

> <Outcome>
0

>  <Index>
342

>  <StandardizerResult>
Clear Stereo (ID: ClearStereo)
Wedge Clean (ID: WedgeClean)
Mesomerize (ID: Mesomerize)
Tautomerize (ID: Tautomerize)
Add Explicit Hydrogens (ID: AddExplicitH)
Neutralize (ID: Neutralize)
Clean 2D (ID: Clean2D)

> <knn Distance>
2.64575123786926

> <CpId>
342

$$$$
355
  Mrv1532301301811342D          

 27 26  0  0  0  0            999 V2000
    2.9980    2.5559    0.0000 C   0  0  0  0  0  0  0  0  0  0  0  0
    3.7125    2.1434    0.0000 C   0  0  0  0  0  0  0  0  0  0  0  0
    4.4270    2.5559    0.0000 C   0  0  0  0  0  0  0  0  0  0  0  0
    5.1414    2.1434    0.0000 C   0  0  0  0  0  0  0  0  0  0  0  0
    5.8559    2.5559    0.0000 C   0  0  0  0  0  0  0  0  0  0  0  0
    6.5704    2.1434    0.0000 C   0  0  0  0  0  0  0  0  0  0  0  0
    7.2849    2.5559    0.0000 C   0  0  0  0  0  0  0  0  0  0  0  0
    7.9993    2.1434    0.0000 C   0  0  0  0  0  0  0  0  0  0  0  0
    8.7138    2.5559    0.0000 C   0  0  0  0  0  0  0  0  0  0  0  0
    3.4105    3.2704    0.0000 H   0  0  0  0  0  0  0  0  0  0  0  0
    2.2836    2.9684    0.0000 H   0  0  0  0  0  0  0  0  0  0  0  0
    2.5855    1.8414    0.0000 H   0  0  0  0  0  0  0  0  0  0  0  0
    3.3422    1.4062    0.0000 H   0  0  0  0  0  0  0  0  0  0  0  0
    4.0828    1.4062    0.0000 H   0  0  0  0  0  0  0  0  0  0  0  0
    4.7972    3.2931    0.0000 H   0  0  0  0  0  0  0  0  0  0  0  0
    4.0567    3.2931    0.0000 H   0  0  0  0  0  0  0  0  0  0  0  0
    4.7712    1.4062    0.0000 H   0  0  0  0  0  0  0  0  0  0  0  0
    5.5117    1.4062    0.0000 H   0  0  0  0  0  0  0  0  0  0  0  0
    6.2262    3.2931    0.0000 H   0  0  0  0  0  0  0  0  0  0  0  0
    5.4857    3.2931    0.0000 H   0  0  0  0  0  0  0  0  0  0  0  0
    6.2001    1.4062    0.0000 H   0  0  0  0  0  0  0  0  0  0  0  0
    6.9406    1.4062    0.0000 H   0  0  0  0  0  0  0  0  0  0  0  0
    7.6551    3.2931    0.0000 H   0  0  0  0  0  0  0  0  0  0  0  0
    6.9146    3.2931    0.0000 H   0  0  0  0  0  0  0  0  0  0  0  0
    7.9993    1.3184    0.0000 H   0  0  0  0  0  0  0  0  0  0  0  0
    9.4283    2.1434    0.0000 H   0  0  0  0  0  0  0  0  0  0  0  0
    8.7138    3.3809    0.0000 H   0  0  0  0  0  0  0  0  0  0  0  0
  1  2  1  0  0  0  0
  2  3  1  0  0  0  0
  3  4  1  0  0  0  0
  4  5  1  0  0  0  0
  5  6  1  0  0  0  0
  6  7  1  0  0  0  0
  7  8  1  0  0  0  0
  8  9  2  0  0  0  0
  1 10  1  0  0  0  0
  1 11  1  0  0  0  0
  1 12  1  0  0  0  0
  2 13  1  0  0  0  0
  2 14  1  0  0  0  0
  3 15  1  0  0  0  0
  3 16  1  0  0  0  0
  4 17  1  0  0  0  0
  4 18  1  0  0  0  0
  5 19  1  0  0  0  0
  5 20  1  0  0  0  0
  6 21  1  0  0  0  0
  6 22  1  0  0  0  0
  7 23  1  0  0  0  0
  7 24  1  0  0  0  0
  8 25  1  0  0  0  0
  9 26  1  0  0  0  0
  9 27  1  0  0  0  0
M  END
>  <InChIKey>
JRZJOMJEPLMPRA-UHFFFAOYSA-N

>  <UN GHS>
Non-irritant

>  <CASRN>
68526-55-6

> <Outcome>
0

>  <Index>
355

>  <StandardizerResult>
Clear Stereo (ID: ClearStereo)
Wedge Clean (ID: WedgeClean)
Mesomerize (ID: Mesomerize)
Tautomerize (ID: Tautomerize)
Add Explicit Hydrogens (ID: AddExplicitH)
Neutralize (ID: Neutralize)
Clean 2D (ID: Clean2D)

> <knn Distance>
2.64575123786926

> <CpId>
355

$$$$
382
  Mrv1532301301811342D          

 57 58  0  0  0  0            999 V2000
   -0.6779   -0.4286    0.0000 C   0  0  0  0  0  0  0  0  0  0  0  0
   -0.6779   -1.2536    0.0000 C   0  0  0  0  0  0  0  0  0  0  0  0
    0.0366   -1.6661    0.0000 C   0  0  0  0  0  0  0  0  0  0  0  0
    0.0366   -2.4911    0.0000 C   0  0  0  0  0  0  0  0  0  0  0  0
    0.7511   -2.9036    0.0000 C   0  0  0  0  0  0  0  0  0  0  0  0
    1.4655   -2.4911    0.0000 C   0  0  0  0  0  0  0  0  0  0  0  0
    1.4655   -1.6661    0.0000 C   0  0  0  0  0  0  0  0  0  0  0  0
    2.1800   -1.2536    0.0000 C   0  0  0  0  0  0  0  0  0  0  0  0
    2.1800   -0.4286    0.0000 C   0  0  0  0  0  0  0  0  0  0  0  0
    2.8945   -1.6661    0.0000 C   0  0  0  0  0  0  0  0  0  0  0  0
    2.8945   -2.4911    0.0000 C   0  0  0  0  0  0  0  0  0  0  0  0
    2.1800   -2.9036    0.0000 C   0  0  0  0  0  0  0  0  0  0  0  0
    2.1800   -3.7286    0.0000 O   0  0  0  0  0  0  0  0  0  0  0  0
    3.6089   -2.9036    0.0000 C   0  0  0  0  0  0  0  0  0  0  0  0
    4.3234   -3.3161    0.0000 C   0  0  0  0  0  0  0  0  0  0  0  0
    4.0214   -2.1891    0.0000 C   0  0  0  0  0  0  0  0  0  0  0  0
    3.1964   -3.6180    0.0000 C   0  0  0  0  0  0  0  0  0  0  0  0
   -0.6779   -2.9036    0.0000 C   0  0  0  0  0  0  0  0  0  0  0  0
   -0.6779   -3.7286    0.0000 O   0  0  0  0  0  0  0  0  0  0  0  0
   -1.3924   -2.4911    0.0000 C   0  0  0  0  0  0  0  0  0  0  0  0
   -1.3924   -1.6661    0.0000 C   0  0  0  0  0  0  0  0  0  0  0  0
   -2.1068   -2.9036    0.0000 C   0  0  0  0  0  0  0  0  0  0  0  0
   -2.8213   -3.3161    0.0000 C   0  0  0  0  0  0  0  0  0  0  0  0
   -2.5193   -2.1891    0.0000 C   0  0  0  0  0  0  0  0  0  0  0  0
   -1.6943   -3.6180    0.0000 C   0  0  0  0  0  0  0  0  0  0  0  0
    0.1471   -0.4286    0.0000 H   0  0  0  0  0  0  0  0  0  0  0  0
   -0.6779    0.3964    0.0000 H   0  0  0  0  0  0  0  0  0  0  0  0
   -1.5029   -0.4286    0.0000 H   0  0  0  0  0  0  0  0  0  0  0  0
    0.7511   -1.2536    0.0000 H   0  0  0  0  0  0  0  0  0  0  0  0
    0.3808   -3.6408    0.0000 H   0  0  0  0  0  0  0  0  0  0  0  0
    1.1213   -3.6408    0.0000 H   0  0  0  0  0  0  0  0  0  0  0  0
    0.7511   -2.0786    0.0000 H   0  0  0  0  0  0  0  0  0  0  0  0
    3.0050   -0.4286    0.0000 H   0  0  0  0  0  0  0  0  0  0  0  0
    2.1800    0.3964    0.0000 H   0  0  0  0  0  0  0  0  0  0  0  0
    1.3550   -0.4286    0.0000 H   0  0  0  0  0  0  0  0  0  0  0  0
    3.6089   -1.2536    0.0000 H   0  0  0  0  0  0  0  0  0  0  0  0
    1.4655   -4.1411    0.0000 H   0  0  0  0  0  0  0  0  0  0  0  0
    3.9109   -4.0305    0.0000 H   0  0  0  0  0  0  0  0  0  0  0  0
    5.0379   -3.7286    0.0000 H   0  0  0  0  0  0  0  0  0  0  0  0
    4.7359   -2.6016    0.0000 H   0  0  0  0  0  0  0  0  0  0  0  0
    4.6760   -1.6869    0.0000 H   0  0  0  0  0  0  0  0  0  0  0  0
    3.8079   -1.3922    0.0000 H   0  0  0  0  0  0  0  0  0  0  0  0
    3.2035   -2.0814    0.0000 H   0  0  0  0  0  0  0  0  0  0  0  0
    2.6942   -2.9635    0.0000 H   0  0  0  0  0  0  0  0  0  0  0  0
    2.3996   -3.8316    0.0000 H   0  0  0  0  0  0  0  0  0  0  0  0
    3.0888   -4.4360    0.0000 H   0  0  0  0  0  0  0  0  0  0  0  0
   -1.3924   -4.1411    0.0000 H   0  0  0  0  0  0  0  0  0  0  0  0
   -2.1068   -1.2536    0.0000 H   0  0  0  0  0  0  0  0  0  0  0  0
   -3.2338   -2.6016    0.0000 H   0  0  0  0  0  0  0  0  0  0  0  0
   -3.5358   -3.7286    0.0000 H   0  0  0  0  0  0  0  0  0  0  0  0
   -2.4088   -4.0305    0.0000 H   0  0  0  0  0  0  0  0  0  0  0  0
   -1.7014   -2.0814    0.0000 H   0  0  0  0  0  0  0  0  0  0  0  0
   -2.3058   -1.3922    0.0000 H   0  0  0  0  0  0  0  0  0  0  0  0
   -3.1738   -1.6869    0.0000 H   0  0  0  0  0  0  0  0  0  0  0  0
   -0.8819   -3.4748    0.0000 H   0  0  0  0  0  0  0  0  0  0  0  0
   -1.1640   -2.9861    0.0000 H   0  0  0  0  0  0  0  0  0  0  0  0
   -1.9078   -4.4149    0.0000 H   0  0  0  0  0  0  0  0  0  0  0  0
  1  2  1  0  0  0  0
  2  3  4  0  0  0  0
  3  4  4  0  0  0  0
  4  5  1  0  0  0  0
  5  6  1  0  0  0  0
  6  7  4  0  0  0  0
  7  8  4  0  0  0  0
  8  9  1  0  0  0  0
  8 10  4  0  0  0  0
 10 11  4  0  0  0  0
 11 12  4  0  0  0  0
  6 12  4  0  0  0  0
 12 13  1  0  0  0  0
 11 14  1  0  0  0  0
 14 15  1  0  0  0  0
 14 16  1  0  0  0  0
 14 17  1  0  0  0  0
  4 18  4  0  0  0  0
 18 19  1  0  0  0  0
 18 20  4  0  0  0  0
 20 21  4  0  0  0  0
  2 21  4  0  0  0  0
 20 22  1  0  0  0  0
 22 23  1  0  0  0  0
 22 24  1  0  0  0  0
 22 25  1  0  0  0  0
  1 26  1  0  0  0  0
  1 27  1  0  0  0  0
  1 28  1  0  0  0  0
  3 29  1  0  0  0  0
  5 30  1  0  0  0  0
  5 31  1  0  0  0  0
  7 32  1  0  0  0  0
  9 33  1  0  0  0  0
  9 34  1  0  0  0  0
  9 35  1  0  0  0  0
 10 36  1  0  0  0  0
 13 37  1  0  0  0  0
 15 38  1  0  0  0  0
 15 39  1  0  0  0  0
 15 40  1  0  0  0  0
 16 41  1  0  0  0  0
 16 42  1  0  0  0  0
 16 43  1  0  0  0  0
 17 44  1  0  0  0  0
 17 45  1  0  0  0  0
 17 46  1  0  0  0  0
 19 47  1  0  0  0  0
 21 48  1  0  0  0  0
 23 49  1  0  0  0  0
 23 50  1  0  0  0  0
 23 51  1  0  0  0  0
 24 52  1  0  0  0  0
 24 53  1  0  0  0  0
 24 54  1  0  0  0  0
 25 55  1  0  0  0  0
 25 56  1  0  0  0  0
 25 57  1  0  0  0  0
M  END
>  <InChIKey>
KGRVJHAUYBGFFP-UHFFFAOYSA-N

>  <UN GHS>
Non-irritant

>  <CASRN>
119-47-1

> <Outcome>
0

>  <Index>
382

>  <StandardizerResult>
Dearomatize (ID: Dearomatize)
Clear Stereo (ID: ClearStereo)
Wedge Clean (ID: WedgeClean)
Mesomerize (ID: Mesomerize)
Tautomerize (ID: Tautomerize)
Aromatize (ID: Aromatize)
Add Explicit Hydrogens (ID: AddExplicitH)
Neutralize (ID: Neutralize)
Clean 2D (ID: Clean2D)

> <knn Distance>
2.64575123786926

> <CpId>
382

$$$$
387
  Mrv1532301301811342D          

 18 18  0  0  0  0            999 V2000
   -0.0000    2.4750    0.0000 O   0  0  0  0  0  0  0  0  0  0  0  0
    0.7145    2.0625    0.0000 C   0  0  0  0  0  0  0  0  0  0  0  0
    1.4289    2.4750    0.0000 O   0  0  0  0  0  0  0  0  0  0  0  0
    0.7145    1.2375    0.0000 C   0  0  0  0  0  0  0  0  0  0  0  0
    1.4289    0.8250    0.0000 C   0  0  0  0  0  0  0  0  0  0  0  0
    1.4289    0.0000    0.0000 C   0  0  0  0  0  0  0  0  0  0  0  0
    0.7145   -0.4125    0.0000 C   0  0  0  0  0  0  0  0  0  0  0  0
   -0.0000    0.0000    0.0000 C   0  0  0  0  0  0  0  0  0  0  0  0
   -0.0000    0.8250    0.0000 C   0  0  0  0  0  0  0  0  0  0  0  0
    0.7145   -1.2375    0.0000 C   0  0  0  0  0  0  0  0  0  0  0  0
    1.4289   -1.6500    0.0000 O   0  0  0  0  0  0  0  0  0  0  0  0
   -0.0000   -1.6500    0.0000 O   0  0  0  0  0  0  0  0  0  0  0  0
   -0.0000    3.3000    0.0000 H   0  0  0  0  0  0  0  0  0  0  0  0
    2.1434    1.2375    0.0000 H   0  0  0  0  0  0  0  0  0  0  0  0
    2.1434   -0.4125    0.0000 H   0  0  0  0  0  0  0  0  0  0  0  0
   -0.7145   -0.4125    0.0000 H   0  0  0  0  0  0  0  0  0  0  0  0
   -0.7145    1.2375    0.0000 H   0  0  0  0  0  0  0  0  0  0  0  0
    1.4289   -2.4750    0.0000 H   0  0  0  0  0  0  0  0  0  0  0  0
  1  2  1  0  0  0  0
  2  3  2  0  0  0  0
  2  4  1  0  0  0  0
  4  5  4  0  0  0  0
  5  6  4  0  0  0  0
  6  7  4  0  0  0  0
  7  8  4  0  0  0  0
  8  9  4  0  0  0  0
  4  9  4  0  0  0  0
  7 10  1  0  0  0  0
 10 11  1  0  0  0  0
 10 12  2  0  0  0  0
  1 13  1  0  0  0  0
  5 14  1  0  0  0  0
  6 15  1  0  0  0  0
  8 16  1  0  0  0  0
  9 17  1  0  0  0  0
 11 18  1  0  0  0  0
M  END
>  <InChIKey>
KKEYFWRCBNTPAC-UHFFFAOYSA-N

>  <UN GHS>
Non-irritant

>  <CASRN>
100-21-0

> <Outcome>
0

>  <Index>
387

>  <StandardizerResult>
Dearomatize (ID: Dearomatize)
Clear Stereo (ID: ClearStereo)
Wedge Clean (ID: WedgeClean)
Mesomerize (ID: Mesomerize)
Tautomerize (ID: Tautomerize)
Aromatize (ID: Aromatize)
Add Explicit Hydrogens (ID: AddExplicitH)
Neutralize (ID: Neutralize)
Clean 2D (ID: Clean2D)

> <knn Distance>
2.64575123786926

> <CpId>
387

$$$$
397
  Mrv1532301301811342D          

 27 26  0  0  0  0            999 V2000
    3.3003    1.4284    0.0000 C   0  0  0  0  0  0  0  0  0  0  0  0
    2.4753    1.4284    0.0000 C   0  0  0  0  0  0  0  0  0  0  0  0
    2.0628    0.7139    0.0000 C   0  0  0  0  0  0  0  0  0  0  0  0
    1.2378    0.7139    0.0000 C   0  0  0  0  0  0  0  0  0  0  0  0
    0.8253   -0.0006    0.0000 C   0  0  0  0  0  0  0  0  0  0  0  0
    0.0003   -0.0006    0.0000 C   0  0  0  0  0  0  0  0  0  0  0  0
   -0.4122   -0.7150    0.0000 C   0  0  0  0  0  0  0  0  0  0  0  0
   -1.2372   -0.7150    0.0000 C   0  0  0  0  0  0  0  0  0  0  0  0
   -1.6497   -1.4295    0.0000 C   0  0  0  0  0  0  0  0  0  0  0  0
    3.3003    0.6034    0.0000 H   0  0  0  0  0  0  0  0  0  0  0  0
    4.1253    1.4284    0.0000 H   0  0  0  0  0  0  0  0  0  0  0  0
    3.3003    2.2534    0.0000 H   0  0  0  0  0  0  0  0  0  0  0  0
    2.4274    2.2520    0.0000 H   0  0  0  0  0  0  0  0  0  0  0  0
    1.7860    1.8817    0.0000 H   0  0  0  0  0  0  0  0  0  0  0  0
    2.1108   -0.1097    0.0000 H   0  0  0  0  0  0  0  0  0  0  0  0
    2.7521    0.2606    0.0000 H   0  0  0  0  0  0  0  0  0  0  0  0
    1.1899    1.5375    0.0000 H   0  0  0  0  0  0  0  0  0  0  0  0
    0.5485    1.1672    0.0000 H   0  0  0  0  0  0  0  0  0  0  0  0
    1.2378   -0.7150    0.0000 H   0  0  0  0  0  0  0  0  0  0  0  0
   -0.4122    0.7139    0.0000 H   0  0  0  0  0  0  0  0  0  0  0  0
   -0.3642   -1.5386    0.0000 H   0  0  0  0  0  0  0  0  0  0  0  0
    0.2771   -1.1684    0.0000 H   0  0  0  0  0  0  0  0  0  0  0  0
   -1.2851    0.1086    0.0000 H   0  0  0  0  0  0  0  0  0  0  0  0
   -1.9265   -0.2617    0.0000 H   0  0  0  0  0  0  0  0  0  0  0  0
   -2.3641   -1.0170    0.0000 H   0  0  0  0  0  0  0  0  0  0  0  0
   -2.0622   -2.1440    0.0000 H   0  0  0  0  0  0  0  0  0  0  0  0
   -0.9352   -1.8420    0.0000 H   0  0  0  0  0  0  0  0  0  0  0  0
  1  2  1  0  0  0  0
  2  3  1  0  0  0  0
  3  4  1  0  0  0  0
  5  4  1  4  0  0  0
  5  6  2  0  0  0  0
  6  7  1  0  0  0  0
  7  8  1  0  0  0  0
  8  9  1  0  0  0  0
  1 10  1  0  0  0  0
  1 11  1  0  0  0  0
  1 12  1  0  0  0  0
  2 13  1  0  0  0  0
  2 14  1  0  0  0  0
  3 15  1  0  0  0  0
  3 16  1  0  0  0  0
  4 17  1  0  0  0  0
  4 18  1  0  0  0  0
  5 19  1  0  0  0  0
  6 20  1  0  0  0  0
  7 21  1  0  0  0  0
  7 22  1  0  0  0  0
  8 23  1  0  0  0  0
  8 24  1  0  0  0  0
  9 25  1  0  0  0  0
  9 26  1  0  0  0  0
  9 27  1  0  0  0  0
M  END
>  <InChIKey>
KPADFPAILITQBG-UHFFFAOYSA-N

>  <UN GHS>
Non-irritant

>  <CASRN>
68526-55-6

> <Outcome>
0

>  <Index>
397

>  <StandardizerResult>
Clear Stereo (ID: ClearStereo)
Wedge Clean (ID: WedgeClean)
Mesomerize (ID: Mesomerize)
Tautomerize (ID: Tautomerize)
Add Explicit Hydrogens (ID: AddExplicitH)
Neutralize (ID: Neutralize)
Clean 2D (ID: Clean2D)

> <knn Distance>
2.64575123786926

> <CpId>
397

$$$$
411
  Mrv1532301301811342D          

 24 23  0  0  0  0            999 V2000
    1.0461    1.4282    0.0000 C   0  0  0  0  0  0  0  0  0  0  0  0
    1.7605    1.8407    0.0000 C   0  0  0  0  0  0  0  0  0  0  0  0
    2.4750    1.4282    0.0000 C   0  0  0  0  0  0  0  0  0  0  0  0
    3.1895    1.8407    0.0000 C   0  0  0  0  0  0  0  0  0  0  0  0
    3.9039    1.4282    0.0000 C   0  0  0  0  0  0  0  0  0  0  0  0
    4.6184    1.8407    0.0000 C   0  0  0  0  0  0  0  0  0  0  0  0
    5.3329    1.4282    0.0000 C   0  0  0  0  0  0  0  0  0  0  0  0
    6.0474    1.8407    0.0000 C   0  0  0  0  0  0  0  0  0  0  0  0
    0.6336    2.1426    0.0000 H   0  0  0  0  0  0  0  0  0  0  0  0
    0.3316    1.0157    0.0000 H   0  0  0  0  0  0  0  0  0  0  0  0
    1.4586    0.7137    0.0000 H   0  0  0  0  0  0  0  0  0  0  0  0
    2.1308    2.5779    0.0000 H   0  0  0  0  0  0  0  0  0  0  0  0
    1.3903    2.5779    0.0000 H   0  0  0  0  0  0  0  0  0  0  0  0
    2.1047    0.6909    0.0000 H   0  0  0  0  0  0  0  0  0  0  0  0
    2.8453    0.6909    0.0000 H   0  0  0  0  0  0  0  0  0  0  0  0
    3.5597    2.5779    0.0000 H   0  0  0  0  0  0  0  0  0  0  0  0
    2.8192    2.5779    0.0000 H   0  0  0  0  0  0  0  0  0  0  0  0
    3.5337    0.6909    0.0000 H   0  0  0  0  0  0  0  0  0  0  0  0
    4.2742    0.6909    0.0000 H   0  0  0  0  0  0  0  0  0  0  0  0
    4.9887    2.5779    0.0000 H   0  0  0  0  0  0  0  0  0  0  0  0
    4.2482    2.5779    0.0000 H   0  0  0  0  0  0  0  0  0  0  0  0
    5.3329    0.6032    0.0000 H   0  0  0  0  0  0  0  0  0  0  0  0
    6.7618    1.4282    0.0000 H   0  0  0  0  0  0  0  0  0  0  0  0
    6.0474    2.6657    0.0000 H   0  0  0  0  0  0  0  0  0  0  0  0
  1  2  1  0  0  0  0
  2  3  1  0  0  0  0
  3  4  1  0  0  0  0
  4  5  1  0  0  0  0
  5  6  1  0  0  0  0
  6  7  1  0  0  0  0
  7  8  2  0  0  0  0
  1  9  1  0  0  0  0
  1 10  1  0  0  0  0
  1 11  1  0  0  0  0
  2 12  1  0  0  0  0
  2 13  1  0  0  0  0
  3 14  1  0  0  0  0
  3 15  1  0  0  0  0
  4 16  1  0  0  0  0
  4 17  1  0  0  0  0
  5 18  1  0  0  0  0
  5 19  1  0  0  0  0
  6 20  1  0  0  0  0
  6 21  1  0  0  0  0
  7 22  1  0  0  0  0
  8 23  1  0  0  0  0
  8 24  1  0  0  0  0
M  END
>  <InChIKey>
KWKAKUADMBZCLK-UHFFFAOYSA-N

>  <UN GHS>
Non-irritant

>  <CASRN>
111-66-0

> <Outcome>
0

>  <Index>
411

>  <StandardizerResult>
Clear Stereo (ID: ClearStereo)
Wedge Clean (ID: WedgeClean)
Mesomerize (ID: Mesomerize)
Tautomerize (ID: Tautomerize)
Add Explicit Hydrogens (ID: AddExplicitH)
Neutralize (ID: Neutralize)
Clean 2D (ID: Clean2D)

> <knn Distance>
2.64575123786926

> <CpId>
411

$$$$
412
  Mrv1532301301811342D          

 17 17  0  0  0  0            999 V2000
   -0.0000    2.4750    0.0000 C   0  0  0  0  0  0  0  0  0  0  0  0
    0.7145    2.0625    0.0000 C   0  0  0  0  0  0  0  0  0  0  0  0
    1.4289    2.4750    0.0000 O   0  0  0  0  0  0  0  0  0  0  0  0
    0.7145    1.2375    0.0000 C   0  0  0  0  0  0  0  0  0  0  0  0
    1.4289    0.8250    0.0000 C   0  0  0  0  0  0  0  0  0  0  0  0
    1.4289   -0.0000    0.0000 C   0  0  0  0  0  0  0  0  0  0  0  0
    0.7145   -0.4125    0.0000 C   0  0  0  0  0  0  0  0  0  0  0  0
   -0.0000   -0.0000    0.0000 C   0  0  0  0  0  0  0  0  0  0  0  0
   -0.0000    0.8250    0.0000 C   0  0  0  0  0  0  0  0  0  0  0  0
    0.4125    3.1895    0.0000 H   0  0  0  0  0  0  0  0  0  0  0  0
   -0.7145    2.8875    0.0000 H   0  0  0  0  0  0  0  0  0  0  0  0
   -0.4125    1.7605    0.0000 H   0  0  0  0  0  0  0  0  0  0  0  0
    2.1434    1.2375    0.0000 H   0  0  0  0  0  0  0  0  0  0  0  0
    2.1434   -0.4125    0.0000 H   0  0  0  0  0  0  0  0  0  0  0  0
    0.7145   -1.2375    0.0000 H   0  0  0  0  0  0  0  0  0  0  0  0
   -0.7145   -0.4125    0.0000 H   0  0  0  0  0  0  0  0  0  0  0  0
   -0.7145    1.2375    0.0000 H   0  0  0  0  0  0  0  0  0  0  0  0
  1  2  1  0  0  0  0
  2  3  2  0  0  0  0
  2  4  1  0  0  0  0
  4  5  4  0  0  0  0
  5  6  4  0  0  0  0
  6  7  4  0  0  0  0
  7  8  4  0  0  0  0
  8  9  4  0  0  0  0
  4  9  4  0  0  0  0
  1 10  1  0  0  0  0
  1 11  1  0  0  0  0
  1 12  1  0  0  0  0
  5 13  1  0  0  0  0
  6 14  1  0  0  0  0
  7 15  1  0  0  0  0
  8 16  1  0  0  0  0
  9 17  1  0  0  0  0
M  END
>  <InChIKey>
KWOLFJPFCHCOCG-UHFFFAOYSA-N

>  <UN GHS>
Non-irritant

>  <CASRN>
98-86-2

> <Outcome>
0

>  <Index>
412

>  <StandardizerResult>
Dearomatize (ID: Dearomatize)
Clear Stereo (ID: ClearStereo)
Wedge Clean (ID: WedgeClean)
Mesomerize (ID: Mesomerize)
Tautomerize (ID: Tautomerize)
Aromatize (ID: Aromatize)
Add Explicit Hydrogens (ID: AddExplicitH)
Neutralize (ID: Neutralize)
Clean 2D (ID: Clean2D)

> <knn Distance>
2.64575123786926

> <CpId>
412

$$$$
427
  Mrv1532301301811342D          

  9  8  0  0  0  0            999 V2000
    2.1238   -1.5527    0.0000 C   0  0  0  0  0  0  0  0  0  0  0  0
    1.7113   -0.8382    0.0000 C   0  0  0  0  0  0  0  0  0  0  0  0
    0.8863   -0.8382    0.0000 O   0  0  0  0  0  0  0  0  0  0  0  0
    1.4093   -1.9652    0.0000 H   0  0  0  0  0  0  0  0  0  0  0  0
    2.5363   -2.2672    0.0000 H   0  0  0  0  0  0  0  0  0  0  0  0
    2.8383   -1.1402    0.0000 H   0  0  0  0  0  0  0  0  0  0  0  0
    2.4006   -0.3849    0.0000 H   0  0  0  0  0  0  0  0  0  0  0  0
    1.7593   -0.0146    0.0000 H   0  0  0  0  0  0  0  0  0  0  0  0
    0.4738   -0.1237    0.0000 H   0  0  0  0  0  0  0  0  0  0  0  0
  1  2  1  0  0  0  0
  2  3  1  0  0  0  0
  1  4  1  0  0  0  0
  1  5  1  0  0  0  0
  1  6  1  0  0  0  0
  2  7  1  0  0  0  0
  2  8  1  0  0  0  0
  3  9  1  0  0  0  0
M  END
>  <InChIKey>
LFQSCWFLJHTTHZ-UHFFFAOYSA-N

>  <UN GHS>
Non-irritant

>  <CASRN>
64-17-5

> <Outcome>
0

>  <Index>
427

>  <StandardizerResult>
Mesomerize (ID: Mesomerize)
Tautomerize (ID: Tautomerize)
Add Explicit Hydrogens (ID: AddExplicitH)
Neutralize (ID: Neutralize)
Clean 2D (ID: Clean2D)

> <knn Distance>
2.64575123786926

> <CpId>
427

$$$$
431
  Mrv1532301301811342D          

 18 17  0  0  0  0            999 V2000
   -0.1914    0.7135    0.0000 C   0  0  0  0  0  0  0  0  0  0  0  0
    0.5230    1.1260    0.0000 C   0  0  0  0  0  0  0  0  0  0  0  0
    1.2375    0.7135    0.0000 C   0  0  0  0  0  0  0  0  0  0  0  0
    1.9520    1.1260    0.0000 C   0  0  0  0  0  0  0  0  0  0  0  0
    2.6664    0.7135    0.0000 C   0  0  0  0  0  0  0  0  0  0  0  0
    3.3809    1.1260    0.0000 C   0  0  0  0  0  0  0  0  0  0  0  0
   -0.6039    1.4280    0.0000 H   0  0  0  0  0  0  0  0  0  0  0  0
   -0.9059    0.3010    0.0000 H   0  0  0  0  0  0  0  0  0  0  0  0
    0.2211   -0.0010    0.0000 H   0  0  0  0  0  0  0  0  0  0  0  0
    0.8933    1.8633    0.0000 H   0  0  0  0  0  0  0  0  0  0  0  0
    0.1528    1.8633    0.0000 H   0  0  0  0  0  0  0  0  0  0  0  0
    0.8672   -0.0237    0.0000 H   0  0  0  0  0  0  0  0  0  0  0  0
    1.6078   -0.0237    0.0000 H   0  0  0  0  0  0  0  0  0  0  0  0
    2.3222    1.8633    0.0000 H   0  0  0  0  0  0  0  0  0  0  0  0
    1.5817    1.8633    0.0000 H   0  0  0  0  0  0  0  0  0  0  0  0
    2.6664   -0.1115    0.0000 H   0  0  0  0  0  0  0  0  0  0  0  0
    4.0954    0.7135    0.0000 H   0  0  0  0  0  0  0  0  0  0  0  0
    3.3809    1.9510    0.0000 H   0  0  0  0  0  0  0  0  0  0  0  0
  1  2  1  0  0  0  0
  2  3  1  0  0  0  0
  3  4  1  0  0  0  0
  4  5  1  0  0  0  0
  5  6  2  0  0  0  0
  1  7  1  0  0  0  0
  1  8  1  0  0  0  0
  1  9  1  0  0  0  0
  2 10  1  0  0  0  0
  2 11  1  0  0  0  0
  3 12  1  0  0  0  0
  3 13  1  0  0  0  0
  4 14  1  0  0  0  0
  4 15  1  0  0  0  0
  5 16  1  0  0  0  0
  6 17  1  0  0  0  0
  6 18  1  0  0  0  0
M  END
>  <InChIKey>
LIKMAJRDDDTEIG-UHFFFAOYSA-N

>  <UN GHS>
Non-irritant

>  <CASRN>
592-41-6

> <Outcome>
0

>  <Index>
431

>  <StandardizerResult>
Clear Stereo (ID: ClearStereo)
Wedge Clean (ID: WedgeClean)
Mesomerize (ID: Mesomerize)
Tautomerize (ID: Tautomerize)
Add Explicit Hydrogens (ID: AddExplicitH)
Neutralize (ID: Neutralize)
Clean 2D (ID: Clean2D)

> <knn Distance>
2.64575123786926

> <CpId>
431

$$$$
452
  Mrv1532301301811342D          

 24 25  0  0  0  0            999 V2000
    2.0934   -0.4019    0.0000 F   0  0  0  0  0  0  0  0  0  0  0  0
    2.0934   -1.2269    0.0000 C   0  0  0  0  0  0  0  0  0  0  0  0
    2.8079   -1.6394    0.0000 C   0  0  0  0  0  0  0  0  0  0  0  0
    2.8079   -2.4644    0.0000 C   0  0  0  0  0  0  0  0  0  0  0  0
    2.0934   -2.8769    0.0000 C   0  0  0  0  0  0  0  0  0  0  0  0
    1.3790   -2.4644    0.0000 C   0  0  0  0  0  0  0  0  0  0  0  0
    1.3790   -1.6394    0.0000 C   0  0  0  0  0  0  0  0  0  0  0  0
    2.0934   -3.7019    0.0000 C   0  0  0  0  0  0  0  0  0  0  0  0
    2.8079   -4.1144    0.0000 O   0  0  0  0  0  0  0  0  0  0  0  0
    1.3790   -4.1144    0.0000 C   0  0  0  0  0  0  0  0  0  0  0  0
    1.3790   -4.9394    0.0000 C   0  0  0  0  0  0  0  0  0  0  0  0
    0.6645   -5.3519    0.0000 C   0  0  0  0  0  0  0  0  0  0  0  0
   -0.0500   -4.9394    0.0000 C   0  0  0  0  0  0  0  0  0  0  0  0
   -0.7645   -5.3519    0.0000 F   0  0  0  0  0  0  0  0  0  0  0  0
   -0.0500   -4.1144    0.0000 C   0  0  0  0  0  0  0  0  0  0  0  0
    0.6645   -3.7019    0.0000 C   0  0  0  0  0  0  0  0  0  0  0  0
    3.5224   -1.2269    0.0000 H   0  0  0  0  0  0  0  0  0  0  0  0
    3.5224   -2.8769    0.0000 H   0  0  0  0  0  0  0  0  0  0  0  0
    0.6645   -2.8769    0.0000 H   0  0  0  0  0  0  0  0  0  0  0  0
    0.6645   -1.2269    0.0000 H   0  0  0  0  0  0  0  0  0  0  0  0
    2.0934   -5.3519    0.0000 H   0  0  0  0  0  0  0  0  0  0  0  0
    0.6645   -6.1769    0.0000 H   0  0  0  0  0  0  0  0  0  0  0  0
   -0.7645   -3.7019    0.0000 H   0  0  0  0  0  0  0  0  0  0  0  0
    1.3790   -3.2894    0.0000 H   0  0  0  0  0  0  0  0  0  0  0  0
  1  2  1  0  0  0  0
  2  3  4  0  0  0  0
  3  4  4  0  0  0  0
  4  5  4  0  0  0  0
  5  6  4  0  0  0  0
  6  7  4  0  0  0  0
  2  7  4  0  0  0  0
  5  8  1  0  0  0  0
  8  9  2  0  0  0  0
  8 10  1  0  0  0  0
 10 11  4  0  0  0  0
 11 12  4  0  0  0  0
 12 13  4  0  0  0  0
 13 14  1  0  0  0  0
 13 15  4  0  0  0  0
 15 16  4  0  0  0  0
 10 16  4  0  0  0  0
  3 17  1  0  0  0  0
  4 18  1  0  0  0  0
  6 19  1  0  0  0  0
  7 20  1  0  0  0  0
 11 21  1  0  0  0  0
 12 22  1  0  0  0  0
 15 23  1  0  0  0  0
 16 24  1  0  0  0  0
M  END
>  <InChIKey>
LSQARZALBDFYQZ-UHFFFAOYSA-N

>  <UN GHS>
Non-irritant

>  <CASRN>
345-92-6

> <Outcome>
0

>  <Index>
452

>  <StandardizerResult>
Dearomatize (ID: Dearomatize)
Clear Stereo (ID: ClearStereo)
Wedge Clean (ID: WedgeClean)
Mesomerize (ID: Mesomerize)
Tautomerize (ID: Tautomerize)
Aromatize (ID: Aromatize)
Add Explicit Hydrogens (ID: AddExplicitH)
Neutralize (ID: Neutralize)
Clean 2D (ID: Clean2D)

> <knn Distance>
2.64575123786926

> <CpId>
452

$$$$
453
  Mrv1532301301811342D          

 28 27  0  0  0  0            999 V2000
    0.1105   -2.8875    0.0000 C   0  0  0  0  0  0  0  0  0  0  0  0
    0.1105   -2.0625    0.0000 C   0  0  0  0  0  0  0  0  0  0  0  0
    0.9355   -2.0625    0.0000 C   0  0  0  0  0  0  0  0  0  0  0  0
   -0.7145   -2.0625    0.0000 C   0  0  0  0  0  0  0  0  0  0  0  0
    0.1105   -1.2375    0.0000 O   0  0  0  0  0  0  0  0  0  0  0  0
    0.8250   -0.8250    0.0000 O   0  0  0  0  0  0  0  0  0  0  0  0
    0.8250   -0.0000    0.0000 C   0  0  0  0  0  0  0  0  0  0  0  0
    0.8250    0.8250    0.0000 C   0  0  0  0  0  0  0  0  0  0  0  0
    1.6500   -0.0000    0.0000 C   0  0  0  0  0  0  0  0  0  0  0  0
   -0.0000   -0.0000    0.0000 C   0  0  0  0  0  0  0  0  0  0  0  0
   -0.7145   -2.8875    0.0000 H   0  0  0  0  0  0  0  0  0  0  0  0
    0.1105   -3.7125    0.0000 H   0  0  0  0  0  0  0  0  0  0  0  0
    0.9355   -2.8875    0.0000 H   0  0  0  0  0  0  0  0  0  0  0  0
    1.6977   -2.3782    0.0000 H   0  0  0  0  0  0  0  0  0  0  0  0
    1.5189   -1.4791    0.0000 H   0  0  0  0  0  0  0  0  0  0  0  0
    0.6198   -1.3003    0.0000 H   0  0  0  0  0  0  0  0  0  0  0  0
   -0.3988   -1.3003    0.0000 H   0  0  0  0  0  0  0  0  0  0  0  0
   -1.2978   -1.4791    0.0000 H   0  0  0  0  0  0  0  0  0  0  0  0
   -1.4767   -2.3782    0.0000 H   0  0  0  0  0  0  0  0  0  0  0  0
    1.6500    0.8250    0.0000 H   0  0  0  0  0  0  0  0  0  0  0  0
    0.8250    1.6500    0.0000 H   0  0  0  0  0  0  0  0  0  0  0  0
   -0.0000    0.8250    0.0000 H   0  0  0  0  0  0  0  0  0  0  0  0
    1.3343   -0.7622    0.0000 H   0  0  0  0  0  0  0  0  0  0  0  0
    2.2333   -0.5834    0.0000 H   0  0  0  0  0  0  0  0  0  0  0  0
    2.4122    0.3157    0.0000 H   0  0  0  0  0  0  0  0  0  0  0  0
   -0.7622    0.3157    0.0000 H   0  0  0  0  0  0  0  0  0  0  0  0
   -0.5834   -0.5834    0.0000 H   0  0  0  0  0  0  0  0  0  0  0  0
    0.3157   -0.7622    0.0000 H   0  0  0  0  0  0  0  0  0  0  0  0
  1  2  1  0  0  0  0
  2  3  1  0  0  0  0
  2  4  1  0  0  0  0
  2  5  1  0  0  0  0
  5  6  1  0  0  0  0
  6  7  1  0  0  0  0
  7  8  1  0  0  0  0
  7  9  1  0  0  0  0
  7 10  1  0  0  0  0
  1 11  1  0  0  0  0
  1 12  1  0  0  0  0
  1 13  1  0  0  0  0
  3 14  1  0  0  0  0
  3 15  1  0  0  0  0
  3 16  1  0  0  0  0
  4 17  1  0  0  0  0
  4 18  1  0  0  0  0
  4 19  1  0  0  0  0
  8 20  1  0  0  0  0
  8 21  1  0  0  0  0
  8 22  1  0  0  0  0
  9 23  1  0  0  0  0
  9 24  1  0  0  0  0
  9 25  1  0  0  0  0
 10 26  1  0  0  0  0
 10 27  1  0  0  0  0
 10 28  1  0  0  0  0
M  END
>  <InChIKey>
LSXWFXONGKSEMY-UHFFFAOYSA-N

>  <UN GHS>
Non-irritant

>  <CASRN>
110-05-4

> <Outcome>
0

>  <Index>
453

>  <StandardizerResult>
Clear Stereo (ID: ClearStereo)
Wedge Clean (ID: WedgeClean)
Mesomerize (ID: Mesomerize)
Tautomerize (ID: Tautomerize)
Add Explicit Hydrogens (ID: AddExplicitH)
Neutralize (ID: Neutralize)
Clean 2D (ID: Clean2D)

> <knn Distance>
2.64575123786926

> <CpId>
453

$$$$
479
  Mrv1532301301811342D          

 15 14  0  0  0  0            999 V2000
    0.8238    1.4289    0.0000 C   0  0  0  0  0  0  0  0  0  0  0  0
    1.2363    0.7145    0.0000 C   0  0  0  0  0  0  0  0  0  0  0  0
    0.8238   -0.0000    0.0000 C   0  0  0  0  0  0  0  0  0  0  0  0
    1.2363   -0.7145    0.0000 C   0  0  0  0  0  0  0  0  0  0  0  0
   -0.0012   -0.0000    0.0000 C   0  0  0  0  0  0  0  0  0  0  0  0
    1.5383    1.8414    0.0000 H   0  0  0  0  0  0  0  0  0  0  0  0
    0.4113    2.1434    0.0000 H   0  0  0  0  0  0  0  0  0  0  0  0
    0.1094    1.0164    0.0000 H   0  0  0  0  0  0  0  0  0  0  0  0
    1.9736    0.3442    0.0000 H   0  0  0  0  0  0  0  0  0  0  0  0
    1.9736    1.0847    0.0000 H   0  0  0  0  0  0  0  0  0  0  0  0
    0.5219   -1.1270    0.0000 H   0  0  0  0  0  0  0  0  0  0  0  0
    1.6488   -1.4290    0.0000 H   0  0  0  0  0  0  0  0  0  0  0  0
    1.9508   -0.3020    0.0000 H   0  0  0  0  0  0  0  0  0  0  0  0
   -0.4137    0.7145    0.0000 H   0  0  0  0  0  0  0  0  0  0  0  0
   -0.4137   -0.7145    0.0000 H   0  0  0  0  0  0  0  0  0  0  0  0
  1  2  1  0  0  0  0
  2  3  1  0  0  0  0
  3  4  1  0  0  0  0
  3  5  2  0  0  0  0
  1  6  1  0  0  0  0
  1  7  1  0  0  0  0
  1  8  1  0  0  0  0
  2  9  1  0  0  0  0
  2 10  1  0  0  0  0
  4 11  1  0  0  0  0
  4 12  1  0  0  0  0
  4 13  1  0  0  0  0
  5 14  1  0  0  0  0
  5 15  1  0  0  0  0
M  END
>  <InChIKey>
MHNNAWXXUZQSNM-UHFFFAOYSA-N

>  <UN GHS>
Non-irritant

>  <CASRN>
26760-64-5

> <Outcome>
0

>  <Index>
479

>  <StandardizerResult>
Clear Stereo (ID: ClearStereo)
Wedge Clean (ID: WedgeClean)
Mesomerize (ID: Mesomerize)
Tautomerize (ID: Tautomerize)
Add Explicit Hydrogens (ID: AddExplicitH)
Neutralize (ID: Neutralize)
Clean 2D (ID: Clean2D)

> <knn Distance>
2.64575123786926

> <CpId>
479

$$$$
487
  Mrv1532301301811342D          

 23 22  0  0  0  0            999 V2000
    1.0461    1.4281    0.0000 C   0  0  0  0  0  0  0  0  0  0  0  0
    1.7605    1.8406    0.0000 C   0  0  0  0  0  0  0  0  0  0  0  0
    2.4750    1.4281    0.0000 C   0  0  0  0  0  0  0  0  0  0  0  0
    3.1895    1.8406    0.0000 C   0  0  0  0  0  0  0  0  0  0  0  0
    3.9039    1.4281    0.0000 C   0  0  0  0  0  0  0  0  0  0  0  0
    4.6184    1.8406    0.0000 C   0  0  0  0  0  0  0  0  0  0  0  0
    5.3329    1.4281    0.0000 C   0  0  0  0  0  0  0  0  0  0  0  0
    6.0474    1.8406    0.0000 O   0  0  0  0  0  0  0  0  0  0  0  0
    5.3329    0.6031    0.0000 O   0  0  0  0  0  0  0  0  0  0  0  0
    0.6336    2.1426    0.0000 H   0  0  0  0  0  0  0  0  0  0  0  0
    0.3316    1.0156    0.0000 H   0  0  0  0  0  0  0  0  0  0  0  0
    1.4586    0.7137    0.0000 H   0  0  0  0  0  0  0  0  0  0  0  0
    2.1308    2.5779    0.0000 H   0  0  0  0  0  0  0  0  0  0  0  0
    1.3903    2.5779    0.0000 H   0  0  0  0  0  0  0  0  0  0  0  0
    2.1047    0.6909    0.0000 H   0  0  0  0  0  0  0  0  0  0  0  0
    2.8453    0.6909    0.0000 H   0  0  0  0  0  0  0  0  0  0  0  0
    3.5597    2.5779    0.0000 H   0  0  0  0  0  0  0  0  0  0  0  0
    2.8192    2.5779    0.0000 H   0  0  0  0  0  0  0  0  0  0  0  0
    3.5337    0.6909    0.0000 H   0  0  0  0  0  0  0  0  0  0  0  0
    4.2742    0.6909    0.0000 H   0  0  0  0  0  0  0  0  0  0  0  0
    4.9887    2.5779    0.0000 H   0  0  0  0  0  0  0  0  0  0  0  0
    4.2482    2.5779    0.0000 H   0  0  0  0  0  0  0  0  0  0  0  0
    6.7618    1.4281    0.0000 H   0  0  0  0  0  0  0  0  0  0  0  0
  1  2  1  0  0  0  0
  2  3  1  0  0  0  0
  3  4  1  0  0  0  0
  4  5  1  0  0  0  0
  5  6  1  0  0  0  0
  6  7  1  0  0  0  0
  7  8  1  0  0  0  0
  7  9  2  0  0  0  0
  1 10  1  0  0  0  0
  1 11  1  0  0  0  0
  1 12  1  0  0  0  0
  2 13  1  0  0  0  0
  2 14  1  0  0  0  0
  3 15  1  0  0  0  0
  3 16  1  0  0  0  0
  4 17  1  0  0  0  0
  4 18  1  0  0  0  0
  5 19  1  0  0  0  0
  5 20  1  0  0  0  0
  6 21  1  0  0  0  0
  6 22  1  0  0  0  0
  8 23  1  0  0  0  0
M  END
>  <InChIKey>
MNWFXJYAOYHMED-UHFFFAOYSA-N

>  <UN GHS>
Non-irritant

>  <CASRN>
68855-18-5

> <Outcome>
0

>  <Index>
487

>  <StandardizerResult>
Clear Stereo (ID: ClearStereo)
Wedge Clean (ID: WedgeClean)
Mesomerize (ID: Mesomerize)
Tautomerize (ID: Tautomerize)
Add Explicit Hydrogens (ID: AddExplicitH)
Neutralize (ID: Neutralize)
Clean 2D (ID: Clean2D)

> <knn Distance>
2.64575123786926

> <CpId>
487

$$$$
512
  Mrv1532301301811342D          

 65 64  0  0  0  0            999 V2000
    8.3787    5.7270    0.0000 C   0  0  0  0  0  0  0  0  0  0  0  0
    9.0932    6.1395    0.0000 C   0  0  0  0  0  0  0  0  0  0  0  0
    9.0932    6.9645    0.0000 C   0  0  0  0  0  0  0  0  0  0  0  0
    9.8077    5.7270    0.0000 C   0  0  0  0  0  0  0  0  0  0  0  0
   10.5221    6.1395    0.0000 C   0  0  0  0  0  0  0  0  0  0  0  0
   11.2366    5.7270    0.0000 C   0  0  0  0  0  0  0  0  0  0  0  0
   11.9511    6.1395    0.0000 C   0  0  0  0  0  0  0  0  0  0  0  0
   12.6655    5.7270    0.0000 C   0  0  0  0  0  0  0  0  0  0  0  0
   13.3800    6.1395    0.0000 C   0  0  0  0  0  0  0  0  0  0  0  0
   14.0945    5.7270    0.0000 C   0  0  0  0  0  0  0  0  0  0  0  0
   14.8090    6.1395    0.0000 C   0  0  0  0  0  0  0  0  0  0  0  0
   15.5234    5.7270    0.0000 C   0  0  0  0  0  0  0  0  0  0  0  0
   16.2379    6.1395    0.0000 C   0  0  0  0  0  0  0  0  0  0  0  0
   16.9524    5.7270    0.0000 C   0  0  0  0  0  0  0  0  0  0  0  0
   17.6668    6.1395    0.0000 C   0  0  0  0  0  0  0  0  0  0  0  0
   18.3813    5.7270    0.0000 C   0  0  0  0  0  0  0  0  0  0  0  0
   19.0958    6.1395    0.0000 C   0  0  0  0  0  0  0  0  0  0  0  0
   19.8103    5.7270    0.0000 C   0  0  0  0  0  0  0  0  0  0  0  0
   19.8103    4.9020    0.0000 O   0  0  0  0  0  0  0  0  0  0  0  0
   20.5247    6.1395    0.0000 O   0  0  0  0  0  0  0  0  0  0  0  0
   21.2392    5.7270    0.0000 C   0  0  0  0  0  0  0  0  0  0  0  0
   21.9537    6.1395    0.0000 C   0  0  0  0  0  0  0  0  0  0  0  0
   21.2392    4.9020    0.0000 C   0  0  0  0  0  0  0  0  0  0  0  0
    7.9662    6.4415    0.0000 H   0  0  0  0  0  0  0  0  0  0  0  0
    7.6643    5.3145    0.0000 H   0  0  0  0  0  0  0  0  0  0  0  0
    8.7912    5.0126    0.0000 H   0  0  0  0  0  0  0  0  0  0  0  0
    8.3787    6.5520    0.0000 H   0  0  0  0  0  0  0  0  0  0  0  0
    9.8901    6.7510    0.0000 H   0  0  0  0  0  0  0  0  0  0  0  0
    9.5057    7.6790    0.0000 H   0  0  0  0  0  0  0  0  0  0  0  0
    8.5098    7.5479    0.0000 H   0  0  0  0  0  0  0  0  0  0  0  0
    9.4374    4.9898    0.0000 H   0  0  0  0  0  0  0  0  0  0  0  0
   10.1779    4.9898    0.0000 H   0  0  0  0  0  0  0  0  0  0  0  0
   11.0189    6.7982    0.0000 H   0  0  0  0  0  0  0  0  0  0  0  0
   10.5221    5.3145    0.0000 H   0  0  0  0  0  0  0  0  0  0  0  0
   11.3799    4.9146    0.0000 H   0  0  0  0  0  0  0  0  0  0  0  0
   11.8686    5.1967    0.0000 H   0  0  0  0  0  0  0  0  0  0  0  0
   12.3213    6.8768    0.0000 H   0  0  0  0  0  0  0  0  0  0  0  0
   11.5808    6.8768    0.0000 H   0  0  0  0  0  0  0  0  0  0  0  0
   12.7005    4.9028    0.0000 H   0  0  0  0  0  0  0  0  0  0  0  0
   13.3886    5.3298    0.0000 H   0  0  0  0  0  0  0  0  0  0  0  0
   13.7503    6.8768    0.0000 H   0  0  0  0  0  0  0  0  0  0  0  0
   13.0098    6.8768    0.0000 H   0  0  0  0  0  0  0  0  0  0  0  0
   14.2323    4.9136    0.0000 H   0  0  0  0  0  0  0  0  0  0  0  0
   14.7242    5.1940    0.0000 H   0  0  0  0  0  0  0  0  0  0  0  0
   15.1792    6.8768    0.0000 H   0  0  0  0  0  0  0  0  0  0  0  0
   14.4387    6.8768    0.0000 H   0  0  0  0  0  0  0  0  0  0  0  0
   15.5589    4.9028    0.0000 H   0  0  0  0  0  0  0  0  0  0  0  0
   16.2466    5.3300    0.0000 H   0  0  0  0  0  0  0  0  0  0  0  0
   16.6082    6.8768    0.0000 H   0  0  0  0  0  0  0  0  0  0  0  0
   15.8676    6.8768    0.0000 H   0  0  0  0  0  0  0  0  0  0  0  0
   17.0901    4.9136    0.0000 H   0  0  0  0  0  0  0  0  0  0  0  0
   17.5821    5.1940    0.0000 H   0  0  0  0  0  0  0  0  0  0  0  0
   18.0371    6.8768    0.0000 H   0  0  0  0  0  0  0  0  0  0  0  0
   17.2966    6.8768    0.0000 H   0  0  0  0  0  0  0  0  0  0  0  0
   18.4168    4.9028    0.0000 H   0  0  0  0  0  0  0  0  0  0  0  0
   19.1045    5.3300    0.0000 H   0  0  0  0  0  0  0  0  0  0  0  0
   19.4660    6.8768    0.0000 H   0  0  0  0  0  0  0  0  0  0  0  0
   18.7255    6.8768    0.0000 H   0  0  0  0  0  0  0  0  0  0  0  0
   21.2392    6.5520    0.0000 H   0  0  0  0  0  0  0  0  0  0  0  0
   22.1672    5.3427    0.0000 H   0  0  0  0  0  0  0  0  0  0  0  0
   22.7787    6.1395    0.0000 H   0  0  0  0  0  0  0  0  0  0  0  0
   22.1672    6.9364    0.0000 H   0  0  0  0  0  0  0  0  0  0  0  0
   20.4142    4.9020    0.0000 H   0  0  0  0  0  0  0  0  0  0  0  0
   21.2392    4.0770    0.0000 H   0  0  0  0  0  0  0  0  0  0  0  0
   22.0642    4.9020    0.0000 H   0  0  0  0  0  0  0  0  0  0  0  0
  1  2  1  0  0  0  0
  2  3  1  0  0  0  0
  2  4  1  0  0  0  0
  4  5  1  0  0  0  0
  5  6  1  0  0  0  0
  6  7  1  0  0  0  0
  7  8  1  0  0  0  0
  8  9  1  0  0  0  0
  9 10  1  0  0  0  0
 10 11  1  0  0  0  0
 11 12  1  0  0  0  0
 12 13  1  0  0  0  0
 13 14  1  0  0  0  0
 14 15  1  0  0  0  0
 15 16  1  0  0  0  0
 16 17  1  0  0  0  0
 17 18  1  0  0  0  0
 18 19  2  0  0  0  0
 18 20  1  0  0  0  0
 20 21  1  0  0  0  0
 21 22  1  0  0  0  0
 21 23  1  0  0  0  0
  1 24  1  0  0  0  0
  1 25  1  0  0  0  0
  1 26  1  0  0  0  0
  2 27  1  0  0  0  0
  3 28  1  0  0  0  0
  3 29  1  0  0  0  0
  3 30  1  0  0  0  0
  4 31  1  0  0  0  0
  4 32  1  0  0  0  0
  5 33  1  0  0  0  0
  5 34  1  0  0  0  0
  6 35  1  0  0  0  0
  6 36  1  0  0  0  0
  7 37  1  0  0  0  0
  7 38  1  0  0  0  0
  8 39  1  0  0  0  0
  8 40  1  0  0  0  0
  9 41  1  0  0  0  0
  9 42  1  0  0  0  0
 10 43  1  0  0  0  0
 10 44  1  0  0  0  0
 11 45  1  0  0  0  0
 11 46  1  0  0  0  0
 12 47  1  0  0  0  0
 12 48  1  0  0  0  0
 13 49  1  0  0  0  0
 13 50  1  0  0  0  0
 14 51  1  0  0  0  0
 14 52  1  0  0  0  0
 15 53  1  0  0  0  0
 15 54  1  0  0  0  0
 16 55  1  0  0  0  0
 16 56  1  0  0  0  0
 17 57  1  0  0  0  0
 17 58  1  0  0  0  0
 21 59  1  0  0  0  0
 22 60  1  0  0  0  0
 22 61  1  0  0  0  0
 22 62  1  0  0  0  0
 23 63  1  0  0  0  0
 23 64  1  0  0  0  0
 23 65  1  0  0  0  0
M  END
>  <InChIKey>
NEOZOXKVMDBOSG-UHFFFAOYSA-N

>  <UN GHS>
Non-irritant

>  <CASRN>
68171-33-5

> <Outcome>
0

>  <Index>
512

>  <StandardizerResult>
Clear Stereo (ID: ClearStereo)
Wedge Clean (ID: WedgeClean)
Mesomerize (ID: Mesomerize)
Tautomerize (ID: Tautomerize)
Add Explicit Hydrogens (ID: AddExplicitH)
Neutralize (ID: Neutralize)
Clean 2D (ID: Clean2D)

> <knn Distance>
2.64575123786926

> <CpId>
512

$$$$
529
  Mrv1532301301811342D          

 38 37  0  0  0  0            999 V2000
   -0.9070    1.9631    0.0000 C   0  0  0  0  0  0  0  0  0  0  0  0
   -0.9070    1.1381    0.0000 C   0  0  0  0  0  0  0  0  0  0  0  0
   -1.6215    0.7256    0.0000 C   0  0  0  0  0  0  0  0  0  0  0  0
   -2.3359    1.1381    0.0000 C   0  0  0  0  0  0  0  0  0  0  0  0
   -3.0504    0.7256    0.0000 C   0  0  0  0  0  0  0  0  0  0  0  0
   -3.7649    1.1381    0.0000 C   0  0  0  0  0  0  0  0  0  0  0  0
   -3.7649    1.9631    0.0000 C   0  0  0  0  0  0  0  0  0  0  0  0
   -4.4793    0.7256    0.0000 C   0  0  0  0  0  0  0  0  0  0  0  0
   -5.1938    1.1381    0.0000 O   0  0  0  0  0  0  0  0  0  0  0  0
   -0.1925    0.7256    0.0000 C   0  0  0  0  0  0  0  0  0  0  0  0
    0.5220    1.1381    0.0000 C   0  0  0  0  0  0  0  0  0  0  0  0
    1.2364    0.7256    0.0000 C   0  0  0  0  0  0  0  0  0  0  0  0
    1.9509    1.1381    0.0000 C   0  0  0  0  0  0  0  0  0  0  0  0
    1.9509    1.9631    0.0000 C   0  0  0  0  0  0  0  0  0  0  0  0
    2.6654    0.7256    0.0000 C   0  0  0  0  0  0  0  0  0  0  0  0
    3.3798    1.1381    0.0000 C   0  0  0  0  0  0  0  0  0  0  0  0
   -0.0820    1.9631    0.0000 H   0  0  0  0  0  0  0  0  0  0  0  0
   -0.9070    2.7881    0.0000 H   0  0  0  0  0  0  0  0  0  0  0  0
   -1.7320    1.9631    0.0000 H   0  0  0  0  0  0  0  0  0  0  0  0
   -1.9917   -0.0116    0.0000 H   0  0  0  0  0  0  0  0  0  0  0  0
   -1.2512   -0.0116    0.0000 H   0  0  0  0  0  0  0  0  0  0  0  0
   -1.9657    1.8754    0.0000 H   0  0  0  0  0  0  0  0  0  0  0  0
   -2.7062    1.8754    0.0000 H   0  0  0  0  0  0  0  0  0  0  0  0
   -3.0504   -0.0994    0.0000 H   0  0  0  0  0  0  0  0  0  0  0  0
   -2.9399    1.9631    0.0000 H   0  0  0  0  0  0  0  0  0  0  0  0
   -3.7649    2.7881    0.0000 H   0  0  0  0  0  0  0  0  0  0  0  0
   -4.5899    1.9631    0.0000 H   0  0  0  0  0  0  0  0  0  0  0  0
   -4.4793   -0.0994    0.0000 H   0  0  0  0  0  0  0  0  0  0  0  0
   -0.1925   -0.0994    0.0000 H   0  0  0  0  0  0  0  0  0  0  0  0
    0.8922    1.8754    0.0000 H   0  0  0  0  0  0  0  0  0  0  0  0
    0.1517    1.8754    0.0000 H   0  0  0  0  0  0  0  0  0  0  0  0
    0.8662   -0.0116    0.0000 H   0  0  0  0  0  0  0  0  0  0  0  0
    1.6067   -0.0116    0.0000 H   0  0  0  0  0  0  0  0  0  0  0  0
    2.6654    2.3756    0.0000 H   0  0  0  0  0  0  0  0  0  0  0  0
    1.2364    2.3756    0.0000 H   0  0  0  0  0  0  0  0  0  0  0  0
    2.6654   -0.0994    0.0000 H   0  0  0  0  0  0  0  0  0  0  0  0
    4.0943    0.7256    0.0000 H   0  0  0  0  0  0  0  0  0  0  0  0
    3.3798    1.9631    0.0000 H   0  0  0  0  0  0  0  0  0  0  0  0
  1  2  1  0  0  0  0
  2  3  1  0  0  0  0
  3  4  1  0  0  0  0
  5  4  1  4  0  0  0
  5  6  2  0  0  0  0
  6  7  1  0  0  0  0
  6  8  1  0  0  0  0
  8  9  2  0  0  0  0
  2 10  2  0  0  0  0
 10 11  1  4  0  0  0
 11 12  1  0  0  0  0
 12 13  1  0  0  0  0
 13 14  2  0  0  0  0
 13 15  1  0  0  0  0
 15 16  2  0  0  0  0
  1 17  1  0  0  0  0
  1 18  1  0  0  0  0
  1 19  1  0  0  0  0
  3 20  1  0  0  0  0
  3 21  1  0  0  0  0
  4 22  1  0  0  0  0
  4 23  1  0  0  0  0
  5 24  1  0  0  0  0
  7 25  1  0  0  0  0
  7 26  1  0  0  0  0
  7 27  1  0  0  0  0
  8 28  1  0  0  0  0
 10 29  1  0  0  0  0
 11 30  1  0  0  0  0
 11 31  1  0  0  0  0
 12 32  1  0  0  0  0
 12 33  1  0  0  0  0
 14 34  1  0  0  0  0
 14 35  1  0  0  0  0
 15 36  1  0  0  0  0
 16 37  1  0  0  0  0
 16 38  1  0  0  0  0
M  END
>  <InChIKey>
NOPLRNXKHZRXHT-UHFFFAOYSA-N

>  <UN GHS>
Non-irritant

>  <CASRN>
8028-48-6

> <Outcome>
0

>  <Index>
529

>  <StandardizerResult>
Clear Stereo (ID: ClearStereo)
Wedge Clean (ID: WedgeClean)
Mesomerize (ID: Mesomerize)
Tautomerize (ID: Tautomerize)
Add Explicit Hydrogens (ID: AddExplicitH)
Neutralize (ID: Neutralize)
Clean 2D (ID: Clean2D)

> <knn Distance>
2.64575123786926

> <CpId>
529

$$$$
560
  Mrv1532301301811342D          

 78 77  0  0  0  0            999 V2000
   12.1836    7.8590    0.0000 C   0  0  0  0  0  0  0  0  0  0  0  0
   12.8980    8.2715    0.0000 C   0  0  0  0  0  0  0  0  0  0  0  0
   13.6125    7.8590    0.0000 C   0  0  0  0  0  0  0  0  0  0  0  0
   14.3270    8.2715    0.0000 C   0  0  0  0  0  0  0  0  0  0  0  0
   15.0414    7.8590    0.0000 C   0  0  0  0  0  0  0  0  0  0  0  0
   15.7559    8.2715    0.0000 C   0  0  0  0  0  0  0  0  0  0  0  0
   16.4704    7.8590    0.0000 C   0  0  0  0  0  0  0  0  0  0  0  0
   17.1849    8.2715    0.0000 C   0  0  0  0  0  0  0  0  0  0  0  0
   17.8993    7.8590    0.0000 C   0  0  0  0  0  0  0  0  0  0  0  0
   18.6138    8.2715    0.0000 C   0  0  0  0  0  0  0  0  0  0  0  0
   19.3283    7.8590    0.0000 C   0  0  0  0  0  0  0  0  0  0  0  0
   20.0427    8.2715    0.0000 C   0  0  0  0  0  0  0  0  0  0  0  0
   20.7572    7.8590    0.0000 C   0  0  0  0  0  0  0  0  0  0  0  0
   21.4717    8.2715    0.0000 C   0  0  0  0  0  0  0  0  0  0  0  0
   22.1862    7.8590    0.0000 C   0  0  0  0  0  0  0  0  0  0  0  0
   22.9006    8.2715    0.0000 C   0  0  0  0  0  0  0  0  0  0  0  0
   23.6151    7.8590    0.0000 C   0  0  0  0  0  0  0  0  0  0  0  0
   24.3296    8.2715    0.0000 C   0  0  0  0  0  0  0  0  0  0  0  0
   25.0440    7.8590    0.0000 C   0  0  0  0  0  0  0  0  0  0  0  0
   25.7585    8.2715    0.0000 C   0  0  0  0  0  0  0  0  0  0  0  0
   26.4730    7.8590    0.0000 C   0  0  0  0  0  0  0  0  0  0  0  0
   27.1874    8.2715    0.0000 C   0  0  0  0  0  0  0  0  0  0  0  0
   27.9019    7.8590    0.0000 C   0  0  0  0  0  0  0  0  0  0  0  0
   28.6164    8.2715    0.0000 C   0  0  0  0  0  0  0  0  0  0  0  0
   29.3309    7.8590    0.0000 C   0  0  0  0  0  0  0  0  0  0  0  0
   30.0453    8.2715    0.0000 C   0  0  0  0  0  0  0  0  0  0  0  0
   11.7711    8.5734    0.0000 H   0  0  0  0  0  0  0  0  0  0  0  0
   11.4691    7.4465    0.0000 H   0  0  0  0  0  0  0  0  0  0  0  0
   12.5961    7.1445    0.0000 H   0  0  0  0  0  0  0  0  0  0  0  0
   13.2683    9.0087    0.0000 H   0  0  0  0  0  0  0  0  0  0  0  0
   12.5278    9.0087    0.0000 H   0  0  0  0  0  0  0  0  0  0  0  0
   13.2422    7.1217    0.0000 H   0  0  0  0  0  0  0  0  0  0  0  0
   13.9828    7.1217    0.0000 H   0  0  0  0  0  0  0  0  0  0  0  0
   14.6972    9.0087    0.0000 H   0  0  0  0  0  0  0  0  0  0  0  0
   13.9567    9.0087    0.0000 H   0  0  0  0  0  0  0  0  0  0  0  0
   14.6712    7.1217    0.0000 H   0  0  0  0  0  0  0  0  0  0  0  0
   15.4117    7.1217    0.0000 H   0  0  0  0  0  0  0  0  0  0  0  0
   16.1262    9.0087    0.0000 H   0  0  0  0  0  0  0  0  0  0  0  0
   15.3857    9.0087    0.0000 H   0  0  0  0  0  0  0  0  0  0  0  0
   16.1001    7.1217    0.0000 H   0  0  0  0  0  0  0  0  0  0  0  0
   16.8406    7.1217    0.0000 H   0  0  0  0  0  0  0  0  0  0  0  0
   17.5551    9.0087    0.0000 H   0  0  0  0  0  0  0  0  0  0  0  0
   16.8146    9.0087    0.0000 H   0  0  0  0  0  0  0  0  0  0  0  0
   17.5291    7.1217    0.0000 H   0  0  0  0  0  0  0  0  0  0  0  0
   18.2696    7.1217    0.0000 H   0  0  0  0  0  0  0  0  0  0  0  0
   18.9841    9.0087    0.0000 H   0  0  0  0  0  0  0  0  0  0  0  0
   18.2435    9.0087    0.0000 H   0  0  0  0  0  0  0  0  0  0  0  0
   18.9580    7.1217    0.0000 H   0  0  0  0  0  0  0  0  0  0  0  0
   19.6985    7.1217    0.0000 H   0  0  0  0  0  0  0  0  0  0  0  0
   20.4130    9.0087    0.0000 H   0  0  0  0  0  0  0  0  0  0  0  0
   19.6725    9.0087    0.0000 H   0  0  0  0  0  0  0  0  0  0  0  0
   20.3870    7.1217    0.0000 H   0  0  0  0  0  0  0  0  0  0  0  0
   21.1275    7.1217    0.0000 H   0  0  0  0  0  0  0  0  0  0  0  0
   21.8419    9.0087    0.0000 H   0  0  0  0  0  0  0  0  0  0  0  0
   21.1014    9.0087    0.0000 H   0  0  0  0  0  0  0  0  0  0  0  0
   21.8159    7.1217    0.0000 H   0  0  0  0  0  0  0  0  0  0  0  0
   22.5564    7.1217    0.0000 H   0  0  0  0  0  0  0  0  0  0  0  0
   23.2709    9.0087    0.0000 H   0  0  0  0  0  0  0  0  0  0  0  0
   22.5304    9.0087    0.0000 H   0  0  0  0  0  0  0  0  0  0  0  0
   23.2448    7.1217    0.0000 H   0  0  0  0  0  0  0  0  0  0  0  0
   23.9854    7.1217    0.0000 H   0  0  0  0  0  0  0  0  0  0  0  0
   24.6998    9.0087    0.0000 H   0  0  0  0  0  0  0  0  0  0  0  0
   23.9593    9.0087    0.0000 H   0  0  0  0  0  0  0  0  0  0  0  0
   24.6738    7.1217    0.0000 H   0  0  0  0  0  0  0  0  0  0  0  0
   25.4143    7.1217    0.0000 H   0  0  0  0  0  0  0  0  0  0  0  0
   26.1288    9.0087    0.0000 H   0  0  0  0  0  0  0  0  0  0  0  0
   25.3882    9.0087    0.0000 H   0  0  0  0  0  0  0  0  0  0  0  0
   26.1027    7.1217    0.0000 H   0  0  0  0  0  0  0  0  0  0  0  0
   26.8432    7.1217    0.0000 H   0  0  0  0  0  0  0  0  0  0  0  0
   27.5577    9.0087    0.0000 H   0  0  0  0  0  0  0  0  0  0  0  0
   26.8172    9.0087    0.0000 H   0  0  0  0  0  0  0  0  0  0  0  0
   27.5317    7.1217    0.0000 H   0  0  0  0  0  0  0  0  0  0  0  0
   28.2722    7.1217    0.0000 H   0  0  0  0  0  0  0  0  0  0  0  0
   28.9867    9.0087    0.0000 H   0  0  0  0  0  0  0  0  0  0  0  0
   28.2461    9.0087    0.0000 H   0  0  0  0  0  0  0  0  0  0  0  0
   29.3309    7.0340    0.0000 H   0  0  0  0  0  0  0  0  0  0  0  0
   30.7598    7.8590    0.0000 H   0  0  0  0  0  0  0  0  0  0  0  0
   30.0453    9.0965    0.0000 H   0  0  0  0  0  0  0  0  0  0  0  0
  1  2  1  0  0  0  0
  2  3  1  0  0  0  0
  3  4  1  0  0  0  0
  4  5  1  0  0  0  0
  5  6  1  0  0  0  0
  6  7  1  0  0  0  0
  7  8  1  0  0  0  0
  8  9  1  0  0  0  0
  9 10  1  0  0  0  0
 10 11  1  0  0  0  0
 11 12  1  0  0  0  0
 12 13  1  0  0  0  0
 13 14  1  0  0  0  0
 14 15  1  0  0  0  0
 15 16  1  0  0  0  0
 16 17  1  0  0  0  0
 17 18  1  0  0  0  0
 18 19  1  0  0  0  0
 19 20  1  0  0  0  0
 20 21  1  0  0  0  0
 21 22  1  0  0  0  0
 22 23  1  0  0  0  0
 23 24  1  0  0  0  0
 24 25  1  0  0  0  0
 25 26  2  0  0  0  0
  1 27  1  0  0  0  0
  1 28  1  0  0  0  0
  1 29  1  0  0  0  0
  2 30  1  0  0  0  0
  2 31  1  0  0  0  0
  3 32  1  0  0  0  0
  3 33  1  0  0  0  0
  4 34  1  0  0  0  0
  4 35  1  0  0  0  0
  5 36  1  0  0  0  0
  5 37  1  0  0  0  0
  6 38  1  0  0  0  0
  6 39  1  0  0  0  0
  7 40  1  0  0  0  0
  7 41  1  0  0  0  0
  8 42  1  0  0  0  0
  8 43  1  0  0  0  0
  9 44  1  0  0  0  0
  9 45  1  0  0  0  0
 10 46  1  0  0  0  0
 10 47  1  0  0  0  0
 11 48  1  0  0  0  0
 11 49  1  0  0  0  0
 12 50  1  0  0  0  0
 12 51  1  0  0  0  0
 13 52  1  0  0  0  0
 13 53  1  0  0  0  0
 14 54  1  0  0  0  0
 14 55  1  0  0  0  0
 15 56  1  0  0  0  0
 15 57  1  0  0  0  0
 16 58  1  0  0  0  0
 16 59  1  0  0  0  0
 17 60  1  0  0  0  0
 17 61  1  0  0  0  0
 18 62  1  0  0  0  0
 18 63  1  0  0  0  0
 19 64  1  0  0  0  0
 19 65  1  0  0  0  0
 20 66  1  0  0  0  0
 20 67  1  0  0  0  0
 21 68  1  0  0  0  0
 21 69  1  0  0  0  0
 22 70  1  0  0  0  0
 22 71  1  0  0  0  0
 23 72  1  0  0  0  0
 23 73  1  0  0  0  0
 24 74  1  0  0  0  0
 24 75  1  0  0  0  0
 25 76  1  0  0  0  0
 26 77  1  0  0  0  0
 26 78  1  0  0  0  0
M  END
>  <InChIKey>
OMXANELYEWRDAW-UHFFFAOYSA-N

>  <UN GHS>
Non-irritant

>  <CASRN>
93924-11-9

> <Outcome>
0

>  <Index>
560

>  <StandardizerResult>
Clear Stereo (ID: ClearStereo)
Wedge Clean (ID: WedgeClean)
Mesomerize (ID: Mesomerize)
Tautomerize (ID: Tautomerize)
Add Explicit Hydrogens (ID: AddExplicitH)
Neutralize (ID: Neutralize)
Clean 2D (ID: Clean2D)

> <knn Distance>
2.64575123786926

> <CpId>
560

$$$$
585
  Mrv1532301301811342D          

 27 26  0  0  0  0            999 V2000
   -0.6072   -3.2603    0.0000 C   0  0  0  0  0  0  0  0  0  0  0  0
   -0.6072   -2.4353    0.0000 C   0  0  0  0  0  0  0  0  0  0  0  0
   -1.3217   -2.0228    0.0000 C   0  0  0  0  0  0  0  0  0  0  0  0
    0.1073   -2.0228    0.0000 C   0  0  0  0  0  0  0  0  0  0  0  0
    0.8217   -2.4353    0.0000 O   0  0  0  0  0  0  0  0  0  0  0  0
    0.1073   -1.1978    0.0000 O   0  0  0  0  0  0  0  0  0  0  0  0
    0.8217   -0.7853    0.0000 O   0  0  0  0  0  0  0  0  0  0  0  0
    0.8217    0.0397    0.0000 C   0  0  0  0  0  0  0  0  0  0  0  0
    0.8217    0.8647    0.0000 C   0  0  0  0  0  0  0  0  0  0  0  0
    1.6467    0.0397    0.0000 C   0  0  0  0  0  0  0  0  0  0  0  0
   -0.0033    0.0397    0.0000 C   0  0  0  0  0  0  0  0  0  0  0  0
   -1.4322   -3.2603    0.0000 H   0  0  0  0  0  0  0  0  0  0  0  0
   -0.6072   -4.0853    0.0000 H   0  0  0  0  0  0  0  0  0  0  0  0
    0.2178   -3.2603    0.0000 H   0  0  0  0  0  0  0  0  0  0  0  0
   -1.3217   -2.8478    0.0000 H   0  0  0  0  0  0  0  0  0  0  0  0
   -0.7383   -1.4394    0.0000 H   0  0  0  0  0  0  0  0  0  0  0  0
   -1.7342   -1.3083    0.0000 H   0  0  0  0  0  0  0  0  0  0  0  0
   -2.1186   -2.2363    0.0000 H   0  0  0  0  0  0  0  0  0  0  0  0
    1.6467    0.8647    0.0000 H   0  0  0  0  0  0  0  0  0  0  0  0
    0.8217    1.6897    0.0000 H   0  0  0  0  0  0  0  0  0  0  0  0
   -0.0033    0.8647    0.0000 H   0  0  0  0  0  0  0  0  0  0  0  0
    1.3310   -0.7225    0.0000 H   0  0  0  0  0  0  0  0  0  0  0  0
    2.2301   -0.5436    0.0000 H   0  0  0  0  0  0  0  0  0  0  0  0
    2.4089    0.3554    0.0000 H   0  0  0  0  0  0  0  0  0  0  0  0
   -0.7655    0.3554    0.0000 H   0  0  0  0  0  0  0  0  0  0  0  0
   -0.5866   -0.5436    0.0000 H   0  0  0  0  0  0  0  0  0  0  0  0
    0.3124   -0.7225    0.0000 H   0  0  0  0  0  0  0  0  0  0  0  0
  1  2  1  0  0  0  0
  2  3  1  0  0  0  0
  2  4  1  0  0  0  0
  4  5  2  0  0  0  0
  4  6  1  0  0  0  0
  6  7  1  0  0  0  0
  7  8  1  0  0  0  0
  8  9  1  0  0  0  0
  8 10  1  0  0  0  0
  8 11  1  0  0  0  0
  1 12  1  0  0  0  0
  1 13  1  0  0  0  0
  1 14  1  0  0  0  0
  2 15  1  0  0  0  0
  3 16  1  0  0  0  0
  3 17  1  0  0  0  0
  3 18  1  0  0  0  0
  9 19  1  0  0  0  0
  9 20  1  0  0  0  0
  9 21  1  0  0  0  0
 10 22  1  0  0  0  0
 10 23  1  0  0  0  0
 10 24  1  0  0  0  0
 11 25  1  0  0  0  0
 11 26  1  0  0  0  0
 11 27  1  0  0  0  0
M  END
>  <InChIKey>
PFBLRDXPNUJYJM-UHFFFAOYSA-N

>  <UN GHS>
Non-irritant

>  <CASRN>
109-13-7

> <Outcome>
0

>  <Index>
585

>  <StandardizerResult>
Clear Stereo (ID: ClearStereo)
Wedge Clean (ID: WedgeClean)
Mesomerize (ID: Mesomerize)
Tautomerize (ID: Tautomerize)
Add Explicit Hydrogens (ID: AddExplicitH)
Neutralize (ID: Neutralize)
Clean 2D (ID: Clean2D)

> <knn Distance>
2.64575123786926

> <CpId>
585

$$$$
591
  Mrv1532301301811342D          

105104  0  0  0  0            999 V2000
   -5.4180    0.1674    0.0000 C   0  0  0  0  0  0  0  0  0  0  0  0
   -4.5930    0.1674    0.0000 C   0  0  0  0  0  0  0  0  0  0  0  0
   -4.1805   -0.5470    0.0000 C   0  0  0  0  0  0  0  0  0  0  0  0
   -3.3555   -0.5470    0.0000 C   0  0  0  0  0  0  0  0  0  0  0  0
   -2.9430   -1.2615    0.0000 C   0  0  0  0  0  0  0  0  0  0  0  0
   -2.1180   -1.2615    0.0000 C   0  0  0  0  0  0  0  0  0  0  0  0
   -1.7055   -1.9760    0.0000 C   0  0  0  0  0  0  0  0  0  0  0  0
   -0.8805   -1.9760    0.0000 O   0  0  0  0  0  0  0  0  0  0  0  0
   -0.4680   -2.6904    0.0000 C   0  0  0  0  0  0  0  0  0  0  0  0
    0.3570   -2.6904    0.0000 C   0  0  0  0  0  0  0  0  0  0  0  0
    1.1820   -2.6904    0.0000 C   0  0  0  0  0  0  0  0  0  0  0  0
    1.5945   -3.4049    0.0000 O   0  0  0  0  0  0  0  0  0  0  0  0
    2.4195   -3.4049    0.0000 C   0  0  0  0  0  0  0  0  0  0  0  0
    2.8320   -4.1194    0.0000 C   0  0  0  0  0  0  0  0  0  0  0  0
    3.6570   -4.1194    0.0000 C   0  0  0  0  0  0  0  0  0  0  0  0
    4.0695   -4.8339    0.0000 C   0  0  0  0  0  0  0  0  0  0  0  0
    4.8945   -4.8339    0.0000 C   0  0  0  0  0  0  0  0  0  0  0  0
    5.3070   -5.5483    0.0000 C   0  0  0  0  0  0  0  0  0  0  0  0
    6.1320   -5.5483    0.0000 C   0  0  0  0  0  0  0  0  0  0  0  0
    0.3570   -3.5154    0.0000 C   0  0  0  0  0  0  0  0  0  0  0  0
    1.0715   -3.9279    0.0000 O   0  0  0  0  0  0  0  0  0  0  0  0
    1.0715   -4.7529    0.0000 C   0  0  0  0  0  0  0  0  0  0  0  0
    1.7860   -5.1654    0.0000 C   0  0  0  0  0  0  0  0  0  0  0  0
    1.7860   -5.9904    0.0000 C   0  0  0  0  0  0  0  0  0  0  0  0
    2.5004   -6.4029    0.0000 C   0  0  0  0  0  0  0  0  0  0  0  0
    2.5004   -7.2279    0.0000 C   0  0  0  0  0  0  0  0  0  0  0  0
    3.2149   -7.6404    0.0000 C   0  0  0  0  0  0  0  0  0  0  0  0
    3.2149   -8.4654    0.0000 C   0  0  0  0  0  0  0  0  0  0  0  0
    0.3570   -1.8654    0.0000 C   0  0  0  0  0  0  0  0  0  0  0  0
    1.0715   -1.4529    0.0000 O   0  0  0  0  0  0  0  0  0  0  0  0
    1.7860   -1.8654    0.0000 C   0  0  0  0  0  0  0  0  0  0  0  0
    2.5004   -1.4529    0.0000 C   0  0  0  0  0  0  0  0  0  0  0  0
    3.2149   -1.8654    0.0000 C   0  0  0  0  0  0  0  0  0  0  0  0
    3.9294   -1.4529    0.0000 C   0  0  0  0  0  0  0  0  0  0  0  0
    4.6438   -1.8654    0.0000 C   0  0  0  0  0  0  0  0  0  0  0  0
    5.3583   -1.4529    0.0000 C   0  0  0  0  0  0  0  0  0  0  0  0
    6.0728   -1.8654    0.0000 C   0  0  0  0  0  0  0  0  0  0  0  0
   -5.4180    0.9924    0.0000 H   0  0  0  0  0  0  0  0  0  0  0  0
   -6.2430    0.1674    0.0000 H   0  0  0  0  0  0  0  0  0  0  0  0
   -5.4180   -0.6576    0.0000 H   0  0  0  0  0  0  0  0  0  0  0  0
   -3.9037    0.6208    0.0000 H   0  0  0  0  0  0  0  0  0  0  0  0
   -4.5450    0.9910    0.0000 H   0  0  0  0  0  0  0  0  0  0  0  0
   -4.8698   -1.0004    0.0000 H   0  0  0  0  0  0  0  0  0  0  0  0
   -4.2285   -1.3706    0.0000 H   0  0  0  0  0  0  0  0  0  0  0  0
   -2.6662   -0.0937    0.0000 H   0  0  0  0  0  0  0  0  0  0  0  0
   -3.3075    0.2766    0.0000 H   0  0  0  0  0  0  0  0  0  0  0  0
   -3.6323   -1.7148    0.0000 H   0  0  0  0  0  0  0  0  0  0  0  0
   -2.9910   -2.0851    0.0000 H   0  0  0  0  0  0  0  0  0  0  0  0
   -1.4287   -0.8082    0.0000 H   0  0  0  0  0  0  0  0  0  0  0  0
   -2.0700   -0.4379    0.0000 H   0  0  0  0  0  0  0  0  0  0  0  0
   -2.3948   -2.4293    0.0000 H   0  0  0  0  0  0  0  0  0  0  0  0
   -1.7535   -2.7996    0.0000 H   0  0  0  0  0  0  0  0  0  0  0  0
   -1.1573   -3.1438    0.0000 H   0  0  0  0  0  0  0  0  0  0  0  0
   -0.5160   -3.5140    0.0000 H   0  0  0  0  0  0  0  0  0  0  0  0
    1.8713   -2.2371    0.0000 H   0  0  0  0  0  0  0  0  0  0  0  0
    1.2300   -1.8668    0.0000 H   0  0  0  0  0  0  0  0  0  0  0  0
    3.1088   -2.9516    0.0000 H   0  0  0  0  0  0  0  0  0  0  0  0
    2.4675   -2.5813    0.0000 H   0  0  0  0  0  0  0  0  0  0  0  0
    2.1427   -4.5727    0.0000 H   0  0  0  0  0  0  0  0  0  0  0  0
    2.7840   -4.9430    0.0000 H   0  0  0  0  0  0  0  0  0  0  0  0
    4.3463   -3.6660    0.0000 H   0  0  0  0  0  0  0  0  0  0  0  0
    3.7050   -3.2958    0.0000 H   0  0  0  0  0  0  0  0  0  0  0  0
    3.3802   -5.2872    0.0000 H   0  0  0  0  0  0  0  0  0  0  0  0
    4.0215   -5.6575    0.0000 H   0  0  0  0  0  0  0  0  0  0  0  0
    5.5838   -4.3805    0.0000 H   0  0  0  0  0  0  0  0  0  0  0  0
    4.9425   -4.0103    0.0000 H   0  0  0  0  0  0  0  0  0  0  0  0
    4.6177   -6.0017    0.0000 H   0  0  0  0  0  0  0  0  0  0  0  0
    5.2590   -6.3719    0.0000 H   0  0  0  0  0  0  0  0  0  0  0  0
    6.1320   -6.3733    0.0000 H   0  0  0  0  0  0  0  0  0  0  0  0
    6.9570   -5.5483    0.0000 H   0  0  0  0  0  0  0  0  0  0  0  0
    6.1320   -4.7233    0.0000 H   0  0  0  0  0  0  0  0  0  0  0  0
    0.1429   -4.3122    0.0000 H   0  0  0  0  0  0  0  0  0  0  0  0
    1.0715   -3.1029    0.0000 H   0  0  0  0  0  0  0  0  0  0  0  0
    0.2479   -4.8009    0.0000 H   0  0  0  0  0  0  0  0  0  0  0  0
    0.6181   -5.4422    0.0000 H   0  0  0  0  0  0  0  0  0  0  0  0
    2.5809   -5.3862    0.0000 H   0  0  0  0  0  0  0  0  0  0  0  0
    1.0715   -5.5779    0.0000 H   0  0  0  0  0  0  0  0  0  0  0  0
    1.1540   -6.5207    0.0000 H   0  0  0  0  0  0  0  0  0  0  0  0
    1.6427   -6.8029    0.0000 H   0  0  0  0  0  0  0  0  0  0  0  0
    3.3240   -6.3550    0.0000 H   0  0  0  0  0  0  0  0  0  0  0  0
    2.9538   -5.7137    0.0000 H   0  0  0  0  0  0  0  0  0  0  0  0
    1.8041   -7.6703    0.0000 H   0  0  0  0  0  0  0  0  0  0  0  0
    2.5179   -8.0528    0.0000 H   0  0  0  0  0  0  0  0  0  0  0  0
    4.0385   -7.5925    0.0000 H   0  0  0  0  0  0  0  0  0  0  0  0
    3.6682   -6.9512    0.0000 H   0  0  0  0  0  0  0  0  0  0  0  0
    2.6268   -9.0440    0.0000 H   0  0  0  0  0  0  0  0  0  0  0  0
    3.6235   -9.1822    0.0000 H   0  0  0  0  0  0  0  0  0  0  0  0
    4.0124   -8.2541    0.0000 H   0  0  0  0  0  0  0  0  0  0  0  0
   -0.0963   -1.1762    0.0000 H   0  0  0  0  0  0  0  0  0  0  0  0
   -0.4666   -1.8175    0.0000 H   0  0  0  0  0  0  0  0  0  0  0  0
    1.7860   -1.0404    0.0000 H   0  0  0  0  0  0  0  0  0  0  0  0
    1.2728   -2.5114    0.0000 H   0  0  0  0  0  0  0  0  0  0  0  0
    3.1324   -0.9226    0.0000 H   0  0  0  0  0  0  0  0  0  0  0  0
    2.6437   -0.6405    0.0000 H   0  0  0  0  0  0  0  0  0  0  0  0
    2.8446   -2.6027    0.0000 H   0  0  0  0  0  0  0  0  0  0  0  0
    3.5852   -2.6027    0.0000 H   0  0  0  0  0  0  0  0  0  0  0  0
    4.6524   -1.0557    0.0000 H   0  0  0  0  0  0  0  0  0  0  0  0
    3.9643   -0.6287    0.0000 H   0  0  0  0  0  0  0  0  0  0  0  0
    4.2736   -2.6027    0.0000 H   0  0  0  0  0  0  0  0  0  0  0  0
    5.0141   -2.6027    0.0000 H   0  0  0  0  0  0  0  0  0  0  0  0
    5.9880   -0.9200    0.0000 H   0  0  0  0  0  0  0  0  0  0  0  0
    5.4961   -0.6395    0.0000 H   0  0  0  0  0  0  0  0  0  0  0  0
    5.5026   -2.4617    0.0000 H   0  0  0  0  0  0  0  0  0  0  0  0
    6.5168   -2.5608    0.0000 H   0  0  0  0  0  0  0  0  0  0  0  0
    6.8536   -1.5990    0.0000 H   0  0  0  0  0  0  0  0  0  0  0  0
  1  2  1  0  0  0  0
  2  3  1  0  0  0  0
  3  4  1  0  0  0  0
  4  5  1  0  0  0  0
  5  6  1  0  0  0  0
  6  7  1  0  0  0  0
  7  8  1  0  0  0  0
  8  9  1  0  0  0  0
  9 10  1  0  0  0  0
 10 11  1  0  0  0  0
 11 12  1  0  0  0  0
 12 13  1  0  0  0  0
 13 14  1  0  0  0  0
 14 15  1  0  0  0  0
 15 16  1  0  0  0  0
 16 17  1  0  0  0  0
 17 18  1  0  0  0  0
 18 19  1  0  0  0  0
 10 20  1  0  0  0  0
 20 21  1  0  0  0  0
 21 22  1  0  0  0  0
 22 23  1  0  0  0  0
 23 24  1  0  0  0  0
 24 25  1  0  0  0  0
 25 26  1  0  0  0  0
 26 27  1  0  0  0  0
 27 28  1  0  0  0  0
 10 29  1  0  0  0  0
 29 30  1  0  0  0  0
 30 31  1  0  0  0  0
 31 32  1  0  0  0  0
 32 33  1  0  0  0  0
 33 34  1  0  0  0  0
 34 35  1  0  0  0  0
 35 36  1  0  0  0  0
 36 37  1  0  0  0  0
  1 38  1  0  0  0  0
  1 39  1  0  0  0  0
  1 40  1  0  0  0  0
  2 41  1  0  0  0  0
  2 42  1  0  0  0  0
  3 43  1  0  0  0  0
  3 44  1  0  0  0  0
  4 45  1  0  0  0  0
  4 46  1  0  0  0  0
  5 47  1  0  0  0  0
  5 48  1  0  0  0  0
  6 49  1  0  0  0  0
  6 50  1  0  0  0  0
  7 51  1  0  0  0  0
  7 52  1  0  0  0  0
  9 53  1  0  0  0  0
  9 54  1  0  0  0  0
 11 55  1  0  0  0  0
 11 56  1  0  0  0  0
 13 57  1  0  0  0  0
 13 58  1  0  0  0  0
 14 59  1  0  0  0  0
 14 60  1  0  0  0  0
 15 61  1  0  0  0  0
 15 62  1  0  0  0  0
 16 63  1  0  0  0  0
 16 64  1  0  0  0  0
 17 65  1  0  0  0  0
 17 66  1  0  0  0  0
 18 67  1  0  0  0  0
 18 68  1  0  0  0  0
 19 69  1  0  0  0  0
 19 70  1  0  0  0  0
 19 71  1  0  0  0  0
 20 72  1  0  0  0  0
 20 73  1  0  0  0  0
 22 74  1  0  0  0  0
 22 75  1  0  0  0  0
 23 76  1  0  0  0  0
 23 77  1  0  0  0  0
 24 78  1  0  0  0  0
 24 79  1  0  0  0  0
 25 80  1  0  0  0  0
 25 81  1  0  0  0  0
 26 82  1  0  0  0  0
 26 83  1  0  0  0  0
 27 84  1  0  0  0  0
 27 85  1  0  0  0  0
 28 86  1  0  0  0  0
 28 87  1  0  0  0  0
 28 88  1  0  0  0  0
 29 89  1  0  0  0  0
 29 90  1  0  0  0  0
 31 91  1  0  0  0  0
 31 92  1  0  0  0  0
 32 93  1  0  0  0  0
 32 94  1  0  0  0  0
 33 95  1  0  0  0  0
 33 96  1  0  0  0  0
 34 97  1  0  0  0  0
 34 98  1  0  0  0  0
 35 99  1  0  0  0  0
 35100  1  0  0  0  0
 36101  1  0  0  0  0
 36102  1  0  0  0  0
 37103  1  0  0  0  0
 37104  1  0  0  0  0
 37105  1  0  0  0  0
M  END
>  <InChIKey>
PIZFEKJNYKNABG-UHFFFAOYSA-N

>  <UN GHS>
Non-irritant

>  <CASRN>
67762-53-2

> <Outcome>
0

>  <Index>
591

>  <StandardizerResult>
Clear Stereo (ID: ClearStereo)
Wedge Clean (ID: WedgeClean)
Mesomerize (ID: Mesomerize)
Tautomerize (ID: Tautomerize)
Add Explicit Hydrogens (ID: AddExplicitH)
Neutralize (ID: Neutralize)
Clean 2D (ID: Clean2D)

> <knn Distance>
2.64575123786926

> <CpId>
591

$$$$
592
  Mrv1532301301811342D          

 74 73  0  0  0  0            999 V2000
    9.1748    6.1302    0.0000 C   0  0  0  0  0  0  0  0  0  0  0  0
    9.8893    5.7177    0.0000 C   0  0  0  0  0  0  0  0  0  0  0  0
   10.6038    6.1302    0.0000 C   0  0  0  0  0  0  0  0  0  0  0  0
   11.3183    5.7177    0.0000 C   0  0  0  0  0  0  0  0  0  0  0  0
   12.0327    6.1302    0.0000 C   0  0  0  0  0  0  0  0  0  0  0  0
   12.7472    5.7177    0.0000 C   0  0  0  0  0  0  0  0  0  0  0  0
   13.4617    6.1302    0.0000 C   0  0  0  0  0  0  0  0  0  0  0  0
   13.4617    6.9552    0.0000 O   0  0  0  0  0  0  0  0  0  0  0  0
   14.1761    5.7177    0.0000 O   0  0  0  0  0  0  0  0  0  0  0  0
   14.8906    6.1302    0.0000 C   0  0  0  0  0  0  0  0  0  0  0  0
   15.6051    5.7177    0.0000 C   0  0  0  0  0  0  0  0  0  0  0  0
   16.3196    6.1302    0.0000 C   0  0  0  0  0  0  0  0  0  0  0  0
   17.0340    5.7177    0.0000 O   0  0  0  0  0  0  0  0  0  0  0  0
   17.7485    6.1302    0.0000 C   0  0  0  0  0  0  0  0  0  0  0  0
   17.7485    6.9552    0.0000 O   0  0  0  0  0  0  0  0  0  0  0  0
   18.4630    5.7177    0.0000 C   0  0  0  0  0  0  0  0  0  0  0  0
   19.1774    6.1302    0.0000 C   0  0  0  0  0  0  0  0  0  0  0  0
   19.8919    5.7177    0.0000 C   0  0  0  0  0  0  0  0  0  0  0  0
   20.6064    6.1302    0.0000 C   0  0  0  0  0  0  0  0  0  0  0  0
   21.3209    5.7177    0.0000 C   0  0  0  0  0  0  0  0  0  0  0  0
   22.0353    6.1302    0.0000 C   0  0  0  0  0  0  0  0  0  0  0  0
   15.6051    4.8927    0.0000 O   0  0  0  0  0  0  0  0  0  0  0  0
   14.8906    4.4802    0.0000 C   0  0  0  0  0  0  0  0  0  0  0  0
   14.1761    4.8927    0.0000 O   0  0  0  0  0  0  0  0  0  0  0  0
   14.8906    3.6552    0.0000 C   0  0  0  0  0  0  0  0  0  0  0  0
   14.1761    3.2427    0.0000 C   0  0  0  0  0  0  0  0  0  0  0  0
   14.1761    2.4177    0.0000 C   0  0  0  0  0  0  0  0  0  0  0  0
   13.4617    2.0052    0.0000 C   0  0  0  0  0  0  0  0  0  0  0  0
   13.4617    1.1802    0.0000 C   0  0  0  0  0  0  0  0  0  0  0  0
   12.7472    0.7677    0.0000 C   0  0  0  0  0  0  0  0  0  0  0  0
    9.5873    6.8447    0.0000 H   0  0  0  0  0  0  0  0  0  0  0  0
    8.4604    6.5427    0.0000 H   0  0  0  0  0  0  0  0  0  0  0  0
    8.7623    5.4157    0.0000 H   0  0  0  0  0  0  0  0  0  0  0  0
    9.5191    4.9805    0.0000 H   0  0  0  0  0  0  0  0  0  0  0  0
   10.2596    4.9805    0.0000 H   0  0  0  0  0  0  0  0  0  0  0  0
   10.9740    6.8674    0.0000 H   0  0  0  0  0  0  0  0  0  0  0  0
   10.2335    6.8674    0.0000 H   0  0  0  0  0  0  0  0  0  0  0  0
   10.9480    4.9805    0.0000 H   0  0  0  0  0  0  0  0  0  0  0  0
   11.6885    4.9805    0.0000 H   0  0  0  0  0  0  0  0  0  0  0  0
   12.4030    6.8674    0.0000 H   0  0  0  0  0  0  0  0  0  0  0  0
   11.6625    6.8674    0.0000 H   0  0  0  0  0  0  0  0  0  0  0  0
   12.3769    4.9805    0.0000 H   0  0  0  0  0  0  0  0  0  0  0  0
   13.1175    4.9805    0.0000 H   0  0  0  0  0  0  0  0  0  0  0  0
   15.2609    6.8674    0.0000 H   0  0  0  0  0  0  0  0  0  0  0  0
   14.5204    6.8674    0.0000 H   0  0  0  0  0  0  0  0  0  0  0  0
   15.6051    6.5427    0.0000 H   0  0  0  0  0  0  0  0  0  0  0  0
   16.9515    6.6605    0.0000 H   0  0  0  0  0  0  0  0  0  0  0  0
   16.4628    6.9427    0.0000 H   0  0  0  0  0  0  0  0  0  0  0  0
   18.0927    4.9805    0.0000 H   0  0  0  0  0  0  0  0  0  0  0  0
   18.8332    4.9805    0.0000 H   0  0  0  0  0  0  0  0  0  0  0  0
   19.5477    6.8674    0.0000 H   0  0  0  0  0  0  0  0  0  0  0  0
   18.8072    6.8674    0.0000 H   0  0  0  0  0  0  0  0  0  0  0  0
   19.5217    4.9805    0.0000 H   0  0  0  0  0  0  0  0  0  0  0  0
   20.2622    4.9805    0.0000 H   0  0  0  0  0  0  0  0  0  0  0  0
   20.9766    6.8674    0.0000 H   0  0  0  0  0  0  0  0  0  0  0  0
   20.2361    6.8674    0.0000 H   0  0  0  0  0  0  0  0  0  0  0  0
   20.9506    4.9805    0.0000 H   0  0  0  0  0  0  0  0  0  0  0  0
   21.6911    4.9805    0.0000 H   0  0  0  0  0  0  0  0  0  0  0  0
   22.4478    5.4157    0.0000 H   0  0  0  0  0  0  0  0  0  0  0  0
   22.7498    6.5427    0.0000 H   0  0  0  0  0  0  0  0  0  0  0  0
   21.6228    6.8447    0.0000 H   0  0  0  0  0  0  0  0  0  0  0  0
   15.3440    2.9659    0.0000 H   0  0  0  0  0  0  0  0  0  0  0  0
   15.7142    3.6072    0.0000 H   0  0  0  0  0  0  0  0  0  0  0  0
   13.7228    3.9320    0.0000 H   0  0  0  0  0  0  0  0  0  0  0  0
   13.3525    3.2907    0.0000 H   0  0  0  0  0  0  0  0  0  0  0  0
   14.6295    1.7284    0.0000 H   0  0  0  0  0  0  0  0  0  0  0  0
   14.9997    2.3697    0.0000 H   0  0  0  0  0  0  0  0  0  0  0  0
   13.0083    2.6945    0.0000 H   0  0  0  0  0  0  0  0  0  0  0  0
   12.6381    2.0532    0.0000 H   0  0  0  0  0  0  0  0  0  0  0  0
   13.9150    0.4909    0.0000 H   0  0  0  0  0  0  0  0  0  0  0  0
   14.2853    1.1322    0.0000 H   0  0  0  0  0  0  0  0  0  0  0  0
   12.3347    1.4822    0.0000 H   0  0  0  0  0  0  0  0  0  0  0  0
   12.0327    0.3552    0.0000 H   0  0  0  0  0  0  0  0  0  0  0  0
   13.1597    0.0532    0.0000 H   0  0  0  0  0  0  0  0  0  0  0  0
  1  2  1  0  0  0  0
  2  3  1  0  0  0  0
  3  4  1  0  0  0  0
  4  5  1  0  0  0  0
  5  6  1  0  0  0  0
  6  7  1  0  0  0  0
  7  8  2  0  0  0  0
  7  9  1  0  0  0  0
  9 10  1  0  0  0  0
 10 11  1  0  0  0  0
 11 12  1  0  0  0  0
 12 13  1  0  0  0  0
 13 14  1  0  0  0  0
 14 15  2  0  0  0  0
 14 16  1  0  0  0  0
 16 17  1  0  0  0  0
 17 18  1  0  0  0  0
 18 19  1  0  0  0  0
 19 20  1  0  0  0  0
 20 21  1  0  0  0  0
 11 22  1  0  0  0  0
 22 23  1  0  0  0  0
 23 24  2  0  0  0  0
 23 25  1  0  0  0  0
 25 26  1  0  0  0  0
 26 27  1  0  0  0  0
 27 28  1  0  0  0  0
 28 29  1  0  0  0  0
 29 30  1  0  0  0  0
  1 31  1  0  0  0  0
  1 32  1  0  0  0  0
  1 33  1  0  0  0  0
  2 34  1  0  0  0  0
  2 35  1  0  0  0  0
  3 36  1  0  0  0  0
  3 37  1  0  0  0  0
  4 38  1  0  0  0  0
  4 39  1  0  0  0  0
  5 40  1  0  0  0  0
  5 41  1  0  0  0  0
  6 42  1  0  0  0  0
  6 43  1  0  0  0  0
 10 44  1  0  0  0  0
 10 45  1  0  0  0  0
 11 46  1  0  0  0  0
 12 47  1  0  0  0  0
 12 48  1  0  0  0  0
 16 49  1  0  0  0  0
 16 50  1  0  0  0  0
 17 51  1  0  0  0  0
 17 52  1  0  0  0  0
 18 53  1  0  0  0  0
 18 54  1  0  0  0  0
 19 55  1  0  0  0  0
 19 56  1  0  0  0  0
 20 57  1  0  0  0  0
 20 58  1  0  0  0  0
 21 59  1  0  0  0  0
 21 60  1  0  0  0  0
 21 61  1  0  0  0  0
 25 62  1  0  0  0  0
 25 63  1  0  0  0  0
 26 64  1  0  0  0  0
 26 65  1  0  0  0  0
 27 66  1  0  0  0  0
 27 67  1  0  0  0  0
 28 68  1  0  0  0  0
 28 69  1  0  0  0  0
 29 70  1  0  0  0  0
 29 71  1  0  0  0  0
 30 72  1  0  0  0  0
 30 73  1  0  0  0  0
 30 74  1  0  0  0  0
M  END
>  <InChIKey>
PJHKBYALYHRYSK-UHFFFAOYSA-N

>  <UN GHS>
Non-irritant

>  <CASRN>
620-67-7

> <Outcome>
0

>  <Index>
592

>  <StandardizerResult>
Clear Stereo (ID: ClearStereo)
Wedge Clean (ID: WedgeClean)
Mesomerize (ID: Mesomerize)
Tautomerize (ID: Tautomerize)
Add Explicit Hydrogens (ID: AddExplicitH)
Neutralize (ID: Neutralize)
Clean 2D (ID: Clean2D)

> <knn Distance>
2.64575123786926

> <CpId>
592

$$$$
607
  Mrv1532301301811342D          

 38 37  0  0  0  0            999 V2000
    5.4730    3.9849    0.0000 C   0  0  0  0  0  0  0  0  0  0  0  0
    6.1875    3.5724    0.0000 C   0  0  0  0  0  0  0  0  0  0  0  0
    6.9020    3.9849    0.0000 C   0  0  0  0  0  0  0  0  0  0  0  0
    7.6164    3.5724    0.0000 C   0  0  0  0  0  0  0  0  0  0  0  0
    8.3309    3.9849    0.0000 C   0  0  0  0  0  0  0  0  0  0  0  0
    9.0454    3.5724    0.0000 C   0  0  0  0  0  0  0  0  0  0  0  0
    9.7599    3.9849    0.0000 C   0  0  0  0  0  0  0  0  0  0  0  0
   10.4743    3.5724    0.0000 C   0  0  0  0  0  0  0  0  0  0  0  0
   11.1888    3.9849    0.0000 C   0  0  0  0  0  0  0  0  0  0  0  0
   11.9033    3.5724    0.0000 C   0  0  0  0  0  0  0  0  0  0  0  0
   12.6177    3.9849    0.0000 C   0  0  0  0  0  0  0  0  0  0  0  0
   13.3322    3.5724    0.0000 C   0  0  0  0  0  0  0  0  0  0  0  0
   14.0467    3.9849    0.0000 O   0  0  0  0  0  0  0  0  0  0  0  0
   13.3322    2.7474    0.0000 O   0  0  0  0  0  0  0  0  0  0  0  0
    5.8855    4.6994    0.0000 H   0  0  0  0  0  0  0  0  0  0  0  0
    4.7586    4.3974    0.0000 H   0  0  0  0  0  0  0  0  0  0  0  0
    5.0605    3.2704    0.0000 H   0  0  0  0  0  0  0  0  0  0  0  0
    5.8172    2.8352    0.0000 H   0  0  0  0  0  0  0  0  0  0  0  0
    6.5578    2.8352    0.0000 H   0  0  0  0  0  0  0  0  0  0  0  0
    7.2722    4.7221    0.0000 H   0  0  0  0  0  0  0  0  0  0  0  0
    6.5317    4.7221    0.0000 H   0  0  0  0  0  0  0  0  0  0  0  0
    7.2462    2.8352    0.0000 H   0  0  0  0  0  0  0  0  0  0  0  0
    7.9867    2.8352    0.0000 H   0  0  0  0  0  0  0  0  0  0  0  0
    8.7012    4.7221    0.0000 H   0  0  0  0  0  0  0  0  0  0  0  0
    7.9607    4.7221    0.0000 H   0  0  0  0  0  0  0  0  0  0  0  0
    8.6751    2.8352    0.0000 H   0  0  0  0  0  0  0  0  0  0  0  0
    9.4156    2.8352    0.0000 H   0  0  0  0  0  0  0  0  0  0  0  0
   10.1301    4.7221    0.0000 H   0  0  0  0  0  0  0  0  0  0  0  0
    9.3896    4.7221    0.0000 H   0  0  0  0  0  0  0  0  0  0  0  0
   10.1041    2.8352    0.0000 H   0  0  0  0  0  0  0  0  0  0  0  0
   10.8446    2.8352    0.0000 H   0  0  0  0  0  0  0  0  0  0  0  0
   11.5591    4.7221    0.0000 H   0  0  0  0  0  0  0  0  0  0  0  0
   10.8185    4.7221    0.0000 H   0  0  0  0  0  0  0  0  0  0  0  0
   11.5330    2.8352    0.0000 H   0  0  0  0  0  0  0  0  0  0  0  0
   12.2735    2.8352    0.0000 H   0  0  0  0  0  0  0  0  0  0  0  0
   12.9880    4.7221    0.0000 H   0  0  0  0  0  0  0  0  0  0  0  0
   12.2475    4.7221    0.0000 H   0  0  0  0  0  0  0  0  0  0  0  0
   14.7611    3.5724    0.0000 H   0  0  0  0  0  0  0  0  0  0  0  0
  1  2  1  0  0  0  0
  2  3  1  0  0  0  0
  3  4  1  0  0  0  0
  4  5  1  0  0  0  0
  5  6  1  0  0  0  0
  6  7  1  0  0  0  0
  7  8  1  0  0  0  0
  8  9  1  0  0  0  0
  9 10  1  0  0  0  0
 10 11  1  0  0  0  0
 11 12  1  0  0  0  0
 12 13  1  0  0  0  0
 12 14  2  0  0  0  0
  1 15  1  0  0  0  0
  1 16  1  0  0  0  0
  1 17  1  0  0  0  0
  2 18  1  0  0  0  0
  2 19  1  0  0  0  0
  3 20  1  0  0  0  0
  3 21  1  0  0  0  0
  4 22  1  0  0  0  0
  4 23  1  0  0  0  0
  5 24  1  0  0  0  0
  5 25  1  0  0  0  0
  6 26  1  0  0  0  0
  6 27  1  0  0  0  0
  7 28  1  0  0  0  0
  7 29  1  0  0  0  0
  8 30  1  0  0  0  0
  8 31  1  0  0  0  0
  9 32  1  0  0  0  0
  9 33  1  0  0  0  0
 10 34  1  0  0  0  0
 10 35  1  0  0  0  0
 11 36  1  0  0  0  0
 11 37  1  0  0  0  0
 13 38  1  0  0  0  0
M  END
>  <InChIKey>
POULHZVOKOAJMA-UHFFFAOYSA-N

>  <UN GHS>
Non-irritant

>  <CASRN>
143-07-7

> <Outcome>
0

>  <Index>
607

>  <StandardizerResult>
Clear Stereo (ID: ClearStereo)
Wedge Clean (ID: WedgeClean)
Mesomerize (ID: Mesomerize)
Tautomerize (ID: Tautomerize)
Add Explicit Hydrogens (ID: AddExplicitH)
Neutralize (ID: Neutralize)
Clean 2D (ID: Clean2D)

> <knn Distance>
2.64575123786926

> <CpId>
607

$$$$
614
  Mrv1532301301811342D          

 28 27  0  0  0  0            999 V2000
    1.7190    1.8641    0.0000 C   0  0  0  0  0  0  0  0  0  0  0  0
    2.4334    1.4516    0.0000 C   0  0  0  0  0  0  0  0  0  0  0  0
    2.4334    0.6266    0.0000 C   0  0  0  0  0  0  0  0  0  0  0  0
    3.1479    1.8641    0.0000 C   0  0  0  0  0  0  0  0  0  0  0  0
    3.8624    1.4516    0.0000 C   0  0  0  0  0  0  0  0  0  0  0  0
    3.8624    0.6266    0.0000 O   0  0  0  0  0  0  0  0  0  0  0  0
    4.5769    1.8641    0.0000 C   0  0  0  0  0  0  0  0  0  0  0  0
    5.2913    1.4516    0.0000 C   0  0  0  0  0  0  0  0  0  0  0  0
    6.0058    1.8641    0.0000 C   0  0  0  0  0  0  0  0  0  0  0  0
    5.2913    0.6266    0.0000 C   0  0  0  0  0  0  0  0  0  0  0  0
    2.1315    2.5786    0.0000 H   0  0  0  0  0  0  0  0  0  0  0  0
    1.0045    2.2766    0.0000 H   0  0  0  0  0  0  0  0  0  0  0  0
    1.3065    1.1497    0.0000 H   0  0  0  0  0  0  0  0  0  0  0  0
    1.7190    1.0391    0.0000 H   0  0  0  0  0  0  0  0  0  0  0  0
    1.8501    0.0433    0.0000 H   0  0  0  0  0  0  0  0  0  0  0  0
    2.8459   -0.0878    0.0000 H   0  0  0  0  0  0  0  0  0  0  0  0
    3.2303    0.8402    0.0000 H   0  0  0  0  0  0  0  0  0  0  0  0
    3.5182    2.6014    0.0000 H   0  0  0  0  0  0  0  0  0  0  0  0
    2.7777    2.6014    0.0000 H   0  0  0  0  0  0  0  0  0  0  0  0
    4.9471    2.6014    0.0000 H   0  0  0  0  0  0  0  0  0  0  0  0
    4.2066    2.6014    0.0000 H   0  0  0  0  0  0  0  0  0  0  0  0
    5.2913    2.2766    0.0000 H   0  0  0  0  0  0  0  0  0  0  0  0
    6.2193    1.0672    0.0000 H   0  0  0  0  0  0  0  0  0  0  0  0
    6.8308    1.8641    0.0000 H   0  0  0  0  0  0  0  0  0  0  0  0
    6.2193    2.6610    0.0000 H   0  0  0  0  0  0  0  0  0  0  0  0
    4.4663    0.6266    0.0000 H   0  0  0  0  0  0  0  0  0  0  0  0
    5.2913   -0.1984    0.0000 H   0  0  0  0  0  0  0  0  0  0  0  0
    6.1163    0.6266    0.0000 H   0  0  0  0  0  0  0  0  0  0  0  0
  1  2  1  0  0  0  0
  2  3  1  0  0  0  0
  2  4  1  0  0  0  0
  4  5  1  0  0  0  0
  5  6  2  0  0  0  0
  5  7  1  0  0  0  0
  7  8  1  0  0  0  0
  8  9  1  0  0  0  0
  8 10  1  0  0  0  0
  1 11  1  0  0  0  0
  1 12  1  0  0  0  0
  1 13  1  0  0  0  0
  2 14  1  0  0  0  0
  3 15  1  0  0  0  0
  3 16  1  0  0  0  0
  3 17  1  0  0  0  0
  4 18  1  0  0  0  0
  4 19  1  0  0  0  0
  7 20  1  0  0  0  0
  7 21  1  0  0  0  0
  8 22  1  0  0  0  0
  9 23  1  0  0  0  0
  9 24  1  0  0  0  0
  9 25  1  0  0  0  0
 10 26  1  0  0  0  0
 10 27  1  0  0  0  0
 10 28  1  0  0  0  0
M  END
>  <InChIKey>
PTTPXKJBFFKCEK-UHFFFAOYSA-N

>  <UN GHS>
Non-irritant

>  <CASRN>
108-83-8

> <Outcome>
0

>  <Index>
614

>  <StandardizerResult>
Clear Stereo (ID: ClearStereo)
Wedge Clean (ID: WedgeClean)
Mesomerize (ID: Mesomerize)
Tautomerize (ID: Tautomerize)
Add Explicit Hydrogens (ID: AddExplicitH)
Neutralize (ID: Neutralize)
Clean 2D (ID: Clean2D)

> <knn Distance>
2.64575123786926

> <CpId>
614

$$$$
617
  Mrv1532301301811342D          

129128  0  0  0  0            999 V2000
   25.2730   15.4167    0.0000 C   0  0  0  0  0  0  0  0  0  0  0  0
   25.9875   15.0042    0.0000 C   0  0  0  0  0  0  0  0  0  0  0  0
   26.7020   15.4167    0.0000 C   0  0  0  0  0  0  0  0  0  0  0  0
   27.4164   15.0042    0.0000 C   0  0  0  0  0  0  0  0  0  0  0  0
   28.1309   15.4167    0.0000 C   0  0  0  0  0  0  0  0  0  0  0  0
   28.8454   15.0042    0.0000 C   0  0  0  0  0  0  0  0  0  0  0  0
   29.5599   15.4167    0.0000 C   0  0  0  0  0  0  0  0  0  0  0  0
   30.2743   15.0042    0.0000 C   0  0  0  0  0  0  0  0  0  0  0  0
   30.9888   15.4167    0.0000 C   0  0  0  0  0  0  0  0  0  0  0  0
   31.7033   15.0042    0.0000 C   0  0  0  0  0  0  0  0  0  0  0  0
   32.4177   15.4167    0.0000 C   0  0  0  0  0  0  0  0  0  0  0  0
   33.1322   15.0042    0.0000 C   0  0  0  0  0  0  0  0  0  0  0  0
   33.8467   15.4167    0.0000 C   0  0  0  0  0  0  0  0  0  0  0  0
   34.5612   15.0042    0.0000 C   0  0  0  0  0  0  0  0  0  0  0  0
   35.2756   15.4167    0.0000 C   0  0  0  0  0  0  0  0  0  0  0  0
   35.9901   15.0042    0.0000 C   0  0  0  0  0  0  0  0  0  0  0  0
   36.7046   15.4167    0.0000 C   0  0  0  0  0  0  0  0  0  0  0  0
   37.4190   15.0042    0.0000 C   0  0  0  0  0  0  0  0  0  0  0  0
   38.1335   15.4167    0.0000 O   0  0  0  0  0  0  0  0  0  0  0  0
   38.8480   15.0042    0.0000 C   0  0  0  0  0  0  0  0  0  0  0  0
   38.8480   14.1792    0.0000 O   0  0  0  0  0  0  0  0  0  0  0  0
   39.5624   15.4167    0.0000 C   0  0  0  0  0  0  0  0  0  0  0  0
   40.2769   15.0042    0.0000 C   0  0  0  0  0  0  0  0  0  0  0  0
   40.9914   15.4167    0.0000 S   0  0  0  0  0  0  0  0  0  0  0  0
   41.7059   15.0042    0.0000 C   0  0  0  0  0  0  0  0  0  0  0  0
   42.4203   15.4167    0.0000 C   0  0  0  0  0  0  0  0  0  0  0  0
   43.1348   15.0042    0.0000 C   0  0  0  0  0  0  0  0  0  0  0  0
   43.1348   14.1792    0.0000 O   0  0  0  0  0  0  0  0  0  0  0  0
   43.8493   15.4167    0.0000 O   0  0  0  0  0  0  0  0  0  0  0  0
   44.5637   15.0042    0.0000 C   0  0  0  0  0  0  0  0  0  0  0  0
   45.2782   15.4167    0.0000 C   0  0  0  0  0  0  0  0  0  0  0  0
   45.9927   15.0042    0.0000 C   0  0  0  0  0  0  0  0  0  0  0  0
   46.7072   15.4167    0.0000 C   0  0  0  0  0  0  0  0  0  0  0  0
   47.4216   15.0042    0.0000 C   0  0  0  0  0  0  0  0  0  0  0  0
   48.1361   15.4167    0.0000 C   0  0  0  0  0  0  0  0  0  0  0  0
   48.8506   15.0042    0.0000 C   0  0  0  0  0  0  0  0  0  0  0  0
   49.5650   15.4167    0.0000 C   0  0  0  0  0  0  0  0  0  0  0  0
   50.2795   15.0042    0.0000 C   0  0  0  0  0  0  0  0  0  0  0  0
   50.9940   15.4167    0.0000 C   0  0  0  0  0  0  0  0  0  0  0  0
   51.7085   15.0042    0.0000 C   0  0  0  0  0  0  0  0  0  0  0  0
   52.4229   15.4167    0.0000 C   0  0  0  0  0  0  0  0  0  0  0  0
   53.1374   15.0042    0.0000 C   0  0  0  0  0  0  0  0  0  0  0  0
   53.8519   15.4167    0.0000 C   0  0  0  0  0  0  0  0  0  0  0  0
   54.5663   15.0042    0.0000 C   0  0  0  0  0  0  0  0  0  0  0  0
   55.2808   15.4167    0.0000 C   0  0  0  0  0  0  0  0  0  0  0  0
   55.9953   15.0042    0.0000 C   0  0  0  0  0  0  0  0  0  0  0  0
   56.7098   15.4167    0.0000 C   0  0  0  0  0  0  0  0  0  0  0  0
   25.6855   16.1311    0.0000 H   0  0  0  0  0  0  0  0  0  0  0  0
   24.5586   15.8292    0.0000 H   0  0  0  0  0  0  0  0  0  0  0  0
   24.8605   14.7022    0.0000 H   0  0  0  0  0  0  0  0  0  0  0  0
   25.6172   14.2669    0.0000 H   0  0  0  0  0  0  0  0  0  0  0  0
   26.3578   14.2669    0.0000 H   0  0  0  0  0  0  0  0  0  0  0  0
   27.0722   16.1539    0.0000 H   0  0  0  0  0  0  0  0  0  0  0  0
   26.3317   16.1539    0.0000 H   0  0  0  0  0  0  0  0  0  0  0  0
   27.0462   14.2669    0.0000 H   0  0  0  0  0  0  0  0  0  0  0  0
   27.7867   14.2669    0.0000 H   0  0  0  0  0  0  0  0  0  0  0  0
   28.5012   16.1539    0.0000 H   0  0  0  0  0  0  0  0  0  0  0  0
   27.7607   16.1539    0.0000 H   0  0  0  0  0  0  0  0  0  0  0  0
   28.4751   14.2669    0.0000 H   0  0  0  0  0  0  0  0  0  0  0  0
   29.2156   14.2669    0.0000 H   0  0  0  0  0  0  0  0  0  0  0  0
   29.9301   16.1539    0.0000 H   0  0  0  0  0  0  0  0  0  0  0  0
   29.1896   16.1539    0.0000 H   0  0  0  0  0  0  0  0  0  0  0  0
   29.9041   14.2669    0.0000 H   0  0  0  0  0  0  0  0  0  0  0  0
   30.6446   14.2669    0.0000 H   0  0  0  0  0  0  0  0  0  0  0  0
   31.3591   16.1539    0.0000 H   0  0  0  0  0  0  0  0  0  0  0  0
   30.6185   16.1539    0.0000 H   0  0  0  0  0  0  0  0  0  0  0  0
   31.3330   14.2669    0.0000 H   0  0  0  0  0  0  0  0  0  0  0  0
   32.0735   14.2669    0.0000 H   0  0  0  0  0  0  0  0  0  0  0  0
   32.7880   16.1539    0.0000 H   0  0  0  0  0  0  0  0  0  0  0  0
   32.0475   16.1539    0.0000 H   0  0  0  0  0  0  0  0  0  0  0  0
   32.7620   14.2669    0.0000 H   0  0  0  0  0  0  0  0  0  0  0  0
   33.5025   14.2669    0.0000 H   0  0  0  0  0  0  0  0  0  0  0  0
   34.2169   16.1539    0.0000 H   0  0  0  0  0  0  0  0  0  0  0  0
   33.4764   16.1539    0.0000 H   0  0  0  0  0  0  0  0  0  0  0  0
   34.1909   14.2669    0.0000 H   0  0  0  0  0  0  0  0  0  0  0  0
   34.9314   14.2669    0.0000 H   0  0  0  0  0  0  0  0  0  0  0  0
   35.6459   16.1539    0.0000 H   0  0  0  0  0  0  0  0  0  0  0  0
   34.9054   16.1539    0.0000 H   0  0  0  0  0  0  0  0  0  0  0  0
   35.6198   14.2669    0.0000 H   0  0  0  0  0  0  0  0  0  0  0  0
   36.3604   14.2669    0.0000 H   0  0  0  0  0  0  0  0  0  0  0  0
   37.0748   16.1539    0.0000 H   0  0  0  0  0  0  0  0  0  0  0  0
   36.3343   16.1539    0.0000 H   0  0  0  0  0  0  0  0  0  0  0  0
   37.0488   14.2669    0.0000 H   0  0  0  0  0  0  0  0  0  0  0  0
   37.7893   14.2669    0.0000 H   0  0  0  0  0  0  0  0  0  0  0  0
   39.9327   16.1539    0.0000 H   0  0  0  0  0  0  0  0  0  0  0  0
   39.1922   16.1539    0.0000 H   0  0  0  0  0  0  0  0  0  0  0  0
   39.9067   14.2669    0.0000 H   0  0  0  0  0  0  0  0  0  0  0  0
   40.6472   14.2669    0.0000 H   0  0  0  0  0  0  0  0  0  0  0  0
   41.3356   14.2669    0.0000 H   0  0  0  0  0  0  0  0  0  0  0  0
   42.0761   14.2669    0.0000 H   0  0  0  0  0  0  0  0  0  0  0  0
   42.7906   16.1539    0.0000 H   0  0  0  0  0  0  0  0  0  0  0  0
   42.0501   16.1539    0.0000 H   0  0  0  0  0  0  0  0  0  0  0  0
   44.1935   14.2669    0.0000 H   0  0  0  0  0  0  0  0  0  0  0  0
   44.9340   14.2669    0.0000 H   0  0  0  0  0  0  0  0  0  0  0  0
   45.6485   16.1539    0.0000 H   0  0  0  0  0  0  0  0  0  0  0  0
   44.9080   16.1539    0.0000 H   0  0  0  0  0  0  0  0  0  0  0  0
   45.6224   14.2669    0.0000 H   0  0  0  0  0  0  0  0  0  0  0  0
   46.3629   14.2669    0.0000 H   0  0  0  0  0  0  0  0  0  0  0  0
   47.0774   16.1539    0.0000 H   0  0  0  0  0  0  0  0  0  0  0  0
   46.3369   16.1539    0.0000 H   0  0  0  0  0  0  0  0  0  0  0  0
   47.0514   14.2669    0.0000 H   0  0  0  0  0  0  0  0  0  0  0  0
   47.7919   14.2669    0.0000 H   0  0  0  0  0  0  0  0  0  0  0  0
   48.5064   16.1539    0.0000 H   0  0  0  0  0  0  0  0  0  0  0  0
   47.7658   16.1539    0.0000 H   0  0  0  0  0  0  0  0  0  0  0  0
   48.4803   14.2669    0.0000 H   0  0  0  0  0  0  0  0  0  0  0  0
   49.2208   14.2669    0.0000 H   0  0  0  0  0  0  0  0  0  0  0  0
   49.9353   16.1539    0.0000 H   0  0  0  0  0  0  0  0  0  0  0  0
   49.1948   16.1539    0.0000 H   0  0  0  0  0  0  0  0  0  0  0  0
   49.9093   14.2669    0.0000 H   0  0  0  0  0  0  0  0  0  0  0  0
   50.6498   14.2669    0.0000 H   0  0  0  0  0  0  0  0  0  0  0  0
   51.3642   16.1539    0.0000 H   0  0  0  0  0  0  0  0  0  0  0  0
   50.6237   16.1539    0.0000 H   0  0  0  0  0  0  0  0  0  0  0  0
   51.3382   14.2669    0.0000 H   0  0  0  0  0  0  0  0  0  0  0  0
   52.0787   14.2669    0.0000 H   0  0  0  0  0  0  0  0  0  0  0  0
   52.7932   16.1539    0.0000 H   0  0  0  0  0  0  0  0  0  0  0  0
   52.0527   16.1539    0.0000 H   0  0  0  0  0  0  0  0  0  0  0  0
   52.7671   14.2669    0.0000 H   0  0  0  0  0  0  0  0  0  0  0  0
   53.5077   14.2669    0.0000 H   0  0  0  0  0  0  0  0  0  0  0  0
   54.2221   16.1539    0.0000 H   0  0  0  0  0  0  0  0  0  0  0  0
   53.4816   16.1539    0.0000 H   0  0  0  0  0  0  0  0  0  0  0  0
   54.1961   14.2669    0.0000 H   0  0  0  0  0  0  0  0  0  0  0  0
   54.9366   14.2669    0.0000 H   0  0  0  0  0  0  0  0  0  0  0  0
   55.6511   16.1539    0.0000 H   0  0  0  0  0  0  0  0  0  0  0  0
   54.9105   16.1539    0.0000 H   0  0  0  0  0  0  0  0  0  0  0  0
   55.6250   14.2669    0.0000 H   0  0  0  0  0  0  0  0  0  0  0  0
   56.3655   14.2669    0.0000 H   0  0  0  0  0  0  0  0  0  0  0  0
   57.1223   14.7022    0.0000 H   0  0  0  0  0  0  0  0  0  0  0  0
   57.4242   15.8292    0.0000 H   0  0  0  0  0  0  0  0  0  0  0  0
   56.2973   16.1311    0.0000 H   0  0  0  0  0  0  0  0  0  0  0  0
  1  2  1  0  0  0  0
  2  3  1  0  0  0  0
  3  4  1  0  0  0  0
  4  5  1  0  0  0  0
  5  6  1  0  0  0  0
  6  7  1  0  0  0  0
  7  8  1  0  0  0  0
  8  9  1  0  0  0  0
  9 10  1  0  0  0  0
 10 11  1  0  0  0  0
 11 12  1  0  0  0  0
 12 13  1  0  0  0  0
 13 14  1  0  0  0  0
 14 15  1  0  0  0  0
 15 16  1  0  0  0  0
 16 17  1  0  0  0  0
 17 18  1  0  0  0  0
 18 19  1  0  0  0  0
 19 20  1  0  0  0  0
 20 21  2  0  0  0  0
 20 22  1  0  0  0  0
 22 23  1  0  0  0  0
 23 24  1  0  0  0  0
 24 25  1  0  0  0  0
 25 26  1  0  0  0  0
 26 27  1  0  0  0  0
 27 28  2  0  0  0  0
 27 29  1  0  0  0  0
 29 30  1  0  0  0  0
 30 31  1  0  0  0  0
 31 32  1  0  0  0  0
 32 33  1  0  0  0  0
 33 34  1  0  0  0  0
 34 35  1  0  0  0  0
 35 36  1  0  0  0  0
 36 37  1  0  0  0  0
 37 38  1  0  0  0  0
 38 39  1  0  0  0  0
 39 40  1  0  0  0  0
 40 41  1  0  0  0  0
 41 42  1  0  0  0  0
 42 43  1  0  0  0  0
 43 44  1  0  0  0  0
 44 45  1  0  0  0  0
 45 46  1  0  0  0  0
 46 47  1  0  0  0  0
  1 48  1  0  0  0  0
  1 49  1  0  0  0  0
  1 50  1  0  0  0  0
  2 51  1  0  0  0  0
  2 52  1  0  0  0  0
  3 53  1  0  0  0  0
  3 54  1  0  0  0  0
  4 55  1  0  0  0  0
  4 56  1  0  0  0  0
  5 57  1  0  0  0  0
  5 58  1  0  0  0  0
  6 59  1  0  0  0  0
  6 60  1  0  0  0  0
  7 61  1  0  0  0  0
  7 62  1  0  0  0  0
  8 63  1  0  0  0  0
  8 64  1  0  0  0  0
  9 65  1  0  0  0  0
  9 66  1  0  0  0  0
 10 67  1  0  0  0  0
 10 68  1  0  0  0  0
 11 69  1  0  0  0  0
 11 70  1  0  0  0  0
 12 71  1  0  0  0  0
 12 72  1  0  0  0  0
 13 73  1  0  0  0  0
 13 74  1  0  0  0  0
 14 75  1  0  0  0  0
 14 76  1  0  0  0  0
 15 77  1  0  0  0  0
 15 78  1  0  0  0  0
 16 79  1  0  0  0  0
 16 80  1  0  0  0  0
 17 81  1  0  0  0  0
 17 82  1  0  0  0  0
 18 83  1  0  0  0  0
 18 84  1  0  0  0  0
 22 85  1  0  0  0  0
 22 86  1  0  0  0  0
 23 87  1  0  0  0  0
 23 88  1  0  0  0  0
 25 89  1  0  0  0  0
 25 90  1  0  0  0  0
 26 91  1  0  0  0  0
 26 92  1  0  0  0  0
 30 93  1  0  0  0  0
 30 94  1  0  0  0  0
 31 95  1  0  0  0  0
 31 96  1  0  0  0  0
 32 97  1  0  0  0  0
 32 98  1  0  0  0  0
 33 99  1  0  0  0  0
 33100  1  0  0  0  0
 34101  1  0  0  0  0
 34102  1  0  0  0  0
 35103  1  0  0  0  0
 35104  1  0  0  0  0
 36105  1  0  0  0  0
 36106  1  0  0  0  0
 37107  1  0  0  0  0
 37108  1  0  0  0  0
 38109  1  0  0  0  0
 38110  1  0  0  0  0
 39111  1  0  0  0  0
 39112  1  0  0  0  0
 40113  1  0  0  0  0
 40114  1  0  0  0  0
 41115  1  0  0  0  0
 41116  1  0  0  0  0
 42117  1  0  0  0  0
 42118  1  0  0  0  0
 43119  1  0  0  0  0
 43120  1  0  0  0  0
 44121  1  0  0  0  0
 44122  1  0  0  0  0
 45123  1  0  0  0  0
 45124  1  0  0  0  0
 46125  1  0  0  0  0
 46126  1  0  0  0  0
 47127  1  0  0  0  0
 47128  1  0  0  0  0
 47129  1  0  0  0  0
M  END
>  <InChIKey>
PWWSSIYVTQUJQQ-UHFFFAOYSA-N

>  <UN GHS>
Non-irritant

>  <CASRN>
693-36-7

> <Outcome>
0

>  <Index>
617

>  <StandardizerResult>
Clear Stereo (ID: ClearStereo)
Wedge Clean (ID: WedgeClean)
Mesomerize (ID: Mesomerize)
Tautomerize (ID: Tautomerize)
Add Explicit Hydrogens (ID: AddExplicitH)
Neutralize (ID: Neutralize)
Clean 2D (ID: Clean2D)

> <knn Distance>
2.64575123786926

> <CpId>
617

$$$$
619
  Mrv1532301301811342D          

 54 53  0  0  0  0            999 V2000
    6.6571    4.7139    0.0000 C   0  0  0  0  0  0  0  0  0  0  0  0
    7.3716    4.3014    0.0000 C   0  0  0  0  0  0  0  0  0  0  0  0
    8.0860    4.7139    0.0000 C   0  0  0  0  0  0  0  0  0  0  0  0
    8.8005    4.3014    0.0000 C   0  0  0  0  0  0  0  0  0  0  0  0
    9.5150    4.7139    0.0000 C   0  0  0  0  0  0  0  0  0  0  0  0
    9.5150    5.5389    0.0000 C   0  0  0  0  0  0  0  0  0  0  0  0
   10.2294    5.9514    0.0000 C   0  0  0  0  0  0  0  0  0  0  0  0
   10.2294    4.3014    0.0000 C   0  0  0  0  0  0  0  0  0  0  0  0
   10.9439    4.7139    0.0000 O   0  0  0  0  0  0  0  0  0  0  0  0
   11.6584    4.3014    0.0000 C   0  0  0  0  0  0  0  0  0  0  0  0
   11.6584    3.4764    0.0000 O   0  0  0  0  0  0  0  0  0  0  0  0
   12.3728    4.7139    0.0000 O   0  0  0  0  0  0  0  0  0  0  0  0
   13.0873    4.3014    0.0000 C   0  0  0  0  0  0  0  0  0  0  0  0
   13.8018    4.7139    0.0000 C   0  0  0  0  0  0  0  0  0  0  0  0
   13.8018    5.5389    0.0000 C   0  0  0  0  0  0  0  0  0  0  0  0
   14.5163    5.9514    0.0000 C   0  0  0  0  0  0  0  0  0  0  0  0
   14.5163    4.3014    0.0000 C   0  0  0  0  0  0  0  0  0  0  0  0
   15.2307    4.7139    0.0000 C   0  0  0  0  0  0  0  0  0  0  0  0
   15.9452    4.3014    0.0000 C   0  0  0  0  0  0  0  0  0  0  0  0
   16.6597    4.7139    0.0000 C   0  0  0  0  0  0  0  0  0  0  0  0
    7.0696    5.4283    0.0000 H   0  0  0  0  0  0  0  0  0  0  0  0
    5.9426    5.1264    0.0000 H   0  0  0  0  0  0  0  0  0  0  0  0
    6.2446    3.9994    0.0000 H   0  0  0  0  0  0  0  0  0  0  0  0
    7.0013    3.5641    0.0000 H   0  0  0  0  0  0  0  0  0  0  0  0
    7.7418    3.5641    0.0000 H   0  0  0  0  0  0  0  0  0  0  0  0
    8.4563    5.4511    0.0000 H   0  0  0  0  0  0  0  0  0  0  0  0
    7.7158    5.4511    0.0000 H   0  0  0  0  0  0  0  0  0  0  0  0
    8.4302    3.5641    0.0000 H   0  0  0  0  0  0  0  0  0  0  0  0
    9.1708    3.5641    0.0000 H   0  0  0  0  0  0  0  0  0  0  0  0
    8.8005    5.1264    0.0000 H   0  0  0  0  0  0  0  0  0  0  0  0
    9.3717    6.3513    0.0000 H   0  0  0  0  0  0  0  0  0  0  0  0
    8.8830    6.0692    0.0000 H   0  0  0  0  0  0  0  0  0  0  0  0
   10.4603    5.1593    0.0000 H   0  0  0  0  0  0  0  0  0  0  0  0
   11.0537    5.9874    0.0000 H   0  0  0  0  0  0  0  0  0  0  0  0
   10.3904    6.7605    0.0000 H   0  0  0  0  0  0  0  0  0  0  0  0
    9.8592    3.5641    0.0000 H   0  0  0  0  0  0  0  0  0  0  0  0
   10.5997    3.5641    0.0000 H   0  0  0  0  0  0  0  0  0  0  0  0
   12.7171    3.5641    0.0000 H   0  0  0  0  0  0  0  0  0  0  0  0
   13.4576    3.5641    0.0000 H   0  0  0  0  0  0  0  0  0  0  0  0
   13.0873    5.1264    0.0000 H   0  0  0  0  0  0  0  0  0  0  0  0
   13.6585    6.3513    0.0000 H   0  0  0  0  0  0  0  0  0  0  0  0
   13.1698    6.0692    0.0000 H   0  0  0  0  0  0  0  0  0  0  0  0
   14.7471    5.1593    0.0000 H   0  0  0  0  0  0  0  0  0  0  0  0
   15.3405    5.9874    0.0000 H   0  0  0  0  0  0  0  0  0  0  0  0
   14.6772    6.7605    0.0000 H   0  0  0  0  0  0  0  0  0  0  0  0
   14.1460    3.5641    0.0000 H   0  0  0  0  0  0  0  0  0  0  0  0
   14.8865    3.5641    0.0000 H   0  0  0  0  0  0  0  0  0  0  0  0
   15.7194    5.3786    0.0000 H   0  0  0  0  0  0  0  0  0  0  0  0
   15.2307    3.8889    0.0000 H   0  0  0  0  0  0  0  0  0  0  0  0
   16.0885    3.4889    0.0000 H   0  0  0  0  0  0  0  0  0  0  0  0
   16.5772    3.7711    0.0000 H   0  0  0  0  0  0  0  0  0  0  0  0
   17.4409    4.4487    0.0000 H   0  0  0  0  0  0  0  0  0  0  0  0
   17.1029    5.4097    0.0000 H   0  0  0  0  0  0  0  0  0  0  0  0
   16.0892    5.3098    0.0000 H   0  0  0  0  0  0  0  0  0  0  0  0
  1  2  1  0  0  0  0
  2  3  1  0  0  0  0
  3  4  1  0  0  0  0
  4  5  1  0  0  0  0
  5  6  1  0  0  0  0
  6  7  1  0  0  0  0
  5  8  1  0  0  0  0
  8  9  1  0  0  0  0
  9 10  1  0  0  0  0
 10 11  2  0  0  0  0
 10 12  1  0  0  0  0
 12 13  1  0  0  0  0
 13 14  1  0  0  0  0
 14 15  1  0  0  0  0
 15 16  1  0  0  0  0
 14 17  1  0  0  0  0
 17 18  1  0  0  0  0
 18 19  1  0  0  0  0
 19 20  1  0  0  0  0
  1 21  1  0  0  0  0
  1 22  1  0  0  0  0
  1 23  1  0  0  0  0
  2 24  1  0  0  0  0
  2 25  1  0  0  0  0
  3 26  1  0  0  0  0
  3 27  1  0  0  0  0
  4 28  1  0  0  0  0
  4 29  1  0  0  0  0
  5 30  1  0  0  0  0
  6 31  1  0  0  0  0
  6 32  1  0  0  0  0
  7 33  1  0  0  0  0
  7 34  1  0  0  0  0
  7 35  1  0  0  0  0
  8 36  1  0  0  0  0
  8 37  1  0  0  0  0
 13 38  1  0  0  0  0
 13 39  1  0  0  0  0
 14 40  1  0  0  0  0
 15 41  1  0  0  0  0
 15 42  1  0  0  0  0
 16 43  1  0  0  0  0
 16 44  1  0  0  0  0
 16 45  1  0  0  0  0
 17 46  1  0  0  0  0
 17 47  1  0  0  0  0
 18 48  1  0  0  0  0
 18 49  1  0  0  0  0
 19 50  1  0  0  0  0
 19 51  1  0  0  0  0
 20 52  1  0  0  0  0
 20 53  1  0  0  0  0
 20 54  1  0  0  0  0
M  END
>  <InChIKey>
PXTQQOLKZBLYDY-UHFFFAOYSA-N

>  <UN GHS>
Non-irritant

>  <CASRN>
14858-73-2

> <Outcome>
0

>  <Index>
619

>  <StandardizerResult>
Clear Stereo (ID: ClearStereo)
Wedge Clean (ID: WedgeClean)
Mesomerize (ID: Mesomerize)
Tautomerize (ID: Tautomerize)
Add Explicit Hydrogens (ID: AddExplicitH)
Neutralize (ID: Neutralize)
Clean 2D (ID: Clean2D)

> <knn Distance>
2.64575123786926

> <CpId>
619

$$$$
637
  Mrv1532301301811342D          

 56 55  0  0  0  0            999 V2000
    9.1855    6.1283    0.0000 C   0  0  0  0  0  0  0  0  0  0  0  0
    9.9000    5.7158    0.0000 C   0  0  0  0  0  0  0  0  0  0  0  0
   10.6145    6.1283    0.0000 C   0  0  0  0  0  0  0  0  0  0  0  0
   11.3289    5.7158    0.0000 C   0  0  0  0  0  0  0  0  0  0  0  0
   12.0434    6.1283    0.0000 C   0  0  0  0  0  0  0  0  0  0  0  0
   12.7579    5.7158    0.0000 C   0  0  0  0  0  0  0  0  0  0  0  0
   13.4724    6.1283    0.0000 C   0  0  0  0  0  0  0  0  0  0  0  0
   14.1868    5.7158    0.0000 C   0  0  0  0  0  0  0  0  0  0  0  0
   14.9013    6.1283    0.0000 C   0  0  0  0  0  0  0  0  0  0  0  0
   15.6158    5.7158    0.0000 C   0  0  0  0  0  0  0  0  0  0  0  0
   16.3302    6.1283    0.0000 C   0  0  0  0  0  0  0  0  0  0  0  0
   17.0447    5.7158    0.0000 C   0  0  0  0  0  0  0  0  0  0  0  0
   17.7592    6.1283    0.0000 C   0  0  0  0  0  0  0  0  0  0  0  0
   18.4737    5.7158    0.0000 C   0  0  0  0  0  0  0  0  0  0  0  0
   19.1881    6.1283    0.0000 C   0  0  0  0  0  0  0  0  0  0  0  0
   19.9026    5.7158    0.0000 C   0  0  0  0  0  0  0  0  0  0  0  0
   20.6171    6.1283    0.0000 C   0  0  0  0  0  0  0  0  0  0  0  0
   21.3315    5.7158    0.0000 C   0  0  0  0  0  0  0  0  0  0  0  0
   22.0460    6.1283    0.0000 O   0  0  0  0  0  0  0  0  0  0  0  0
   21.3315    4.8908    0.0000 O   0  0  0  0  0  0  0  0  0  0  0  0
    9.5980    6.8428    0.0000 H   0  0  0  0  0  0  0  0  0  0  0  0
    8.4711    6.5408    0.0000 H   0  0  0  0  0  0  0  0  0  0  0  0
    8.7730    5.4138    0.0000 H   0  0  0  0  0  0  0  0  0  0  0  0
    9.5297    4.9786    0.0000 H   0  0  0  0  0  0  0  0  0  0  0  0
   10.2703    4.9786    0.0000 H   0  0  0  0  0  0  0  0  0  0  0  0
   10.9847    6.8655    0.0000 H   0  0  0  0  0  0  0  0  0  0  0  0
   10.2442    6.8655    0.0000 H   0  0  0  0  0  0  0  0  0  0  0  0
   10.9587    4.9786    0.0000 H   0  0  0  0  0  0  0  0  0  0  0  0
   11.6992    4.9786    0.0000 H   0  0  0  0  0  0  0  0  0  0  0  0
   12.4137    6.8655    0.0000 H   0  0  0  0  0  0  0  0  0  0  0  0
   11.6732    6.8655    0.0000 H   0  0  0  0  0  0  0  0  0  0  0  0
   12.3876    4.9786    0.0000 H   0  0  0  0  0  0  0  0  0  0  0  0
   13.1281    4.9786    0.0000 H   0  0  0  0  0  0  0  0  0  0  0  0
   13.8426    6.8655    0.0000 H   0  0  0  0  0  0  0  0  0  0  0  0
   13.1021    6.8655    0.0000 H   0  0  0  0  0  0  0  0  0  0  0  0
   13.8166    4.9786    0.0000 H   0  0  0  0  0  0  0  0  0  0  0  0
   14.5571    4.9786    0.0000 H   0  0  0  0  0  0  0  0  0  0  0  0
   15.2716    6.8655    0.0000 H   0  0  0  0  0  0  0  0  0  0  0  0
   14.5310    6.8655    0.0000 H   0  0  0  0  0  0  0  0  0  0  0  0
   15.2455    4.9786    0.0000 H   0  0  0  0  0  0  0  0  0  0  0  0
   15.9860    4.9786    0.0000 H   0  0  0  0  0  0  0  0  0  0  0  0
   16.7005    6.8655    0.0000 H   0  0  0  0  0  0  0  0  0  0  0  0
   15.9600    6.8655    0.0000 H   0  0  0  0  0  0  0  0  0  0  0  0
   16.6745    4.9786    0.0000 H   0  0  0  0  0  0  0  0  0  0  0  0
   17.4150    4.9786    0.0000 H   0  0  0  0  0  0  0  0  0  0  0  0
   18.1294    6.8655    0.0000 H   0  0  0  0  0  0  0  0  0  0  0  0
   17.3889    6.8655    0.0000 H   0  0  0  0  0  0  0  0  0  0  0  0
   18.1034    4.9786    0.0000 H   0  0  0  0  0  0  0  0  0  0  0  0
   18.8439    4.9786    0.0000 H   0  0  0  0  0  0  0  0  0  0  0  0
   19.5584    6.8655    0.0000 H   0  0  0  0  0  0  0  0  0  0  0  0
   18.8179    6.8655    0.0000 H   0  0  0  0  0  0  0  0  0  0  0  0
   19.5323    4.9786    0.0000 H   0  0  0  0  0  0  0  0  0  0  0  0
   20.2729    4.9786    0.0000 H   0  0  0  0  0  0  0  0  0  0  0  0
   20.9873    6.8655    0.0000 H   0  0  0  0  0  0  0  0  0  0  0  0
   20.2468    6.8655    0.0000 H   0  0  0  0  0  0  0  0  0  0  0  0
   22.7605    5.7158    0.0000 H   0  0  0  0  0  0  0  0  0  0  0  0
  1  2  1  0  0  0  0
  2  3  1  0  0  0  0
  3  4  1  0  0  0  0
  4  5  1  0  0  0  0
  5  6  1  0  0  0  0
  6  7  1  0  0  0  0
  7  8  1  0  0  0  0
  8  9  1  0  0  0  0
  9 10  1  0  0  0  0
 10 11  1  0  0  0  0
 11 12  1  0  0  0  0
 12 13  1  0  0  0  0
 13 14  1  0  0  0  0
 14 15  1  0  0  0  0
 15 16  1  0  0  0  0
 16 17  1  0  0  0  0
 17 18  1  0  0  0  0
 18 19  1  0  0  0  0
 18 20  2  0  0  0  0
  1 21  1  0  0  0  0
  1 22  1  0  0  0  0
  1 23  1  0  0  0  0
  2 24  1  0  0  0  0
  2 25  1  0  0  0  0
  3 26  1  0  0  0  0
  3 27  1  0  0  0  0
  4 28  1  0  0  0  0
  4 29  1  0  0  0  0
  5 30  1  0  0  0  0
  5 31  1  0  0  0  0
  6 32  1  0  0  0  0
  6 33  1  0  0  0  0
  7 34  1  0  0  0  0
  7 35  1  0  0  0  0
  8 36  1  0  0  0  0
  8 37  1  0  0  0  0
  9 38  1  0  0  0  0
  9 39  1  0  0  0  0
 10 40  1  0  0  0  0
 10 41  1  0  0  0  0
 11 42  1  0  0  0  0
 11 43  1  0  0  0  0
 12 44  1  0  0  0  0
 12 45  1  0  0  0  0
 13 46  1  0  0  0  0
 13 47  1  0  0  0  0
 14 48  1  0  0  0  0
 14 49  1  0  0  0  0
 15 50  1  0  0  0  0
 15 51  1  0  0  0  0
 16 52  1  0  0  0  0
 16 53  1  0  0  0  0
 17 54  1  0  0  0  0
 17 55  1  0  0  0  0
 19 56  1  0  0  0  0
M  END
>  <InChIKey>
QIQXTHQIDYTFRH-UHFFFAOYSA-M

>  <UN GHS>
Non-irritant

>  <CASRN>
13586-84-0

> <Outcome>
0

>  <Index>
637

>  <StandardizerResult>
Clear Stereo (ID: ClearStereo)
Wedge Clean (ID: WedgeClean)
Mesomerize (ID: Mesomerize)
Tautomerize (ID: Tautomerize)
Add Explicit Hydrogens (ID: AddExplicitH)
Neutralize (ID: Neutralize)
Clean 2D (ID: Clean2D)

> <knn Distance>
2.64575123786926

> <CpId>
637

$$$$
639
  Mrv1532301301811342D          

 61 60  0  0  0  0            999 V2000
   10.4230    6.8430    0.0000 C   0  0  0  0  0  0  0  0  0  0  0  0
   11.1375    6.4305    0.0000 C   0  0  0  0  0  0  0  0  0  0  0  0
   11.8520    6.8430    0.0000 C   0  0  0  0  0  0  0  0  0  0  0  0
   12.5664    6.4305    0.0000 C   0  0  0  0  0  0  0  0  0  0  0  0
   13.2809    6.8430    0.0000 C   0  0  0  0  0  0  0  0  0  0  0  0
   13.9954    6.4305    0.0000 C   0  0  0  0  0  0  0  0  0  0  0  0
   14.7099    6.8430    0.0000 C   0  0  0  0  0  0  0  0  0  0  0  0
   15.4243    6.4305    0.0000 C   0  0  0  0  0  0  0  0  0  0  0  0
   16.1388    6.8430    0.0000 C   0  0  0  0  0  0  0  0  0  0  0  0
   16.8533    6.4305    0.0000 C   0  0  0  0  0  0  0  0  0  0  0  0
   17.5677    6.8430    0.0000 C   0  0  0  0  0  0  0  0  0  0  0  0
   18.2822    6.4305    0.0000 C   0  0  0  0  0  0  0  0  0  0  0  0
   18.9967    6.8430    0.0000 C   0  0  0  0  0  0  0  0  0  0  0  0
   19.7112    6.4305    0.0000 C   0  0  0  0  0  0  0  0  0  0  0  0
   20.4256    6.8430    0.0000 C   0  0  0  0  0  0  0  0  0  0  0  0
   21.1401    6.4305    0.0000 C   0  0  0  0  0  0  0  0  0  0  0  0
   21.8546    6.8430    0.0000 C   0  0  0  0  0  0  0  0  0  0  0  0
   22.5690    6.4305    0.0000 C   0  0  0  0  0  0  0  0  0  0  0  0
   23.2835    6.8430    0.0000 O   0  0  0  0  0  0  0  0  0  0  0  0
   23.9980    6.4305    0.0000 C   0  0  0  0  0  0  0  0  0  0  0  0
   24.7124    6.8430    0.0000 C   0  0  0  0  0  0  0  0  0  0  0  0
   10.8355    7.5575    0.0000 H   0  0  0  0  0  0  0  0  0  0  0  0
    9.7086    7.2555    0.0000 H   0  0  0  0  0  0  0  0  0  0  0  0
   10.0105    6.1285    0.0000 H   0  0  0  0  0  0  0  0  0  0  0  0
   10.7672    5.6932    0.0000 H   0  0  0  0  0  0  0  0  0  0  0  0
   11.5078    5.6932    0.0000 H   0  0  0  0  0  0  0  0  0  0  0  0
   12.2222    7.5802    0.0000 H   0  0  0  0  0  0  0  0  0  0  0  0
   11.4817    7.5802    0.0000 H   0  0  0  0  0  0  0  0  0  0  0  0
   12.1962    5.6932    0.0000 H   0  0  0  0  0  0  0  0  0  0  0  0
   12.9367    5.6932    0.0000 H   0  0  0  0  0  0  0  0  0  0  0  0
   13.6512    7.5802    0.0000 H   0  0  0  0  0  0  0  0  0  0  0  0
   12.9107    7.5802    0.0000 H   0  0  0  0  0  0  0  0  0  0  0  0
   13.6251    5.6932    0.0000 H   0  0  0  0  0  0  0  0  0  0  0  0
   14.3656    5.6932    0.0000 H   0  0  0  0  0  0  0  0  0  0  0  0
   15.0801    7.5802    0.0000 H   0  0  0  0  0  0  0  0  0  0  0  0
   14.3396    7.5802    0.0000 H   0  0  0  0  0  0  0  0  0  0  0  0
   15.0541    5.6932    0.0000 H   0  0  0  0  0  0  0  0  0  0  0  0
   15.7946    5.6932    0.0000 H   0  0  0  0  0  0  0  0  0  0  0  0
   16.5091    7.5802    0.0000 H   0  0  0  0  0  0  0  0  0  0  0  0
   15.7685    7.5802    0.0000 H   0  0  0  0  0  0  0  0  0  0  0  0
   16.4830    5.6932    0.0000 H   0  0  0  0  0  0  0  0  0  0  0  0
   17.2235    5.6932    0.0000 H   0  0  0  0  0  0  0  0  0  0  0  0
   17.9380    7.5802    0.0000 H   0  0  0  0  0  0  0  0  0  0  0  0
   17.1975    7.5802    0.0000 H   0  0  0  0  0  0  0  0  0  0  0  0
   17.9119    5.6932    0.0000 H   0  0  0  0  0  0  0  0  0  0  0  0
   18.6525    5.6932    0.0000 H   0  0  0  0  0  0  0  0  0  0  0  0
   19.3669    7.5802    0.0000 H   0  0  0  0  0  0  0  0  0  0  0  0
   18.6264    7.5802    0.0000 H   0  0  0  0  0  0  0  0  0  0  0  0
   19.3409    5.6932    0.0000 H   0  0  0  0  0  0  0  0  0  0  0  0
   20.0814    5.6932    0.0000 H   0  0  0  0  0  0  0  0  0  0  0  0
   20.7959    7.5802    0.0000 H   0  0  0  0  0  0  0  0  0  0  0  0
   20.0554    7.5802    0.0000 H   0  0  0  0  0  0  0  0  0  0  0  0
   20.7698    5.6932    0.0000 H   0  0  0  0  0  0  0  0  0  0  0  0
   21.5104    5.6932    0.0000 H   0  0  0  0  0  0  0  0  0  0  0  0
   22.2248    7.5802    0.0000 H   0  0  0  0  0  0  0  0  0  0  0  0
   21.4843    7.5802    0.0000 H   0  0  0  0  0  0  0  0  0  0  0  0
   22.1988    5.6932    0.0000 H   0  0  0  0  0  0  0  0  0  0  0  0
   22.9393    5.6932    0.0000 H   0  0  0  0  0  0  0  0  0  0  0  0
   23.9980    5.6055    0.0000 H   0  0  0  0  0  0  0  0  0  0  0  0
   25.4269    6.4305    0.0000 H   0  0  0  0  0  0  0  0  0  0  0  0
   24.7124    7.6680    0.0000 H   0  0  0  0  0  0  0  0  0  0  0  0
  1  2  1  0  0  0  0
  2  3  1  0  0  0  0
  3  4  1  0  0  0  0
  4  5  1  0  0  0  0
  5  6  1  0  0  0  0
  6  7  1  0  0  0  0
  7  8  1  0  0  0  0
  8  9  1  0  0  0  0
  9 10  1  0  0  0  0
 10 11  1  0  0  0  0
 11 12  1  0  0  0  0
 12 13  1  0  0  0  0
 13 14  1  0  0  0  0
 14 15  1  0  0  0  0
 15 16  1  0  0  0  0
 16 17  1  0  0  0  0
 17 18  1  0  0  0  0
 18 19  1  0  0  0  0
 19 20  1  0  0  0  0
 20 21  2  0  0  0  0
  1 22  1  0  0  0  0
  1 23  1  0  0  0  0
  1 24  1  0  0  0  0
  2 25  1  0  0  0  0
  2 26  1  0  0  0  0
  3 27  1  0  0  0  0
  3 28  1  0  0  0  0
  4 29  1  0  0  0  0
  4 30  1  0  0  0  0
  5 31  1  0  0  0  0
  5 32  1  0  0  0  0
  6 33  1  0  0  0  0
  6 34  1  0  0  0  0
  7 35  1  0  0  0  0
  7 36  1  0  0  0  0
  8 37  1  0  0  0  0
  8 38  1  0  0  0  0
  9 39  1  0  0  0  0
  9 40  1  0  0  0  0
 10 41  1  0  0  0  0
 10 42  1  0  0  0  0
 11 43  1  0  0  0  0
 11 44  1  0  0  0  0
 12 45  1  0  0  0  0
 12 46  1  0  0  0  0
 13 47  1  0  0  0  0
 13 48  1  0  0  0  0
 14 49  1  0  0  0  0
 14 50  1  0  0  0  0
 15 51  1  0  0  0  0
 15 52  1  0  0  0  0
 16 53  1  0  0  0  0
 16 54  1  0  0  0  0
 17 55  1  0  0  0  0
 17 56  1  0  0  0  0
 18 57  1  0  0  0  0
 18 58  1  0  0  0  0
 20 59  1  0  0  0  0
 21 60  1  0  0  0  0
 21 61  1  0  0  0  0
M  END
>  <InChIKey>
QJJDJWUCRAPCOL-UHFFFAOYSA-N

>  <UN GHS>
Non-irritant

>  <CASRN>
930-02-9

> <Outcome>
0

>  <Index>
639

>  <StandardizerResult>
Clear Stereo (ID: ClearStereo)
Wedge Clean (ID: WedgeClean)
Mesomerize (ID: Mesomerize)
Tautomerize (ID: Tautomerize)
Add Explicit Hydrogens (ID: AddExplicitH)
Neutralize (ID: Neutralize)
Clean 2D (ID: Clean2D)

> <knn Distance>
2.64575123786926

> <CpId>
639

$$$$
649
  Mrv1532301301811342D          

 55 54  0  0  0  0            999 V2000
    6.6581    4.7139    0.0000 C   0  0  0  0  0  0  0  0  0  0  0  0
    7.3725    4.3014    0.0000 C   0  0  0  0  0  0  0  0  0  0  0  0
    8.0870    4.7139    0.0000 C   0  0  0  0  0  0  0  0  0  0  0  0
    8.8015    4.3014    0.0000 C   0  0  0  0  0  0  0  0  0  0  0  0
    9.5159    4.7139    0.0000 C   0  0  0  0  0  0  0  0  0  0  0  0
    9.5159    5.5389    0.0000 C   0  0  0  0  0  0  0  0  0  0  0  0
   10.2304    5.9514    0.0000 C   0  0  0  0  0  0  0  0  0  0  0  0
   10.2304    4.3014    0.0000 C   0  0  0  0  0  0  0  0  0  0  0  0
   10.9449    4.7139    0.0000 O   0  0  0  0  0  0  0  0  0  0  0  0
   11.6593    4.3014    0.0000 C   0  0  0  0  0  0  0  0  0  0  0  0
   12.3738    4.7139    0.0000 O   0  0  0  0  0  0  0  0  0  0  0  0
   13.0883    4.3014    0.0000 C   0  0  0  0  0  0  0  0  0  0  0  0
   13.8028    4.7139    0.0000 C   0  0  0  0  0  0  0  0  0  0  0  0
   13.8028    5.5389    0.0000 C   0  0  0  0  0  0  0  0  0  0  0  0
   14.5172    5.9514    0.0000 C   0  0  0  0  0  0  0  0  0  0  0  0
   14.5172    4.3014    0.0000 C   0  0  0  0  0  0  0  0  0  0  0  0
   15.2317    4.7139    0.0000 C   0  0  0  0  0  0  0  0  0  0  0  0
   15.9462    4.3014    0.0000 C   0  0  0  0  0  0  0  0  0  0  0  0
   16.6606    4.7139    0.0000 C   0  0  0  0  0  0  0  0  0  0  0  0
    7.0706    5.4284    0.0000 H   0  0  0  0  0  0  0  0  0  0  0  0
    5.9436    5.1264    0.0000 H   0  0  0  0  0  0  0  0  0  0  0  0
    6.2456    3.9995    0.0000 H   0  0  0  0  0  0  0  0  0  0  0  0
    7.0023    3.5642    0.0000 H   0  0  0  0  0  0  0  0  0  0  0  0
    7.7428    3.5642    0.0000 H   0  0  0  0  0  0  0  0  0  0  0  0
    8.4573    5.4512    0.0000 H   0  0  0  0  0  0  0  0  0  0  0  0
    7.7167    5.4512    0.0000 H   0  0  0  0  0  0  0  0  0  0  0  0
    8.4312    3.5642    0.0000 H   0  0  0  0  0  0  0  0  0  0  0  0
    9.1717    3.5642    0.0000 H   0  0  0  0  0  0  0  0  0  0  0  0
    8.8015    5.1264    0.0000 H   0  0  0  0  0  0  0  0  0  0  0  0
    9.3727    6.3514    0.0000 H   0  0  0  0  0  0  0  0  0  0  0  0
    8.8839    6.0692    0.0000 H   0  0  0  0  0  0  0  0  0  0  0  0
   10.4613    5.1594    0.0000 H   0  0  0  0  0  0  0  0  0  0  0  0
   11.0546    5.9874    0.0000 H   0  0  0  0  0  0  0  0  0  0  0  0
   10.3914    6.7606    0.0000 H   0  0  0  0  0  0  0  0  0  0  0  0
    9.8601    3.5642    0.0000 H   0  0  0  0  0  0  0  0  0  0  0  0
   10.6007    3.5642    0.0000 H   0  0  0  0  0  0  0  0  0  0  0  0
   11.2891    3.5642    0.0000 H   0  0  0  0  0  0  0  0  0  0  0  0
   12.0296    3.5642    0.0000 H   0  0  0  0  0  0  0  0  0  0  0  0
   12.7180    3.5642    0.0000 H   0  0  0  0  0  0  0  0  0  0  0  0
   13.4585    3.5642    0.0000 H   0  0  0  0  0  0  0  0  0  0  0  0
   13.0883    5.1264    0.0000 H   0  0  0  0  0  0  0  0  0  0  0  0
   13.6595    6.3514    0.0000 H   0  0  0  0  0  0  0  0  0  0  0  0
   13.1708    6.0692    0.0000 H   0  0  0  0  0  0  0  0  0  0  0  0
   14.7481    5.1594    0.0000 H   0  0  0  0  0  0  0  0  0  0  0  0
   15.3414    5.9874    0.0000 H   0  0  0  0  0  0  0  0  0  0  0  0
   14.6782    6.7606    0.0000 H   0  0  0  0  0  0  0  0  0  0  0  0
   14.1470    3.5642    0.0000 H   0  0  0  0  0  0  0  0  0  0  0  0
   14.8875    3.5642    0.0000 H   0  0  0  0  0  0  0  0  0  0  0  0
   15.7204    5.3786    0.0000 H   0  0  0  0  0  0  0  0  0  0  0  0
   15.2317    3.8889    0.0000 H   0  0  0  0  0  0  0  0  0  0  0  0
   16.0894    3.4890    0.0000 H   0  0  0  0  0  0  0  0  0  0  0  0
   16.5782    3.7711    0.0000 H   0  0  0  0  0  0  0  0  0  0  0  0
   17.4419    4.4487    0.0000 H   0  0  0  0  0  0  0  0  0  0  0  0
   17.1039    5.4097    0.0000 H   0  0  0  0  0  0  0  0  0  0  0  0
   16.0901    5.3099    0.0000 H   0  0  0  0  0  0  0  0  0  0  0  0
  1  2  1  0  0  0  0
  2  3  1  0  0  0  0
  3  4  1  0  0  0  0
  4  5  1  0  0  0  0
  5  6  1  0  0  0  0
  6  7  1  0  0  0  0
  5  8  1  0  0  0  0
  8  9  1  0  0  0  0
  9 10  1  0  0  0  0
 10 11  1  0  0  0  0
 11 12  1  0  0  0  0
 12 13  1  0  0  0  0
 13 14  1  0  0  0  0
 14 15  1  0  0  0  0
 13 16  1  0  0  0  0
 16 17  1  0  0  0  0
 17 18  1  0  0  0  0
 18 19  1  0  0  0  0
  1 20  1  0  0  0  0
  1 21  1  0  0  0  0
  1 22  1  0  0  0  0
  2 23  1  0  0  0  0
  2 24  1  0  0  0  0
  3 25  1  0  0  0  0
  3 26  1  0  0  0  0
  4 27  1  0  0  0  0
  4 28  1  0  0  0  0
  5 29  1  0  0  0  0
  6 30  1  0  0  0  0
  6 31  1  0  0  0  0
  7 32  1  0  0  0  0
  7 33  1  0  0  0  0
  7 34  1  0  0  0  0
  8 35  1  0  0  0  0
  8 36  1  0  0  0  0
 10 37  1  0  0  0  0
 10 38  1  0  0  0  0
 12 39  1  0  0  0  0
 12 40  1  0  0  0  0
 13 41  1  0  0  0  0
 14 42  1  0  0  0  0
 14 43  1  0  0  0  0
 15 44  1  0  0  0  0
 15 45  1  0  0  0  0
 15 46  1  0  0  0  0
 16 47  1  0  0  0  0
 16 48  1  0  0  0  0
 17 49  1  0  0  0  0
 17 50  1  0  0  0  0
 18 51  1  0  0  0  0
 18 52  1  0  0  0  0
 19 53  1  0  0  0  0
 19 54  1  0  0  0  0
 19 55  1  0  0  0  0
M  END
>  <InChIKey>
QPIWJVQXEMCELO-UHFFFAOYSA-N

>  <UN GHS>
Non-irritant

>  <CASRN>
22174-70-5

> <Outcome>
0

>  <Index>
649

>  <StandardizerResult>
Clear Stereo (ID: ClearStereo)
Wedge Clean (ID: WedgeClean)
Mesomerize (ID: Mesomerize)
Tautomerize (ID: Tautomerize)
Add Explicit Hydrogens (ID: AddExplicitH)
Neutralize (ID: Neutralize)
Clean 2D (ID: Clean2D)

> <knn Distance>
2.64575123786926

> <CpId>
649

$$$$
652
  Mrv1532301301811342D          

 18 18  0  0  0  0            999 V2000
    1.4289    2.4750    0.0000 O   0  0  0  0  0  0  0  0  0  0  0  0
    0.7145    2.0625    0.0000 C   0  0  0  0  0  0  0  0  0  0  0  0
   -0.0000    2.4750    0.0000 O   0  0  0  0  0  0  0  0  0  0  0  0
    0.7145    1.2375    0.0000 C   0  0  0  0  0  0  0  0  0  0  0  0
    1.4289    0.8250    0.0000 C   0  0  0  0  0  0  0  0  0  0  0  0
    1.4289    0.0000    0.0000 C   0  0  0  0  0  0  0  0  0  0  0  0
    0.7145   -0.4125    0.0000 C   0  0  0  0  0  0  0  0  0  0  0  0
   -0.0000    0.0000    0.0000 C   0  0  0  0  0  0  0  0  0  0  0  0
   -0.0000    0.8250    0.0000 C   0  0  0  0  0  0  0  0  0  0  0  0
   -0.7145   -0.4125    0.0000 C   0  0  0  0  0  0  0  0  0  0  0  0
   -0.7145   -1.2375    0.0000 O   0  0  0  0  0  0  0  0  0  0  0  0
   -1.4289    0.0000    0.0000 O   0  0  0  0  0  0  0  0  0  0  0  0
    2.1434    2.0625    0.0000 H   0  0  0  0  0  0  0  0  0  0  0  0
    2.1434    1.2375    0.0000 H   0  0  0  0  0  0  0  0  0  0  0  0
    2.1434   -0.4125    0.0000 H   0  0  0  0  0  0  0  0  0  0  0  0
    0.7145   -1.2375    0.0000 H   0  0  0  0  0  0  0  0  0  0  0  0
   -0.7145    1.2375    0.0000 H   0  0  0  0  0  0  0  0  0  0  0  0
   -1.4289   -1.6500    0.0000 H   0  0  0  0  0  0  0  0  0  0  0  0
  1  2  1  0  0  0  0
  2  3  2  0  0  0  0
  2  4  1  0  0  0  0
  4  5  4  0  0  0  0
  5  6  4  0  0  0  0
  6  7  4  0  0  0  0
  7  8  4  0  0  0  0
  8  9  4  0  0  0  0
  4  9  4  0  0  0  0
  8 10  1  0  0  0  0
 10 11  1  0  0  0  0
 10 12  2  0  0  0  0
  1 13  1  0  0  0  0
  5 14  1  0  0  0  0
  6 15  1  0  0  0  0
  7 16  1  0  0  0  0
  9 17  1  0  0  0  0
 11 18  1  0  0  0  0
M  END
>  <InChIKey>
QQVIHTHCMHWDBS-UHFFFAOYSA-N

>  <UN GHS>
Non-irritant

>  <CASRN>
121-91-5

> <Outcome>
0

>  <Index>
652

>  <StandardizerResult>
Dearomatize (ID: Dearomatize)
Clear Stereo (ID: ClearStereo)
Wedge Clean (ID: WedgeClean)
Mesomerize (ID: Mesomerize)
Tautomerize (ID: Tautomerize)
Aromatize (ID: Aromatize)
Add Explicit Hydrogens (ID: AddExplicitH)
Neutralize (ID: Neutralize)
Clean 2D (ID: Clean2D)

> <knn Distance>
2.64575123786926

> <CpId>
652

$$$$
676
  Mrv1532301301811342D          

 19 18  0  0  0  0            999 V2000
    2.8875   -2.9684    0.0000 F   0  0  0  0  0  0  0  0  0  0  0  0
    2.4750   -2.2539    0.0000 C   0  0  0  0  0  0  0  0  0  0  0  0
    3.1895   -1.8414    0.0000 F   0  0  0  0  0  0  0  0  0  0  0  0
    1.7605   -2.6664    0.0000 F   0  0  0  0  0  0  0  0  0  0  0  0
    2.0625   -1.5395    0.0000 C   0  0  0  0  0  0  0  0  0  0  0  0
    2.7770   -1.1270    0.0000 F   0  0  0  0  0  0  0  0  0  0  0  0
    1.3480   -1.9520    0.0000 F   0  0  0  0  0  0  0  0  0  0  0  0
    1.6500   -0.8250    0.0000 C   0  0  0  0  0  0  0  0  0  0  0  0
    2.0625   -0.1105    0.0000 O   0  0  0  0  0  0  0  0  0  0  0  0
    0.8250   -0.8250    0.0000 C   0  0  0  0  0  0  0  0  0  0  0  0
   -0.0000   -0.8250    0.0000 F   0  0  0  0  0  0  0  0  0  0  0  0
    0.8250   -1.6500    0.0000 C   0  0  0  0  0  0  0  0  0  0  0  0
    0.8250   -2.4750    0.0000 F   0  0  0  0  0  0  0  0  0  0  0  0
   -0.0000   -1.6500    0.0000 F   0  0  0  0  0  0  0  0  0  0  0  0
    1.3099   -2.3174    0.0000 F   0  0  0  0  0  0  0  0  0  0  0  0
    0.8250    0.0000    0.0000 C   0  0  0  0  0  0  0  0  0  0  0  0
    0.8250    0.8250    0.0000 F   0  0  0  0  0  0  0  0  0  0  0  0
    1.6500    0.0000    0.0000 F   0  0  0  0  0  0  0  0  0  0  0  0
   -0.0000    0.0000    0.0000 F   0  0  0  0  0  0  0  0  0  0  0  0
  1  2  1  0  0  0  0
  2  3  1  0  0  0  0
  2  4  1  0  0  0  0
  2  5  1  0  0  0  0
  5  6  1  0  0  0  0
  5  7  1  0  0  0  0
  5  8  1  0  0  0  0
  8  9  2  0  0  0  0
  8 10  1  0  0  0  0
 10 11  1  0  0  0  0
 10 12  1  0  0  0  0
 12 13  1  0  0  0  0
 12 14  1  0  0  0  0
 12 15  1  0  0  0  0
 10 16  1  0  0  0  0
 16 17  1  0  0  0  0
 16 18  1  0  0  0  0
 16 19  1  0  0  0  0
M  END
>  <InChIKey>
RMLFHPWPTXWZNJ-UHFFFAOYSA-N

>  <UN GHS>
Non-irritant

>  <CASRN>
756-13-8

> <Outcome>
0

>  <Index>
676

>  <StandardizerResult>
Clear Stereo (ID: ClearStereo)
Wedge Clean (ID: WedgeClean)
Mesomerize (ID: Mesomerize)
Tautomerize (ID: Tautomerize)
Clean 2D (ID: Clean2D)

> <knn Distance>
2.64575123786926

> <CpId>
676

$$$$
695
  Mrv1532301301811342D          

 23 23  0  0  0  0            999 V2000
   -0.0000    2.4750    0.0000 C   0  0  0  0  0  0  0  0  0  0  0  0
    0.7145    2.0625    0.0000 O   0  0  0  0  0  0  0  0  0  0  0  0
    0.7145    1.2375    0.0000 C   0  0  0  0  0  0  0  0  0  0  0  0
    1.4289    0.8250    0.0000 C   0  0  0  0  0  0  0  0  0  0  0  0
    1.4289   -0.0000    0.0000 C   0  0  0  0  0  0  0  0  0  0  0  0
    0.7145   -0.4125    0.0000 C   0  0  0  0  0  0  0  0  0  0  0  0
    0.7145   -1.2375    0.0000 C   0  0  0  0  0  0  0  0  0  0  0  0
   -0.0000   -1.6500    0.0000 C   0  0  0  0  0  0  0  0  0  0  0  0
   -0.0000   -2.4750    0.0000 C   0  0  0  0  0  0  0  0  0  0  0  0
   -0.0000   -0.0000    0.0000 C   0  0  0  0  0  0  0  0  0  0  0  0
   -0.0000    0.8250    0.0000 C   0  0  0  0  0  0  0  0  0  0  0  0
    0.4125    3.1895    0.0000 H   0  0  0  0  0  0  0  0  0  0  0  0
   -0.7145    2.8875    0.0000 H   0  0  0  0  0  0  0  0  0  0  0  0
   -0.4125    1.7605    0.0000 H   0  0  0  0  0  0  0  0  0  0  0  0
    2.1434    1.2375    0.0000 H   0  0  0  0  0  0  0  0  0  0  0  0
    2.1434   -0.4125    0.0000 H   0  0  0  0  0  0  0  0  0  0  0  0
    1.4289   -1.6500    0.0000 H   0  0  0  0  0  0  0  0  0  0  0  0
   -0.7145   -1.2375    0.0000 H   0  0  0  0  0  0  0  0  0  0  0  0
   -0.8250   -2.4750    0.0000 H   0  0  0  0  0  0  0  0  0  0  0  0
   -0.0000   -3.3000    0.0000 H   0  0  0  0  0  0  0  0  0  0  0  0
    0.8250   -2.4750    0.0000 H   0  0  0  0  0  0  0  0  0  0  0  0
   -0.7145   -0.4125    0.0000 H   0  0  0  0  0  0  0  0  0  0  0  0
   -0.7145    1.2375    0.0000 H   0  0  0  0  0  0  0  0  0  0  0  0
  1  2  1  0  0  0  0
  2  3  1  0  0  0  0
  3  4  4  0  0  0  0
  4  5  4  0  0  0  0
  5  6  4  0  0  0  0
  6  7  1  0  0  0  0
  7  8  2  0  0  0  0
  8  9  1  4  0  0  0
  6 10  4  0  0  0  0
 10 11  4  0  0  0  0
  3 11  4  0  0  0  0
  1 12  1  0  0  0  0
  1 13  1  0  0  0  0
  1 14  1  0  0  0  0
  4 15  1  0  0  0  0
  5 16  1  0  0  0  0
  7 17  1  0  0  0  0
  8 18  1  0  0  0  0
  9 19  1  0  0  0  0
  9 20  1  0  0  0  0
  9 21  1  0  0  0  0
 10 22  1  0  0  0  0
 11 23  1  0  0  0  0
M  END
>  <InChIKey>
RUVINXPYWBROJD-ONEGZZNKSA-N

>  <UN GHS>
Non-irritant

>  <CASRN>
4180-23-8

> <Outcome>
0

>  <Index>
695

>  <StandardizerResult>
Dearomatize (ID: Dearomatize)
Clear Stereo (ID: ClearStereo)
Wedge Clean (ID: WedgeClean)
Mesomerize (ID: Mesomerize)
Tautomerize (ID: Tautomerize)
Aromatize (ID: Aromatize)
Add Explicit Hydrogens (ID: AddExplicitH)
Neutralize (ID: Neutralize)
Clean 2D (ID: Clean2D)

> <knn Distance>
2.64575123786926

> <CpId>
695

$$$$
698
  Mrv1532301301811342D          

 25 24  0  0  0  0            999 V2000
    1.0246    1.4440    0.0000 C   0  0  0  0  0  0  0  0  0  0  0  0
    1.7390    1.8565    0.0000 C   0  0  0  0  0  0  0  0  0  0  0  0
    2.4535    1.4440    0.0000 C   0  0  0  0  0  0  0  0  0  0  0  0
    3.1680    1.8565    0.0000 C   0  0  0  0  0  0  0  0  0  0  0  0
    3.8825    1.4440    0.0000 O   0  0  0  0  0  0  0  0  0  0  0  0
    4.5969    1.8565    0.0000 C   0  0  0  0  0  0  0  0  0  0  0  0
    5.3114    1.4440    0.0000 C   0  0  0  0  0  0  0  0  0  0  0  0
    6.0259    1.8565    0.0000 C   0  0  0  0  0  0  0  0  0  0  0  0
    5.3114    0.6190    0.0000 O   0  0  0  0  0  0  0  0  0  0  0  0
    0.6121    2.1585    0.0000 H   0  0  0  0  0  0  0  0  0  0  0  0
    0.3101    1.0315    0.0000 H   0  0  0  0  0  0  0  0  0  0  0  0
    1.4371    0.7295    0.0000 H   0  0  0  0  0  0  0  0  0  0  0  0
    2.1093    2.5937    0.0000 H   0  0  0  0  0  0  0  0  0  0  0  0
    1.3688    2.5937    0.0000 H   0  0  0  0  0  0  0  0  0  0  0  0
    2.0833    0.7067    0.0000 H   0  0  0  0  0  0  0  0  0  0  0  0
    2.8238    0.7067    0.0000 H   0  0  0  0  0  0  0  0  0  0  0  0
    3.5382    2.5937    0.0000 H   0  0  0  0  0  0  0  0  0  0  0  0
    2.7977    2.5937    0.0000 H   0  0  0  0  0  0  0  0  0  0  0  0
    4.9672    2.5937    0.0000 H   0  0  0  0  0  0  0  0  0  0  0  0
    4.2267    2.5937    0.0000 H   0  0  0  0  0  0  0  0  0  0  0  0
    5.3114    2.2690    0.0000 H   0  0  0  0  0  0  0  0  0  0  0  0
    6.2394    1.0596    0.0000 H   0  0  0  0  0  0  0  0  0  0  0  0
    6.8509    1.8565    0.0000 H   0  0  0  0  0  0  0  0  0  0  0  0
    6.2394    2.6534    0.0000 H   0  0  0  0  0  0  0  0  0  0  0  0
    4.5969    0.2065    0.0000 H   0  0  0  0  0  0  0  0  0  0  0  0
  1  2  1  0  0  0  0
  2  3  1  0  0  0  0
  3  4  1  0  0  0  0
  4  5  1  0  0  0  0
  5  6  1  0  0  0  0
  6  7  1  0  0  0  0
  7  8  1  0  0  0  0
  7  9  1  0  0  0  0
  1 10  1  0  0  0  0
  1 11  1  0  0  0  0
  1 12  1  0  0  0  0
  2 13  1  0  0  0  0
  2 14  1  0  0  0  0
  3 15  1  0  0  0  0
  3 16  1  0  0  0  0
  4 17  1  0  0  0  0
  4 18  1  0  0  0  0
  6 19  1  0  0  0  0
  6 20  1  0  0  0  0
  7 21  1  0  0  0  0
  8 22  1  0  0  0  0
  8 23  1  0  0  0  0
  8 24  1  0  0  0  0
  9 25  1  0  0  0  0
M  END
>  <InChIKey>
RWNUSVWFHDHRCJ-UHFFFAOYSA-N

>  <UN GHS>
Non-irritant

>  <CASRN>
5131-66-8

> <Outcome>
0

>  <Index>
698

>  <StandardizerResult>
Clear Stereo (ID: ClearStereo)
Wedge Clean (ID: WedgeClean)
Mesomerize (ID: Mesomerize)
Tautomerize (ID: Tautomerize)
Add Explicit Hydrogens (ID: AddExplicitH)
Neutralize (ID: Neutralize)
Clean 2D (ID: Clean2D)

> <knn Distance>
2.64575123786926

> <CpId>
698

$$$$
719
  Mrv1532301301811342D          

 23 22  0  0  0  0            999 V2000
    2.9980    2.5559    0.0000 C   0  0  0  0  0  0  0  0  0  0  0  0
    3.7125    2.1434    0.0000 O   0  0  0  0  0  0  0  0  0  0  0  0
    4.4270    2.5559    0.0000 C   0  0  0  0  0  0  0  0  0  0  0  0
    5.1414    2.1434    0.0000 C   0  0  0  0  0  0  0  0  0  0  0  0
    5.8559    2.5559    0.0000 O   0  0  0  0  0  0  0  0  0  0  0  0
    6.5704    2.1434    0.0000 C   0  0  0  0  0  0  0  0  0  0  0  0
    7.2849    2.5559    0.0000 C   0  0  0  0  0  0  0  0  0  0  0  0
    7.9993    2.1434    0.0000 O   0  0  0  0  0  0  0  0  0  0  0  0
    8.7138    2.5559    0.0000 C   0  0  0  0  0  0  0  0  0  0  0  0
    3.4105    3.2704    0.0000 H   0  0  0  0  0  0  0  0  0  0  0  0
    2.2836    2.9684    0.0000 H   0  0  0  0  0  0  0  0  0  0  0  0
    2.5855    1.8414    0.0000 H   0  0  0  0  0  0  0  0  0  0  0  0
    4.7972    3.2931    0.0000 H   0  0  0  0  0  0  0  0  0  0  0  0
    4.0567    3.2931    0.0000 H   0  0  0  0  0  0  0  0  0  0  0  0
    4.7712    1.4062    0.0000 H   0  0  0  0  0  0  0  0  0  0  0  0
    5.5117    1.4062    0.0000 H   0  0  0  0  0  0  0  0  0  0  0  0
    6.2001    1.4062    0.0000 H   0  0  0  0  0  0  0  0  0  0  0  0
    6.9406    1.4062    0.0000 H   0  0  0  0  0  0  0  0  0  0  0  0
    7.6551    3.2931    0.0000 H   0  0  0  0  0  0  0  0  0  0  0  0
    6.9146    3.2931    0.0000 H   0  0  0  0  0  0  0  0  0  0  0  0
    9.1263    1.8414    0.0000 H   0  0  0  0  0  0  0  0  0  0  0  0
    9.4283    2.9684    0.0000 H   0  0  0  0  0  0  0  0  0  0  0  0
    8.3013    3.2704    0.0000 H   0  0  0  0  0  0  0  0  0  0  0  0
  1  2  1  0  0  0  0
  2  3  1  0  0  0  0
  3  4  1  0  0  0  0
  4  5  1  0  0  0  0
  5  6  1  0  0  0  0
  6  7  1  0  0  0  0
  7  8  1  0  0  0  0
  8  9  1  0  0  0  0
  1 10  1  0  0  0  0
  1 11  1  0  0  0  0
  1 12  1  0  0  0  0
  3 13  1  0  0  0  0
  3 14  1  0  0  0  0
  4 15  1  0  0  0  0
  4 16  1  0  0  0  0
  6 17  1  0  0  0  0
  6 18  1  0  0  0  0
  7 19  1  0  0  0  0
  7 20  1  0  0  0  0
  9 21  1  0  0  0  0
  9 22  1  0  0  0  0
  9 23  1  0  0  0  0
M  END
>  <InChIKey>
SBZXBUIDTXKZTM-UHFFFAOYSA-N

>  <UN GHS>
Non-irritant

>  <CASRN>
111-96-6

> <Outcome>
0

>  <Index>
719

>  <StandardizerResult>
Clear Stereo (ID: ClearStereo)
Wedge Clean (ID: WedgeClean)
Mesomerize (ID: Mesomerize)
Tautomerize (ID: Tautomerize)
Add Explicit Hydrogens (ID: AddExplicitH)
Neutralize (ID: Neutralize)
Clean 2D (ID: Clean2D)

> <knn Distance>
2.64575123786926

> <CpId>
719

$$$$
742
  Mrv1532301301811342D          

 66 65  0  0  0  0            999 V2000
    9.7086    6.4299    0.0000 C   0  0  0  0  0  0  0  0  0  0  0  0
   10.4230    6.8424    0.0000 C   0  0  0  0  0  0  0  0  0  0  0  0
   11.1375    6.4299    0.0000 C   0  0  0  0  0  0  0  0  0  0  0  0
   11.8520    6.8424    0.0000 C   0  0  0  0  0  0  0  0  0  0  0  0
   12.5664    6.4299    0.0000 C   0  0  0  0  0  0  0  0  0  0  0  0
   13.2809    6.8424    0.0000 C   0  0  0  0  0  0  0  0  0  0  0  0
   13.9954    6.4299    0.0000 C   0  0  0  0  0  0  0  0  0  0  0  0
   14.7099    6.8424    0.0000 C   0  0  0  0  0  0  0  0  0  0  0  0
   15.4243    6.4299    0.0000 C   0  0  0  0  0  0  0  0  0  0  0  0
   16.1388    6.8424    0.0000 C   0  0  0  0  0  0  0  0  0  0  0  0
   16.8533    6.4299    0.0000 C   0  0  0  0  0  0  0  0  0  0  0  0
   17.5677    6.8424    0.0000 C   0  0  0  0  0  0  0  0  0  0  0  0
   18.2822    6.4299    0.0000 C   0  0  0  0  0  0  0  0  0  0  0  0
   18.9967    6.8424    0.0000 C   0  0  0  0  0  0  0  0  0  0  0  0
   19.7112    6.4299    0.0000 C   0  0  0  0  0  0  0  0  0  0  0  0
   20.4256    6.8424    0.0000 C   0  0  0  0  0  0  0  0  0  0  0  0
   21.1401    6.4299    0.0000 C   0  0  0  0  0  0  0  0  0  0  0  0
   21.8546    6.8424    0.0000 C   0  0  0  0  0  0  0  0  0  0  0  0
   22.5690    6.4299    0.0000 C   0  0  0  0  0  0  0  0  0  0  0  0
   23.2835    6.8424    0.0000 C   0  0  0  0  0  0  0  0  0  0  0  0
   23.9980    6.4299    0.0000 C   0  0  0  0  0  0  0  0  0  0  0  0
   24.7124    6.8424    0.0000 C   0  0  0  0  0  0  0  0  0  0  0  0
    9.2961    7.1444    0.0000 H   0  0  0  0  0  0  0  0  0  0  0  0
    8.9941    6.0174    0.0000 H   0  0  0  0  0  0  0  0  0  0  0  0
   10.1211    5.7155    0.0000 H   0  0  0  0  0  0  0  0  0  0  0  0
   10.7933    7.5797    0.0000 H   0  0  0  0  0  0  0  0  0  0  0  0
   10.0528    7.5797    0.0000 H   0  0  0  0  0  0  0  0  0  0  0  0
   10.7672    5.6927    0.0000 H   0  0  0  0  0  0  0  0  0  0  0  0
   11.5078    5.6927    0.0000 H   0  0  0  0  0  0  0  0  0  0  0  0
   12.2222    7.5797    0.0000 H   0  0  0  0  0  0  0  0  0  0  0  0
   11.4817    7.5797    0.0000 H   0  0  0  0  0  0  0  0  0  0  0  0
   12.1962    5.6927    0.0000 H   0  0  0  0  0  0  0  0  0  0  0  0
   12.9367    5.6927    0.0000 H   0  0  0  0  0  0  0  0  0  0  0  0
   13.6512    7.5797    0.0000 H   0  0  0  0  0  0  0  0  0  0  0  0
   12.9107    7.5797    0.0000 H   0  0  0  0  0  0  0  0  0  0  0  0
   13.6251    5.6927    0.0000 H   0  0  0  0  0  0  0  0  0  0  0  0
   14.3656    5.6927    0.0000 H   0  0  0  0  0  0  0  0  0  0  0  0
   15.0801    7.5797    0.0000 H   0  0  0  0  0  0  0  0  0  0  0  0
   14.3396    7.5797    0.0000 H   0  0  0  0  0  0  0  0  0  0  0  0
   15.0541    5.6927    0.0000 H   0  0  0  0  0  0  0  0  0  0  0  0
   15.7946    5.6927    0.0000 H   0  0  0  0  0  0  0  0  0  0  0  0
   16.5091    7.5797    0.0000 H   0  0  0  0  0  0  0  0  0  0  0  0
   15.7685    7.5797    0.0000 H   0  0  0  0  0  0  0  0  0  0  0  0
   16.4830    5.6927    0.0000 H   0  0  0  0  0  0  0  0  0  0  0  0
   17.2235    5.6927    0.0000 H   0  0  0  0  0  0  0  0  0  0  0  0
   17.9380    7.5797    0.0000 H   0  0  0  0  0  0  0  0  0  0  0  0
   17.1975    7.5797    0.0000 H   0  0  0  0  0  0  0  0  0  0  0  0
   17.9120    5.6927    0.0000 H   0  0  0  0  0  0  0  0  0  0  0  0
   18.6525    5.6927    0.0000 H   0  0  0  0  0  0  0  0  0  0  0  0
   19.3669    7.5797    0.0000 H   0  0  0  0  0  0  0  0  0  0  0  0
   18.6264    7.5797    0.0000 H   0  0  0  0  0  0  0  0  0  0  0  0
   19.3409    5.6927    0.0000 H   0  0  0  0  0  0  0  0  0  0  0  0
   20.0814    5.6927    0.0000 H   0  0  0  0  0  0  0  0  0  0  0  0
   20.7959    7.5797    0.0000 H   0  0  0  0  0  0  0  0  0  0  0  0
   20.0554    7.5797    0.0000 H   0  0  0  0  0  0  0  0  0  0  0  0
   20.7698    5.6927    0.0000 H   0  0  0  0  0  0  0  0  0  0  0  0
   21.5104    5.6927    0.0000 H   0  0  0  0  0  0  0  0  0  0  0  0
   22.2248    7.5797    0.0000 H   0  0  0  0  0  0  0  0  0  0  0  0
   21.4843    7.5797    0.0000 H   0  0  0  0  0  0  0  0  0  0  0  0
   22.1988    5.6927    0.0000 H   0  0  0  0  0  0  0  0  0  0  0  0
   22.9393    5.6927    0.0000 H   0  0  0  0  0  0  0  0  0  0  0  0
   23.6538    7.5797    0.0000 H   0  0  0  0  0  0  0  0  0  0  0  0
   22.9132    7.5797    0.0000 H   0  0  0  0  0  0  0  0  0  0  0  0
   23.9980    5.6049    0.0000 H   0  0  0  0  0  0  0  0  0  0  0  0
   25.4269    6.4299    0.0000 H   0  0  0  0  0  0  0  0  0  0  0  0
   24.7124    7.6674    0.0000 H   0  0  0  0  0  0  0  0  0  0  0  0
  1  2  1  0  0  0  0
  2  3  1  0  0  0  0
  3  4  1  0  0  0  0
  4  5  1  0  0  0  0
  5  6  1  0  0  0  0
  6  7  1  0  0  0  0
  7  8  1  0  0  0  0
  8  9  1  0  0  0  0
  9 10  1  0  0  0  0
 10 11  1  0  0  0  0
 11 12  1  0  0  0  0
 12 13  1  0  0  0  0
 13 14  1  0  0  0  0
 14 15  1  0  0  0  0
 15 16  1  0  0  0  0
 16 17  1  0  0  0  0
 17 18  1  0  0  0  0
 18 19  1  0  0  0  0
 19 20  1  0  0  0  0
 20 21  1  0  0  0  0
 21 22  2  0  0  0  0
  1 23  1  0  0  0  0
  1 24  1  0  0  0  0
  1 25  1  0  0  0  0
  2 26  1  0  0  0  0
  2 27  1  0  0  0  0
  3 28  1  0  0  0  0
  3 29  1  0  0  0  0
  4 30  1  0  0  0  0
  4 31  1  0  0  0  0
  5 32  1  0  0  0  0
  5 33  1  0  0  0  0
  6 34  1  0  0  0  0
  6 35  1  0  0  0  0
  7 36  1  0  0  0  0
  7 37  1  0  0  0  0
  8 38  1  0  0  0  0
  8 39  1  0  0  0  0
  9 40  1  0  0  0  0
  9 41  1  0  0  0  0
 10 42  1  0  0  0  0
 10 43  1  0  0  0  0
 11 44  1  0  0  0  0
 11 45  1  0  0  0  0
 12 46  1  0  0  0  0
 12 47  1  0  0  0  0
 13 48  1  0  0  0  0
 13 49  1  0  0  0  0
 14 50  1  0  0  0  0
 14 51  1  0  0  0  0
 15 52  1  0  0  0  0
 15 53  1  0  0  0  0
 16 54  1  0  0  0  0
 16 55  1  0  0  0  0
 17 56  1  0  0  0  0
 17 57  1  0  0  0  0
 18 58  1  0  0  0  0
 18 59  1  0  0  0  0
 19 60  1  0  0  0  0
 19 61  1  0  0  0  0
 20 62  1  0  0  0  0
 20 63  1  0  0  0  0
 21 64  1  0  0  0  0
 22 65  1  0  0  0  0
 22 66  1  0  0  0  0
M  END
>  <InChIKey>
SPURMHFLEKVAAS-UHFFFAOYSA-N

>  <UN GHS>
Non-irritant

>  <CASRN>
93924-10-8

> <Outcome>
0

>  <Index>
742

>  <StandardizerResult>
Clear Stereo (ID: ClearStereo)
Wedge Clean (ID: WedgeClean)
Mesomerize (ID: Mesomerize)
Tautomerize (ID: Tautomerize)
Add Explicit Hydrogens (ID: AddExplicitH)
Neutralize (ID: Neutralize)
Clean 2D (ID: Clean2D)

> <knn Distance>
2.64575123786926

> <CpId>
742

$$$$
753
  Mrv1532301301811342D          

 22 21  0  0  0  0            999 V2000
    3.9268    0.5399    0.0000 C   0  0  0  0  0  0  0  0  0  0  0  0
    3.9268    1.3649    0.0000 C   0  0  0  0  0  0  0  0  0  0  0  0
    3.2124    1.7774    0.0000 C   0  0  0  0  0  0  0  0  0  0  0  0
    2.4979    1.3649    0.0000 C   0  0  0  0  0  0  0  0  0  0  0  0
    1.7834    1.7774    0.0000 O   0  0  0  0  0  0  0  0  0  0  0  0
    4.6413    1.7774    0.0000 C   0  0  0  0  0  0  0  0  0  0  0  0
    5.3558    1.3649    0.0000 C   0  0  0  0  0  0  0  0  0  0  0  0
    6.0703    1.7774    0.0000 O   0  0  0  0  0  0  0  0  0  0  0  0
    3.1018    0.5399    0.0000 H   0  0  0  0  0  0  0  0  0  0  0  0
    3.9268   -0.2851    0.0000 H   0  0  0  0  0  0  0  0  0  0  0  0
    4.7518    0.5399    0.0000 H   0  0  0  0  0  0  0  0  0  0  0  0
    3.2124    0.9524    0.0000 H   0  0  0  0  0  0  0  0  0  0  0  0
    3.5826    2.5146    0.0000 H   0  0  0  0  0  0  0  0  0  0  0  0
    2.8421    2.5146    0.0000 H   0  0  0  0  0  0  0  0  0  0  0  0
    1.8659    0.8346    0.0000 H   0  0  0  0  0  0  0  0  0  0  0  0
    2.3546    0.5524    0.0000 H   0  0  0  0  0  0  0  0  0  0  0  0
    1.3402    2.4732    0.0000 H   0  0  0  0  0  0  0  0  0  0  0  0
    5.0116    2.5146    0.0000 H   0  0  0  0  0  0  0  0  0  0  0  0
    4.2711    2.5146    0.0000 H   0  0  0  0  0  0  0  0  0  0  0  0
    4.9855    0.6276    0.0000 H   0  0  0  0  0  0  0  0  0  0  0  0
    5.7261    0.6276    0.0000 H   0  0  0  0  0  0  0  0  0  0  0  0
    6.7847    1.3649    0.0000 H   0  0  0  0  0  0  0  0  0  0  0  0
  1  2  1  0  0  0  0
  2  3  1  0  0  0  0
  3  4  1  0  0  0  0
  4  5  1  0  0  0  0
  2  6  1  0  0  0  0
  6  7  1  0  0  0  0
  7  8  1  0  0  0  0
  1  9  1  0  0  0  0
  1 10  1  0  0  0  0
  1 11  1  0  0  0  0
  2 12  1  0  0  0  0
  3 13  1  0  0  0  0
  3 14  1  0  0  0  0
  4 15  1  0  0  0  0
  4 16  1  0  0  0  0
  5 17  1  0  0  0  0
  6 18  1  0  0  0  0
  6 19  1  0  0  0  0
  7 20  1  0  0  0  0
  7 21  1  0  0  0  0
  8 22  1  0  0  0  0
M  END
>  <InChIKey>
SXFJDZNJHVPHPH-UHFFFAOYSA-N

>  <UN GHS>
Non-irritant

>  <CASRN>
4457-71-0

> <Outcome>
0

>  <Index>
753

>  <StandardizerResult>
Clear Stereo (ID: ClearStereo)
Wedge Clean (ID: WedgeClean)
Mesomerize (ID: Mesomerize)
Tautomerize (ID: Tautomerize)
Add Explicit Hydrogens (ID: AddExplicitH)
Neutralize (ID: Neutralize)
Clean 2D (ID: Clean2D)

> <knn Distance>
2.64575123786926

> <CpId>
753

$$$$
803
  Mrv1532301301811342D          

 83 82  0  0  0  0            999 V2000
   -5.4319    0.1776    0.0000 C   0  0  0  0  0  0  0  0  0  0  0  0
   -4.6069    0.1776    0.0000 C   0  0  0  0  0  0  0  0  0  0  0  0
   -4.1944   -0.5368    0.0000 C   0  0  0  0  0  0  0  0  0  0  0  0
   -3.3694   -0.5368    0.0000 C   0  0  0  0  0  0  0  0  0  0  0  0
   -2.9569   -1.2513    0.0000 C   0  0  0  0  0  0  0  0  0  0  0  0
   -2.1319   -1.2513    0.0000 C   0  0  0  0  0  0  0  0  0  0  0  0
   -1.7194   -1.9658    0.0000 C   0  0  0  0  0  0  0  0  0  0  0  0
   -2.1319   -2.6802    0.0000 O   0  0  0  0  0  0  0  0  0  0  0  0
   -0.8944   -1.9658    0.0000 O   0  0  0  0  0  0  0  0  0  0  0  0
   -0.4819   -2.6802    0.0000 C   0  0  0  0  0  0  0  0  0  0  0  0
    0.3431   -2.6802    0.0000 C   0  0  0  0  0  0  0  0  0  0  0  0
    0.3431   -3.5052    0.0000 C   0  0  0  0  0  0  0  0  0  0  0  0
    1.0576   -3.9177    0.0000 C   0  0  0  0  0  0  0  0  0  0  0  0
    1.1681   -2.6802    0.0000 C   0  0  0  0  0  0  0  0  0  0  0  0
    1.5806   -3.3947    0.0000 O   0  0  0  0  0  0  0  0  0  0  0  0
    2.4056   -3.3947    0.0000 C   0  0  0  0  0  0  0  0  0  0  0  0
    2.8181   -2.6802    0.0000 O   0  0  0  0  0  0  0  0  0  0  0  0
    2.8181   -4.1092    0.0000 C   0  0  0  0  0  0  0  0  0  0  0  0
    3.6431   -4.1092    0.0000 C   0  0  0  0  0  0  0  0  0  0  0  0
    4.0556   -4.8236    0.0000 C   0  0  0  0  0  0  0  0  0  0  0  0
    4.8806   -4.8236    0.0000 C   0  0  0  0  0  0  0  0  0  0  0  0
    5.2931   -5.5381    0.0000 C   0  0  0  0  0  0  0  0  0  0  0  0
    6.1181   -5.5381    0.0000 C   0  0  0  0  0  0  0  0  0  0  0  0
    0.3431   -1.8552    0.0000 C   0  0  0  0  0  0  0  0  0  0  0  0
    1.0576   -1.4427    0.0000 O   0  0  0  0  0  0  0  0  0  0  0  0
    1.7720   -1.8552    0.0000 C   0  0  0  0  0  0  0  0  0  0  0  0
    1.7720   -2.6802    0.0000 O   0  0  0  0  0  0  0  0  0  0  0  0
    2.4865   -1.4427    0.0000 C   0  0  0  0  0  0  0  0  0  0  0  0
    3.2010   -1.8552    0.0000 C   0  0  0  0  0  0  0  0  0  0  0  0
    3.9155   -1.4427    0.0000 C   0  0  0  0  0  0  0  0  0  0  0  0
    4.6299   -1.8552    0.0000 C   0  0  0  0  0  0  0  0  0  0  0  0
    5.3444   -1.4427    0.0000 C   0  0  0  0  0  0  0  0  0  0  0  0
    6.0589   -1.8552    0.0000 C   0  0  0  0  0  0  0  0  0  0  0  0
   -5.4319    1.0026    0.0000 H   0  0  0  0  0  0  0  0  0  0  0  0
   -6.2569    0.1776    0.0000 H   0  0  0  0  0  0  0  0  0  0  0  0
   -5.4319   -0.6474    0.0000 H   0  0  0  0  0  0  0  0  0  0  0  0
   -3.9176    0.6310    0.0000 H   0  0  0  0  0  0  0  0  0  0  0  0
   -4.5589    1.0013    0.0000 H   0  0  0  0  0  0  0  0  0  0  0  0
   -4.8837   -0.9902    0.0000 H   0  0  0  0  0  0  0  0  0  0  0  0
   -4.2424   -1.3604    0.0000 H   0  0  0  0  0  0  0  0  0  0  0  0
   -2.6801   -0.0835    0.0000 H   0  0  0  0  0  0  0  0  0  0  0  0
   -3.3214    0.2868    0.0000 H   0  0  0  0  0  0  0  0  0  0  0  0
   -3.6462   -1.7046    0.0000 H   0  0  0  0  0  0  0  0  0  0  0  0
   -3.0049   -2.0749    0.0000 H   0  0  0  0  0  0  0  0  0  0  0  0
   -1.4426   -0.7979    0.0000 H   0  0  0  0  0  0  0  0  0  0  0  0
   -2.0839   -0.4277    0.0000 H   0  0  0  0  0  0  0  0  0  0  0  0
   -1.1712   -3.1336    0.0000 H   0  0  0  0  0  0  0  0  0  0  0  0
   -0.5299   -3.5038    0.0000 H   0  0  0  0  0  0  0  0  0  0  0  0
    0.1289   -4.3020    0.0000 H   0  0  0  0  0  0  0  0  0  0  0  0
    1.0576   -3.0927    0.0000 H   0  0  0  0  0  0  0  0  0  0  0  0
    0.3716   -4.3761    0.0000 H   0  0  0  0  0  0  0  0  0  0  0  0
    1.1653   -4.7357    0.0000 H   0  0  0  0  0  0  0  0  0  0  0  0
    1.8388   -4.1829    0.0000 H   0  0  0  0  0  0  0  0  0  0  0  0
    1.4503   -1.9050    0.0000 H   0  0  0  0  0  0  0  0  0  0  0  0
    0.8859   -1.9050    0.0000 H   0  0  0  0  0  0  0  0  0  0  0  0
    2.1288   -4.5625    0.0000 H   0  0  0  0  0  0  0  0  0  0  0  0
    2.7701   -4.9328    0.0000 H   0  0  0  0  0  0  0  0  0  0  0  0
    4.3324   -3.6558    0.0000 H   0  0  0  0  0  0  0  0  0  0  0  0
    3.6911   -3.2856    0.0000 H   0  0  0  0  0  0  0  0  0  0  0  0
    3.3663   -5.2770    0.0000 H   0  0  0  0  0  0  0  0  0  0  0  0
    4.0076   -5.6473    0.0000 H   0  0  0  0  0  0  0  0  0  0  0  0
    5.5699   -4.3703    0.0000 H   0  0  0  0  0  0  0  0  0  0  0  0
    4.9286   -4.0000    0.0000 H   0  0  0  0  0  0  0  0  0  0  0  0
    4.6038   -5.9915    0.0000 H   0  0  0  0  0  0  0  0  0  0  0  0
    5.2451   -6.3617    0.0000 H   0  0  0  0  0  0  0  0  0  0  0  0
    6.1181   -6.3631    0.0000 H   0  0  0  0  0  0  0  0  0  0  0  0
    6.9431   -5.5381    0.0000 H   0  0  0  0  0  0  0  0  0  0  0  0
    6.1181   -4.7131    0.0000 H   0  0  0  0  0  0  0  0  0  0  0  0
   -0.1102   -1.1660    0.0000 H   0  0  0  0  0  0  0  0  0  0  0  0
   -0.4805   -1.8073    0.0000 H   0  0  0  0  0  0  0  0  0  0  0  0
    2.8568   -0.7055    0.0000 H   0  0  0  0  0  0  0  0  0  0  0  0
    2.1163   -0.7055    0.0000 H   0  0  0  0  0  0  0  0  0  0  0  0
    3.8097   -2.4120    0.0000 H   0  0  0  0  0  0  0  0  0  0  0  0
    3.2010   -1.0302    0.0000 H   0  0  0  0  0  0  0  0  0  0  0  0
    4.5474   -0.9124    0.0000 H   0  0  0  0  0  0  0  0  0  0  0  0
    4.0587   -0.6303    0.0000 H   0  0  0  0  0  0  0  0  0  0  0  0
    4.2597   -2.5925    0.0000 H   0  0  0  0  0  0  0  0  0  0  0  0
    5.0002   -2.5925    0.0000 H   0  0  0  0  0  0  0  0  0  0  0  0
    6.0674   -1.0455    0.0000 H   0  0  0  0  0  0  0  0  0  0  0  0
    5.3793   -0.6185    0.0000 H   0  0  0  0  0  0  0  0  0  0  0  0
    5.4740   -2.4371    0.0000 H   0  0  0  0  0  0  0  0  0  0  0  0
    6.4676   -2.5719    0.0000 H   0  0  0  0  0  0  0  0  0  0  0  0
    6.8574   -1.6480    0.0000 H   0  0  0  0  0  0  0  0  0  0  0  0
  1  2  1  0  0  0  0
  2  3  1  0  0  0  0
  3  4  1  0  0  0  0
  4  5  1  0  0  0  0
  5  6  1  0  0  0  0
  6  7  1  0  0  0  0
  7  8  2  0  0  0  0
  7  9  1  0  0  0  0
  9 10  1  0  0  0  0
 10 11  1  0  0  0  0
 11 12  1  0  0  0  0
 12 13  1  0  0  0  0
 11 14  1  0  0  0  0
 14 15  1  0  0  0  0
 15 16  1  0  0  0  0
 16 17  2  0  0  0  0
 16 18  1  0  0  0  0
 18 19  1  0  0  0  0
 19 20  1  0  0  0  0
 20 21  1  0  0  0  0
 21 22  1  0  0  0  0
 22 23  1  0  0  0  0
 11 24  1  0  0  0  0
 24 25  1  0  0  0  0
 25 26  1  0  0  0  0
 26 27  2  0  0  0  0
 26 28  1  0  0  0  0
 28 29  1  0  0  0  0
 29 30  1  0  0  0  0
 30 31  1  0  0  0  0
 31 32  1  0  0  0  0
 32 33  1  0  0  0  0
  1 34  1  0  0  0  0
  1 35  1  0  0  0  0
  1 36  1  0  0  0  0
  2 37  1  0  0  0  0
  2 38  1  0  0  0  0
  3 39  1  0  0  0  0
  3 40  1  0  0  0  0
  4 41  1  0  0  0  0
  4 42  1  0  0  0  0
  5 43  1  0  0  0  0
  5 44  1  0  0  0  0
  6 45  1  0  0  0  0
  6 46  1  0  0  0  0
 10 47  1  0  0  0  0
 10 48  1  0  0  0  0
 12 49  1  0  0  0  0
 12 50  1  0  0  0  0
 13 51  1  0  0  0  0
 13 52  1  0  0  0  0
 13 53  1  0  0  0  0
 14 54  1  0  0  0  0
 14 55  1  0  0  0  0
 18 56  1  0  0  0  0
 18 57  1  0  0  0  0
 19 58  1  0  0  0  0
 19 59  1  0  0  0  0
 20 60  1  0  0  0  0
 20 61  1  0  0  0  0
 21 62  1  0  0  0  0
 21 63  1  0  0  0  0
 22 64  1  0  0  0  0
 22 65  1  0  0  0  0
 23 66  1  0  0  0  0
 23 67  1  0  0  0  0
 23 68  1  0  0  0  0
 24 69  1  0  0  0  0
 24 70  1  0  0  0  0
 28 71  1  0  0  0  0
 28 72  1  0  0  0  0
 29 73  1  0  0  0  0
 29 74  1  0  0  0  0
 30 75  1  0  0  0  0
 30 76  1  0  0  0  0
 31 77  1  0  0  0  0
 31 78  1  0  0  0  0
 32 79  1  0  0  0  0
 32 80  1  0  0  0  0
 33 81  1  0  0  0  0
 33 82  1  0  0  0  0
 33 83  1  0  0  0  0
M  END
>  <InChIKey>
UQJDVLPHTXQTRP-UHFFFAOYSA-N

>  <UN GHS>
Non-irritant

>  <CASRN>
78-16-0

> <Outcome>
0

>  <Index>
803

>  <StandardizerResult>
Clear Stereo (ID: ClearStereo)
Wedge Clean (ID: WedgeClean)
Mesomerize (ID: Mesomerize)
Tautomerize (ID: Tautomerize)
Add Explicit Hydrogens (ID: AddExplicitH)
Neutralize (ID: Neutralize)
Clean 2D (ID: Clean2D)

> <knn Distance>
2.64575123786926

> <CpId>
803

$$$$
817
  Mrv1532301301811342D          

 24 25  0  0  0  0            999 V2000
    0.7145   -0.4125    0.0000 O   0  0  0  0  0  0  0  0  0  0  0  0
    0.7145   -1.2375    0.0000 C   0  0  0  0  0  0  0  0  0  0  0  0
    1.4289   -1.6500    0.0000 C   0  0  0  0  0  0  0  0  0  0  0  0
    1.4289   -2.4750    0.0000 C   0  0  0  0  0  0  0  0  0  0  0  0
    0.7145   -2.8875    0.0000 C   0  0  0  0  0  0  0  0  0  0  0  0
   -0.0000   -2.4750    0.0000 C   0  0  0  0  0  0  0  0  0  0  0  0
   -0.0000   -1.6500    0.0000 C   0  0  0  0  0  0  0  0  0  0  0  0
    0.7145   -3.7125    0.0000 C   0  0  0  0  0  0  0  0  0  0  0  0
    1.4289   -4.1250    0.0000 C   0  0  0  0  0  0  0  0  0  0  0  0
    1.4289   -4.9500    0.0000 C   0  0  0  0  0  0  0  0  0  0  0  0
    0.7145   -5.3625    0.0000 C   0  0  0  0  0  0  0  0  0  0  0  0
    0.7145   -6.1875    0.0000 O   0  0  0  0  0  0  0  0  0  0  0  0
   -0.0000   -4.9500    0.0000 C   0  0  0  0  0  0  0  0  0  0  0  0
   -0.0000   -4.1250    0.0000 C   0  0  0  0  0  0  0  0  0  0  0  0
    1.4289    0.0000    0.0000 H   0  0  0  0  0  0  0  0  0  0  0  0
    2.1434   -1.2375    0.0000 H   0  0  0  0  0  0  0  0  0  0  0  0
    2.1434   -2.8875    0.0000 H   0  0  0  0  0  0  0  0  0  0  0  0
   -0.7145   -2.8875    0.0000 H   0  0  0  0  0  0  0  0  0  0  0  0
   -0.7145   -1.2375    0.0000 H   0  0  0  0  0  0  0  0  0  0  0  0
    2.1434   -3.7125    0.0000 H   0  0  0  0  0  0  0  0  0  0  0  0
    2.1434   -5.3625    0.0000 H   0  0  0  0  0  0  0  0  0  0  0  0
   -0.0000   -6.6000    0.0000 H   0  0  0  0  0  0  0  0  0  0  0  0
   -0.7145   -5.3625    0.0000 H   0  0  0  0  0  0  0  0  0  0  0  0
   -0.7145   -3.7125    0.0000 H   0  0  0  0  0  0  0  0  0  0  0  0
  1  2  1  0  0  0  0
  2  3  4  0  0  0  0
  3  4  4  0  0  0  0
  4  5  4  0  0  0  0
  5  6  4  0  0  0  0
  6  7  4  0  0  0  0
  2  7  4  0  0  0  0
  5  8  1  0  0  0  0
  8  9  4  0  0  0  0
  9 10  4  0  0  0  0
 10 11  4  0  0  0  0
 11 12  1  0  0  0  0
 11 13  4  0  0  0  0
 13 14  4  0  0  0  0
  8 14  4  0  0  0  0
  1 15  1  0  0  0  0
  3 16  1  0  0  0  0
  4 17  1  0  0  0  0
  6 18  1  0  0  0  0
  7 19  1  0  0  0  0
  9 20  1  0  0  0  0
 10 21  1  0  0  0  0
 12 22  1  0  0  0  0
 13 23  1  0  0  0  0
 14 24  1  0  0  0  0
M  END
>  <InChIKey>
VCCBEIPGXKNHFW-UHFFFAOYSA-N

>  <UN GHS>
Non-irritant

>  <CASRN>
92-88-6

> <Outcome>
0

>  <Index>
817

>  <StandardizerResult>
Dearomatize (ID: Dearomatize)
Clear Stereo (ID: ClearStereo)
Wedge Clean (ID: WedgeClean)
Mesomerize (ID: Mesomerize)
Tautomerize (ID: Tautomerize)
Aromatize (ID: Aromatize)
Add Explicit Hydrogens (ID: AddExplicitH)
Neutralize (ID: Neutralize)
Clean 2D (ID: Clean2D)

> <knn Distance>
2.64575123786926

> <CpId>
817

$$$$
833
  Mrv1532301301811342D          

 21 21  0  0  0  0            999 V2000
   -0.7106    2.0923    0.0000 C   0  0  0  0  0  0  0  0  0  0  0  0
    0.0039    2.5048    0.0000 C   0  0  0  0  0  0  0  0  0  0  0  0
    0.0039    3.3298    0.0000 C   0  0  0  0  0  0  0  0  0  0  0  0
   -0.7106    3.7423    0.0000 O   0  0  0  0  0  0  0  0  0  0  0  0
    0.7184    2.0923    0.0000 C   0  0  0  0  0  0  0  0  0  0  0  0
    0.7184    1.2673    0.0000 C   0  0  0  0  0  0  0  0  0  0  0  0
    1.4329    0.8548    0.0000 C   0  0  0  0  0  0  0  0  0  0  0  0
    1.4329    0.0298    0.0000 C   0  0  0  0  0  0  0  0  0  0  0  0
    0.7184   -0.3827    0.0000 C   0  0  0  0  0  0  0  0  0  0  0  0
    0.0039    0.0298    0.0000 C   0  0  0  0  0  0  0  0  0  0  0  0
    0.0039    0.8548    0.0000 C   0  0  0  0  0  0  0  0  0  0  0  0
   -1.1231    2.8068    0.0000 H   0  0  0  0  0  0  0  0  0  0  0  0
   -1.4250    1.6798    0.0000 H   0  0  0  0  0  0  0  0  0  0  0  0
   -0.2981    1.3778    0.0000 H   0  0  0  0  0  0  0  0  0  0  0  0
    0.7184    3.7423    0.0000 H   0  0  0  0  0  0  0  0  0  0  0  0
    1.4329    2.5048    0.0000 H   0  0  0  0  0  0  0  0  0  0  0  0
    2.1473    1.2673    0.0000 H   0  0  0  0  0  0  0  0  0  0  0  0
    2.1473   -0.3827    0.0000 H   0  0  0  0  0  0  0  0  0  0  0  0
    0.7184   -1.2077    0.0000 H   0  0  0  0  0  0  0  0  0  0  0  0
   -0.7106   -0.3827    0.0000 H   0  0  0  0  0  0  0  0  0  0  0  0
   -0.7930    0.6413    0.0000 H   0  0  0  0  0  0  0  0  0  0  0  0
  1  2  1  0  0  0  0
  2  3  1  0  0  0  0
  3  4  2  0  0  0  0
  2  5  2  0  0  0  0
  5  6  1  4  0  0  0
  6  7  4  0  0  0  0
  7  8  4  0  0  0  0
  8  9  4  0  0  0  0
  9 10  4  0  0  0  0
 10 11  4  0  0  0  0
  6 11  4  0  0  0  0
  1 12  1  0  0  0  0
  1 13  1  0  0  0  0
  1 14  1  0  0  0  0
  3 15  1  0  0  0  0
  5 16  1  0  0  0  0
  7 17  1  0  0  0  0
  8 18  1  0  0  0  0
  9 19  1  0  0  0  0
 10 20  1  0  0  0  0
 11 21  1  0  0  0  0
M  END
>  <InChIKey>
VLUMOWNVWOXZAU-CLFYSBASSA-N

>  <UN GHS>
Non-irritant

>  <CASRN>
101-39-3

> <Outcome>
0

>  <Index>
833

>  <StandardizerResult>
Dearomatize (ID: Dearomatize)
Clear Stereo (ID: ClearStereo)
Wedge Clean (ID: WedgeClean)
Mesomerize (ID: Mesomerize)
Tautomerize (ID: Tautomerize)
Aromatize (ID: Aromatize)
Add Explicit Hydrogens (ID: AddExplicitH)
Neutralize (ID: Neutralize)
Clean 2D (ID: Clean2D)

> <knn Distance>
2.64575123786926

> <CpId>
833

$$$$
875
  Mrv1532301301811342D          

 98 97  0  0  0  0            999 V2000
   15.8508   10.0113    0.0000 C   0  0  0  0  0  0  0  0  0  0  0  0
   16.5653   10.4238    0.0000 C   0  0  0  0  0  0  0  0  0  0  0  0
   16.5653   11.2488    0.0000 C   0  0  0  0  0  0  0  0  0  0  0  0
   17.2797   10.0113    0.0000 C   0  0  0  0  0  0  0  0  0  0  0  0
   17.9942   10.4238    0.0000 C   0  0  0  0  0  0  0  0  0  0  0  0
   18.7087   10.0113    0.0000 C   0  0  0  0  0  0  0  0  0  0  0  0
   19.4232   10.4238    0.0000 C   0  0  0  0  0  0  0  0  0  0  0  0
   20.1376   10.0113    0.0000 C   0  0  0  0  0  0  0  0  0  0  0  0
   20.8521   10.4238    0.0000 C   0  0  0  0  0  0  0  0  0  0  0  0
   21.5666   10.0113    0.0000 C   0  0  0  0  0  0  0  0  0  0  0  0
   22.2810   10.4238    0.0000 C   0  0  0  0  0  0  0  0  0  0  0  0
   22.9955   10.0113    0.0000 C   0  0  0  0  0  0  0  0  0  0  0  0
   23.7100   10.4238    0.0000 C   0  0  0  0  0  0  0  0  0  0  0  0
   24.4245   10.0113    0.0000 O   0  0  0  0  0  0  0  0  0  0  0  0
   25.1389   10.4238    0.0000 C   0  0  0  0  0  0  0  0  0  0  0  0
   25.1389   11.2488    0.0000 O   0  0  0  0  0  0  0  0  0  0  0  0
   25.8534   10.0113    0.0000 C   0  0  0  0  0  0  0  0  0  0  0  0
   26.5679   10.4238    0.0000 C   0  0  0  0  0  0  0  0  0  0  0  0
   27.2823   10.0113    0.0000 C   0  0  0  0  0  0  0  0  0  0  0  0
   27.9968   10.4238    0.0000 C   0  0  0  0  0  0  0  0  0  0  0  0
   28.7113   10.0113    0.0000 C   0  0  0  0  0  0  0  0  0  0  0  0
   28.7113    9.1863    0.0000 O   0  0  0  0  0  0  0  0  0  0  0  0
   29.4258   10.4238    0.0000 O   0  0  0  0  0  0  0  0  0  0  0  0
   30.1402   10.0113    0.0000 C   0  0  0  0  0  0  0  0  0  0  0  0
   30.8547   10.4238    0.0000 C   0  0  0  0  0  0  0  0  0  0  0  0
   31.5692   10.0113    0.0000 C   0  0  0  0  0  0  0  0  0  0  0  0
   32.2836   10.4238    0.0000 C   0  0  0  0  0  0  0  0  0  0  0  0
   32.9981   10.0113    0.0000 C   0  0  0  0  0  0  0  0  0  0  0  0
   33.7126   10.4238    0.0000 C   0  0  0  0  0  0  0  0  0  0  0  0
   34.4270   10.0113    0.0000 C   0  0  0  0  0  0  0  0  0  0  0  0
   35.1415   10.4238    0.0000 C   0  0  0  0  0  0  0  0  0  0  0  0
   35.8560   10.0113    0.0000 C   0  0  0  0  0  0  0  0  0  0  0  0
   36.5705   10.4238    0.0000 C   0  0  0  0  0  0  0  0  0  0  0  0
   37.2849   10.0113    0.0000 C   0  0  0  0  0  0  0  0  0  0  0  0
   37.9994   10.4238    0.0000 C   0  0  0  0  0  0  0  0  0  0  0  0
   37.2849    9.1863    0.0000 C   0  0  0  0  0  0  0  0  0  0  0  0
   15.4383   10.7258    0.0000 H   0  0  0  0  0  0  0  0  0  0  0  0
   15.1363    9.5988    0.0000 H   0  0  0  0  0  0  0  0  0  0  0  0
   16.2633    9.2969    0.0000 H   0  0  0  0  0  0  0  0  0  0  0  0
   15.8508   10.8363    0.0000 H   0  0  0  0  0  0  0  0  0  0  0  0
   17.3622   11.0353    0.0000 H   0  0  0  0  0  0  0  0  0  0  0  0
   16.9778   11.9633    0.0000 H   0  0  0  0  0  0  0  0  0  0  0  0
   15.9819   11.8322    0.0000 H   0  0  0  0  0  0  0  0  0  0  0  0
   16.9095    9.2741    0.0000 H   0  0  0  0  0  0  0  0  0  0  0  0
   17.6500    9.2741    0.0000 H   0  0  0  0  0  0  0  0  0  0  0  0
   18.4910   11.0825    0.0000 H   0  0  0  0  0  0  0  0  0  0  0  0
   17.9942    9.5988    0.0000 H   0  0  0  0  0  0  0  0  0  0  0  0
   18.8519    9.1989    0.0000 H   0  0  0  0  0  0  0  0  0  0  0  0
   19.3407    9.4810    0.0000 H   0  0  0  0  0  0  0  0  0  0  0  0
   19.7934   11.1611    0.0000 H   0  0  0  0  0  0  0  0  0  0  0  0
   19.0529   11.1611    0.0000 H   0  0  0  0  0  0  0  0  0  0  0  0
   20.1726    9.1871    0.0000 H   0  0  0  0  0  0  0  0  0  0  0  0
   20.8607    9.6141    0.0000 H   0  0  0  0  0  0  0  0  0  0  0  0
   21.2224   11.1611    0.0000 H   0  0  0  0  0  0  0  0  0  0  0  0
   20.4818   11.1611    0.0000 H   0  0  0  0  0  0  0  0  0  0  0  0
   21.7044    9.1979    0.0000 H   0  0  0  0  0  0  0  0  0  0  0  0
   22.1963    9.4784    0.0000 H   0  0  0  0  0  0  0  0  0  0  0  0
   22.6513   11.1611    0.0000 H   0  0  0  0  0  0  0  0  0  0  0  0
   21.9108   11.1611    0.0000 H   0  0  0  0  0  0  0  0  0  0  0  0
   23.0310    9.1871    0.0000 H   0  0  0  0  0  0  0  0  0  0  0  0
   23.7187    9.6143    0.0000 H   0  0  0  0  0  0  0  0  0  0  0  0
   24.0802   11.1611    0.0000 H   0  0  0  0  0  0  0  0  0  0  0  0
   23.3397   11.1611    0.0000 H   0  0  0  0  0  0  0  0  0  0  0  0
   25.4831    9.2741    0.0000 H   0  0  0  0  0  0  0  0  0  0  0  0
   26.2237    9.2741    0.0000 H   0  0  0  0  0  0  0  0  0  0  0  0
   26.9381   11.1611    0.0000 H   0  0  0  0  0  0  0  0  0  0  0  0
   26.1976   11.1611    0.0000 H   0  0  0  0  0  0  0  0  0  0  0  0
   26.9121    9.2741    0.0000 H   0  0  0  0  0  0  0  0  0  0  0  0
   27.6526    9.2741    0.0000 H   0  0  0  0  0  0  0  0  0  0  0  0
   28.3671   11.1611    0.0000 H   0  0  0  0  0  0  0  0  0  0  0  0
   27.6265   11.1611    0.0000 H   0  0  0  0  0  0  0  0  0  0  0  0
   29.7700    9.2741    0.0000 H   0  0  0  0  0  0  0  0  0  0  0  0
   30.5105    9.2741    0.0000 H   0  0  0  0  0  0  0  0  0  0  0  0
   31.2250   11.1611    0.0000 H   0  0  0  0  0  0  0  0  0  0  0  0
   30.4844   11.1611    0.0000 H   0  0  0  0  0  0  0  0  0  0  0  0
   31.1989    9.2741    0.0000 H   0  0  0  0  0  0  0  0  0  0  0  0
   31.9394    9.2741    0.0000 H   0  0  0  0  0  0  0  0  0  0  0  0
   32.6539   11.1611    0.0000 H   0  0  0  0  0  0  0  0  0  0  0  0
   31.9134   11.1611    0.0000 H   0  0  0  0  0  0  0  0  0  0  0  0
   32.6278    9.2741    0.0000 H   0  0  0  0  0  0  0  0  0  0  0  0
   33.3684    9.2741    0.0000 H   0  0  0  0  0  0  0  0  0  0  0  0
   34.0828   11.1611    0.0000 H   0  0  0  0  0  0  0  0  0  0  0  0
   33.3423   11.1611    0.0000 H   0  0  0  0  0  0  0  0  0  0  0  0
   34.0568    9.2741    0.0000 H   0  0  0  0  0  0  0  0  0  0  0  0
   34.7973    9.2741    0.0000 H   0  0  0  0  0  0  0  0  0  0  0  0
   35.5118   11.1611    0.0000 H   0  0  0  0  0  0  0  0  0  0  0  0
   34.7713   11.1611    0.0000 H   0  0  0  0  0  0  0  0  0  0  0  0
   35.4857    9.2741    0.0000 H   0  0  0  0  0  0  0  0  0  0  0  0
   36.2262    9.2741    0.0000 H   0  0  0  0  0  0  0  0  0  0  0  0
   36.9407   11.1611    0.0000 H   0  0  0  0  0  0  0  0  0  0  0  0
   36.2002   11.1611    0.0000 H   0  0  0  0  0  0  0  0  0  0  0  0
   37.2849   10.8363    0.0000 H   0  0  0  0  0  0  0  0  0  0  0  0
   38.2129    9.6270    0.0000 H   0  0  0  0  0  0  0  0  0  0  0  0
   38.8244   10.4238    0.0000 H   0  0  0  0  0  0  0  0  0  0  0  0
   38.2129   11.2207    0.0000 H   0  0  0  0  0  0  0  0  0  0  0  0
   36.4599    9.1863    0.0000 H   0  0  0  0  0  0  0  0  0  0  0  0
   37.2849    8.3613    0.0000 H   0  0  0  0  0  0  0  0  0  0  0  0
   38.1099    9.1863    0.0000 H   0  0  0  0  0  0  0  0  0  0  0  0
  1  2  1  0  0  0  0
  2  3  1  0  0  0  0
  2  4  1  0  0  0  0
  4  5  1  0  0  0  0
  5  6  1  0  0  0  0
  6  7  1  0  0  0  0
  7  8  1  0  0  0  0
  8  9  1  0  0  0  0
  9 10  1  0  0  0  0
 10 11  1  0  0  0  0
 11 12  1  0  0  0  0
 12 13  1  0  0  0  0
 13 14  1  0  0  0  0
 14 15  1  0  0  0  0
 15 16  2  0  0  0  0
 15 17  1  0  0  0  0
 17 18  1  0  0  0  0
 18 19  1  0  0  0  0
 19 20  1  0  0  0  0
 20 21  1  0  0  0  0
 21 22  2  0  0  0  0
 21 23  1  0  0  0  0
 23 24  1  0  0  0  0
 24 25  1  0  0  0  0
 25 26  1  0  0  0  0
 26 27  1  0  0  0  0
 27 28  1  0  0  0  0
 28 29  1  0  0  0  0
 29 30  1  0  0  0  0
 30 31  1  0  0  0  0
 31 32  1  0  0  0  0
 32 33  1  0  0  0  0
 33 34  1  0  0  0  0
 34 35  1  0  0  0  0
 34 36  1  0  0  0  0
  1 37  1  0  0  0  0
  1 38  1  0  0  0  0
  1 39  1  0  0  0  0
  2 40  1  0  0  0  0
  3 41  1  0  0  0  0
  3 42  1  0  0  0  0
  3 43  1  0  0  0  0
  4 44  1  0  0  0  0
  4 45  1  0  0  0  0
  5 46  1  0  0  0  0
  5 47  1  0  0  0  0
  6 48  1  0  0  0  0
  6 49  1  0  0  0  0
  7 50  1  0  0  0  0
  7 51  1  0  0  0  0
  8 52  1  0  0  0  0
  8 53  1  0  0  0  0
  9 54  1  0  0  0  0
  9 55  1  0  0  0  0
 10 56  1  0  0  0  0
 10 57  1  0  0  0  0
 11 58  1  0  0  0  0
 11 59  1  0  0  0  0
 12 60  1  0  0  0  0
 12 61  1  0  0  0  0
 13 62  1  0  0  0  0
 13 63  1  0  0  0  0
 17 64  1  0  0  0  0
 17 65  1  0  0  0  0
 18 66  1  0  0  0  0
 18 67  1  0  0  0  0
 19 68  1  0  0  0  0
 19 69  1  0  0  0  0
 20 70  1  0  0  0  0
 20 71  1  0  0  0  0
 24 72  1  0  0  0  0
 24 73  1  0  0  0  0
 25 74  1  0  0  0  0
 25 75  1  0  0  0  0
 26 76  1  0  0  0  0
 26 77  1  0  0  0  0
 27 78  1  0  0  0  0
 27 79  1  0  0  0  0
 28 80  1  0  0  0  0
 28 81  1  0  0  0  0
 29 82  1  0  0  0  0
 29 83  1  0  0  0  0
 30 84  1  0  0  0  0
 30 85  1  0  0  0  0
 31 86  1  0  0  0  0
 31 87  1  0  0  0  0
 32 88  1  0  0  0  0
 32 89  1  0  0  0  0
 33 90  1  0  0  0  0
 33 91  1  0  0  0  0
 34 92  1  0  0  0  0
 35 93  1  0  0  0  0
 35 94  1  0  0  0  0
 35 95  1  0  0  0  0
 36 96  1  0  0  0  0
 36 97  1  0  0  0  0
 36 98  1  0  0  0  0
M  END
>  <InChIKey>
WPUKZOKYKHYASK-UHFFFAOYSA-N

>  <UN GHS>
Non-irritant

>  <CASRN>
26401-35-4

> <Outcome>
0

>  <Index>
875

>  <StandardizerResult>
Clear Stereo (ID: ClearStereo)
Wedge Clean (ID: WedgeClean)
Mesomerize (ID: Mesomerize)
Tautomerize (ID: Tautomerize)
Add Explicit Hydrogens (ID: AddExplicitH)
Neutralize (ID: Neutralize)
Clean 2D (ID: Clean2D)

> <knn Distance>
2.64575123786926

> <CpId>
875

$$$$
898
  Mrv1532301301811342D          

 11 10  0  0  0  0            999 V2000
    0.8234    1.4289    0.0000 C   0  0  0  0  0  0  0  0  0  0  0  0
    1.2359    0.7145    0.0000 C   0  0  0  0  0  0  0  0  0  0  0  0
    0.8234   -0.0000    0.0000 C   0  0  0  0  0  0  0  0  0  0  0  0
    1.2359   -0.7145    0.0000 O   0  0  0  0  0  0  0  0  0  0  0  0
   -0.0016   -0.0000    0.0000 O   0  0  0  0  0  0  0  0  0  0  0  0
    1.5379    1.8414    0.0000 H   0  0  0  0  0  0  0  0  0  0  0  0
    0.4109    2.1434    0.0000 H   0  0  0  0  0  0  0  0  0  0  0  0
    0.1089    1.0164    0.0000 H   0  0  0  0  0  0  0  0  0  0  0  0
    1.9731    0.3442    0.0000 H   0  0  0  0  0  0  0  0  0  0  0  0
    1.9731    1.0847    0.0000 H   0  0  0  0  0  0  0  0  0  0  0  0
    0.8234   -1.4290    0.0000 H   0  0  0  0  0  0  0  0  0  0  0  0
  1  2  1  0  0  0  0
  2  3  1  0  0  0  0
  3  4  1  0  0  0  0
  3  5  2  0  0  0  0
  1  6  1  0  0  0  0
  1  7  1  0  0  0  0
  1  8  1  0  0  0  0
  2  9  1  0  0  0  0
  2 10  1  0  0  0  0
  4 11  1  0  0  0  0
M  END
>  <InChIKey>
XBDQKXXYIPTUBI-UHFFFAOYSA-M

>  <UN GHS>
Non-irritant

>  <CASRN>
84057-80-7

> <Outcome>
0

>  <Index>
898

>  <StandardizerResult>
Clear Stereo (ID: ClearStereo)
Wedge Clean (ID: WedgeClean)
Mesomerize (ID: Mesomerize)
Tautomerize (ID: Tautomerize)
Add Explicit Hydrogens (ID: AddExplicitH)
Neutralize (ID: Neutralize)
Clean 2D (ID: Clean2D)

> <knn Distance>
2.64575123786926

> <CpId>
898

$$$$
903
  Mrv1532301301811342D          

 14 13  0  0  0  0            999 V2000
    1.2388    2.1434    0.0000 C   0  0  0  0  0  0  0  0  0  0  0  0
    0.8263    1.4289    0.0000 C   0  0  0  0  0  0  0  0  0  0  0  0
    1.2388    0.7144    0.0000 O   0  0  0  0  0  0  0  0  0  0  0  0
    0.8263   -0.0000    0.0000 C   0  0  0  0  0  0  0  0  0  0  0  0
    1.2388   -0.7145    0.0000 C   0  0  0  0  0  0  0  0  0  0  0  0
    0.0013   -0.0000    0.0000 O   0  0  0  0  0  0  0  0  0  0  0  0
    1.9532    1.7309    0.0000 H   0  0  0  0  0  0  0  0  0  0  0  0
    1.6513    2.8579    0.0000 H   0  0  0  0  0  0  0  0  0  0  0  0
    0.5243    2.5559    0.0000 H   0  0  0  0  0  0  0  0  0  0  0  0
    0.0890    1.7992    0.0000 H   0  0  0  0  0  0  0  0  0  0  0  0
    0.0890    1.0587    0.0000 H   0  0  0  0  0  0  0  0  0  0  0  0
    0.5243   -1.1270    0.0000 H   0  0  0  0  0  0  0  0  0  0  0  0
    1.6513   -1.4290    0.0000 H   0  0  0  0  0  0  0  0  0  0  0  0
    1.9532   -0.3020    0.0000 H   0  0  0  0  0  0  0  0  0  0  0  0
  1  2  1  0  0  0  0
  2  3  1  0  0  0  0
  3  4  1  0  0  0  0
  4  5  1  0  0  0  0
  4  6  2  0  0  0  0
  1  7  1  0  0  0  0
  1  8  1  0  0  0  0
  1  9  1  0  0  0  0
  2 10  1  0  0  0  0
  2 11  1  0  0  0  0
  5 12  1  0  0  0  0
  5 13  1  0  0  0  0
  5 14  1  0  0  0  0
M  END
>  <InChIKey>
XEKOWRVHYACXOJ-UHFFFAOYSA-N

>  <UN GHS>
Non-irritant

>  <CASRN>
141-78-6

> <Outcome>
0

>  <Index>
903

>  <StandardizerResult>
Clear Stereo (ID: ClearStereo)
Wedge Clean (ID: WedgeClean)
Mesomerize (ID: Mesomerize)
Tautomerize (ID: Tautomerize)
Add Explicit Hydrogens (ID: AddExplicitH)
Neutralize (ID: Neutralize)
Clean 2D (ID: Clean2D)

> <knn Distance>
2.64575123786926

> <CpId>
903

$$$$
938
  Mrv1532301301811342D          

 12 11  0  0  0  0            999 V2000
    2.4750   -1.4289    0.0000 C   0  0  0  0  0  0  0  0  0  0  0  0
    2.0625   -0.7145    0.0000 C   0  0  0  0  0  0  0  0  0  0  0  0
    2.4750    0.0000    0.0000 O   0  0  0  0  0  0  0  0  0  0  0  0
    1.2375   -0.7145    0.0000 O   0  0  0  0  0  0  0  0  0  0  0  0
    0.8250    0.0000    0.0000 C   0  0  0  0  0  0  0  0  0  0  0  0
    0.0000    0.0000    0.0000 C   0  0  0  0  0  0  0  0  0  0  0  0
    1.7605   -1.8414    0.0000 H   0  0  0  0  0  0  0  0  0  0  0  0
    2.8875   -2.1434    0.0000 H   0  0  0  0  0  0  0  0  0  0  0  0
    3.1895   -1.0164    0.0000 H   0  0  0  0  0  0  0  0  0  0  0  0
    1.2375    0.7145    0.0000 H   0  0  0  0  0  0  0  0  0  0  0  0
   -0.4125    0.7145    0.0000 H   0  0  0  0  0  0  0  0  0  0  0  0
   -0.4125   -0.7145    0.0000 H   0  0  0  0  0  0  0  0  0  0  0  0
  1  2  1  0  0  0  0
  2  3  2  0  0  0  0
  2  4  1  0  0  0  0
  4  5  1  0  0  0  0
  5  6  2  0  0  0  0
  1  7  1  0  0  0  0
  1  8  1  0  0  0  0
  1  9  1  0  0  0  0
  5 10  1  0  0  0  0
  6 11  1  0  0  0  0
  6 12  1  0  0  0  0
M  END
>  <InChIKey>
XTXRWKRVRITETP-UHFFFAOYSA-N

>  <UN GHS>
Non-irritant

>  <CASRN>
108-05-4

> <Outcome>
0

>  <Index>
938

>  <StandardizerResult>
Clear Stereo (ID: ClearStereo)
Wedge Clean (ID: WedgeClean)
Mesomerize (ID: Mesomerize)
Tautomerize (ID: Tautomerize)
Add Explicit Hydrogens (ID: AddExplicitH)
Neutralize (ID: Neutralize)
Clean 2D (ID: Clean2D)

> <knn Distance>
2.64575123786926

> <CpId>
938

$$$$
939
  Mrv1532301301811342D          

 59 58  0  0  0  0            999 V2000
    9.1764    6.1353    0.0000 C   0  0  0  0  0  0  0  0  0  0  0  0
    9.8909    5.7228    0.0000 C   0  0  0  0  0  0  0  0  0  0  0  0
   10.6054    6.1353    0.0000 C   0  0  0  0  0  0  0  0  0  0  0  0
   11.3198    5.7228    0.0000 C   0  0  0  0  0  0  0  0  0  0  0  0
   12.0343    6.1353    0.0000 C   0  0  0  0  0  0  0  0  0  0  0  0
   12.7488    5.7228    0.0000 C   0  0  0  0  0  0  0  0  0  0  0  0
   13.4632    6.1353    0.0000 C   0  0  0  0  0  0  0  0  0  0  0  0
   14.1777    5.7228    0.0000 C   0  0  0  0  0  0  0  0  0  0  0  0
   14.8922    6.1353    0.0000 C   0  0  0  0  0  0  0  0  0  0  0  0
   15.6067    5.7228    0.0000 C   0  0  0  0  0  0  0  0  0  0  0  0
   16.3211    6.1353    0.0000 C   0  0  0  0  0  0  0  0  0  0  0  0
   17.0356    5.7228    0.0000 C   0  0  0  0  0  0  0  0  0  0  0  0
   17.7501    6.1353    0.0000 C   0  0  0  0  0  0  0  0  0  0  0  0
   18.4645    5.7228    0.0000 C   0  0  0  0  0  0  0  0  0  0  0  0
   19.1790    6.1353    0.0000 C   0  0  0  0  0  0  0  0  0  0  0  0
   19.8935    5.7228    0.0000 C   0  0  0  0  0  0  0  0  0  0  0  0
   19.8935    4.8978    0.0000 O   0  0  0  0  0  0  0  0  0  0  0  0
   20.6080    6.1353    0.0000 O   0  0  0  0  0  0  0  0  0  0  0  0
   21.3224    5.7228    0.0000 C   0  0  0  0  0  0  0  0  0  0  0  0
   22.0369    6.1353    0.0000 C   0  0  0  0  0  0  0  0  0  0  0  0
   21.3224    4.8978    0.0000 C   0  0  0  0  0  0  0  0  0  0  0  0
    9.5889    6.8498    0.0000 H   0  0  0  0  0  0  0  0  0  0  0  0
    8.4619    6.5478    0.0000 H   0  0  0  0  0  0  0  0  0  0  0  0
    8.7639    5.4208    0.0000 H   0  0  0  0  0  0  0  0  0  0  0  0
    9.5206    4.9855    0.0000 H   0  0  0  0  0  0  0  0  0  0  0  0
   10.2611    4.9855    0.0000 H   0  0  0  0  0  0  0  0  0  0  0  0
   10.9756    6.8725    0.0000 H   0  0  0  0  0  0  0  0  0  0  0  0
   10.2351    6.8725    0.0000 H   0  0  0  0  0  0  0  0  0  0  0  0
   10.9496    4.9855    0.0000 H   0  0  0  0  0  0  0  0  0  0  0  0
   11.6901    4.9855    0.0000 H   0  0  0  0  0  0  0  0  0  0  0  0
   12.4046    6.8725    0.0000 H   0  0  0  0  0  0  0  0  0  0  0  0
   11.6640    6.8725    0.0000 H   0  0  0  0  0  0  0  0  0  0  0  0
   12.3785    4.9855    0.0000 H   0  0  0  0  0  0  0  0  0  0  0  0
   13.1190    4.9855    0.0000 H   0  0  0  0  0  0  0  0  0  0  0  0
   13.8335    6.8725    0.0000 H   0  0  0  0  0  0  0  0  0  0  0  0
   13.0930    6.8725    0.0000 H   0  0  0  0  0  0  0  0  0  0  0  0
   13.8075    4.9855    0.0000 H   0  0  0  0  0  0  0  0  0  0  0  0
   14.5480    4.9855    0.0000 H   0  0  0  0  0  0  0  0  0  0  0  0
   15.2624    6.8725    0.0000 H   0  0  0  0  0  0  0  0  0  0  0  0
   14.5219    6.8725    0.0000 H   0  0  0  0  0  0  0  0  0  0  0  0
   15.2364    4.9855    0.0000 H   0  0  0  0  0  0  0  0  0  0  0  0
   15.9769    4.9855    0.0000 H   0  0  0  0  0  0  0  0  0  0  0  0
   16.6914    6.8725    0.0000 H   0  0  0  0  0  0  0  0  0  0  0  0
   15.9509    6.8725    0.0000 H   0  0  0  0  0  0  0  0  0  0  0  0
   16.6653    4.9855    0.0000 H   0  0  0  0  0  0  0  0  0  0  0  0
   17.4059    4.9855    0.0000 H   0  0  0  0  0  0  0  0  0  0  0  0
   18.1203    6.8725    0.0000 H   0  0  0  0  0  0  0  0  0  0  0  0
   17.3798    6.8725    0.0000 H   0  0  0  0  0  0  0  0  0  0  0  0
   18.0943    4.9855    0.0000 H   0  0  0  0  0  0  0  0  0  0  0  0
   18.8348    4.9855    0.0000 H   0  0  0  0  0  0  0  0  0  0  0  0
   19.5493    6.8725    0.0000 H   0  0  0  0  0  0  0  0  0  0  0  0
   18.8087    6.8725    0.0000 H   0  0  0  0  0  0  0  0  0  0  0  0
   21.3224    6.5478    0.0000 H   0  0  0  0  0  0  0  0  0  0  0  0
   22.2504    5.3384    0.0000 H   0  0  0  0  0  0  0  0  0  0  0  0
   22.8619    6.1353    0.0000 H   0  0  0  0  0  0  0  0  0  0  0  0
   22.2504    6.9322    0.0000 H   0  0  0  0  0  0  0  0  0  0  0  0
   20.4974    4.8978    0.0000 H   0  0  0  0  0  0  0  0  0  0  0  0
   21.3224    4.0728    0.0000 H   0  0  0  0  0  0  0  0  0  0  0  0
   22.1474    4.8978    0.0000 H   0  0  0  0  0  0  0  0  0  0  0  0
  1  2  1  0  0  0  0
  2  3  1  0  0  0  0
  3  4  1  0  0  0  0
  4  5  1  0  0  0  0
  5  6  1  0  0  0  0
  6  7  1  0  0  0  0
  7  8  1  0  0  0  0
  8  9  1  0  0  0  0
  9 10  1  0  0  0  0
 10 11  1  0  0  0  0
 11 12  1  0  0  0  0
 12 13  1  0  0  0  0
 13 14  1  0  0  0  0
 14 15  1  0  0  0  0
 15 16  1  0  0  0  0
 16 17  2  0  0  0  0
 16 18  1  0  0  0  0
 18 19  1  0  0  0  0
 19 20  1  0  0  0  0
 19 21  1  0  0  0  0
  1 22  1  0  0  0  0
  1 23  1  0  0  0  0
  1 24  1  0  0  0  0
  2 25  1  0  0  0  0
  2 26  1  0  0  0  0
  3 27  1  0  0  0  0
  3 28  1  0  0  0  0
  4 29  1  0  0  0  0
  4 30  1  0  0  0  0
  5 31  1  0  0  0  0
  5 32  1  0  0  0  0
  6 33  1  0  0  0  0
  6 34  1  0  0  0  0
  7 35  1  0  0  0  0
  7 36  1  0  0  0  0
  8 37  1  0  0  0  0
  8 38  1  0  0  0  0
  9 39  1  0  0  0  0
  9 40  1  0  0  0  0
 10 41  1  0  0  0  0
 10 42  1  0  0  0  0
 11 43  1  0  0  0  0
 11 44  1  0  0  0  0
 12 45  1  0  0  0  0
 12 46  1  0  0  0  0
 13 47  1  0  0  0  0
 13 48  1  0  0  0  0
 14 49  1  0  0  0  0
 14 50  1  0  0  0  0
 15 51  1  0  0  0  0
 15 52  1  0  0  0  0
 19 53  1  0  0  0  0
 20 54  1  0  0  0  0
 20 55  1  0  0  0  0
 20 56  1  0  0  0  0
 21 57  1  0  0  0  0
 21 58  1  0  0  0  0
 21 59  1  0  0  0  0
M  END
>  <InChIKey>
XUGNVMKQXJXZCD-UHFFFAOYSA-N

>  <UN GHS>
Non-irritant

>  <CASRN>
142-91-6

> <Outcome>
0

>  <Index>
939

>  <StandardizerResult>
Clear Stereo (ID: ClearStereo)
Wedge Clean (ID: WedgeClean)
Mesomerize (ID: Mesomerize)
Tautomerize (ID: Tautomerize)
Add Explicit Hydrogens (ID: AddExplicitH)
Neutralize (ID: Neutralize)
Clean 2D (ID: Clean2D)

> <knn Distance>
2.64575123786926

> <CpId>
939

$$$$
944
  Mrv1532301301811342D          

 23 22  0  0  0  0            999 V2000
    2.9980    2.5567    0.0000 C   0  0  0  0  0  0  0  0  0  0  0  0
    3.7125    2.1442    0.0000 C   0  0  0  0  0  0  0  0  0  0  0  0
    4.4270    2.5567    0.0000 O   0  0  0  0  0  0  0  0  0  0  0  0
    5.1414    2.1442    0.0000 C   0  0  0  0  0  0  0  0  0  0  0  0
    5.8559    2.5567    0.0000 C   0  0  0  0  0  0  0  0  0  0  0  0
    6.5704    2.1442    0.0000 O   0  0  0  0  0  0  0  0  0  0  0  0
    7.2848    2.5567    0.0000 C   0  0  0  0  0  0  0  0  0  0  0  0
    7.9993    2.1442    0.0000 C   0  0  0  0  0  0  0  0  0  0  0  0
    8.7138    2.5567    0.0000 O   0  0  0  0  0  0  0  0  0  0  0  0
    3.4105    3.2711    0.0000 H   0  0  0  0  0  0  0  0  0  0  0  0
    2.2835    2.9692    0.0000 H   0  0  0  0  0  0  0  0  0  0  0  0
    2.5855    1.8422    0.0000 H   0  0  0  0  0  0  0  0  0  0  0  0
    3.3422    1.4069    0.0000 H   0  0  0  0  0  0  0  0  0  0  0  0
    4.0827    1.4069    0.0000 H   0  0  0  0  0  0  0  0  0  0  0  0
    4.7712    1.4069    0.0000 H   0  0  0  0  0  0  0  0  0  0  0  0
    5.5117    1.4069    0.0000 H   0  0  0  0  0  0  0  0  0  0  0  0
    6.2262    3.2939    0.0000 H   0  0  0  0  0  0  0  0  0  0  0  0
    5.4856    3.2939    0.0000 H   0  0  0  0  0  0  0  0  0  0  0  0
    7.6551    3.2939    0.0000 H   0  0  0  0  0  0  0  0  0  0  0  0
    6.9146    3.2939    0.0000 H   0  0  0  0  0  0  0  0  0  0  0  0
    7.6291    1.4069    0.0000 H   0  0  0  0  0  0  0  0  0  0  0  0
    8.3696    1.4069    0.0000 H   0  0  0  0  0  0  0  0  0  0  0  0
    9.4283    2.1442    0.0000 H   0  0  0  0  0  0  0  0  0  0  0  0
  1  2  1  0  0  0  0
  2  3  1  0  0  0  0
  3  4  1  0  0  0  0
  4  5  1  0  0  0  0
  5  6  1  0  0  0  0
  6  7  1  0  0  0  0
  7  8  1  0  0  0  0
  8  9  1  0  0  0  0
  1 10  1  0  0  0  0
  1 11  1  0  0  0  0
  1 12  1  0  0  0  0
  2 13  1  0  0  0  0
  2 14  1  0  0  0  0
  4 15  1  0  0  0  0
  4 16  1  0  0  0  0
  5 17  1  0  0  0  0
  5 18  1  0  0  0  0
  7 19  1  0  0  0  0
  7 20  1  0  0  0  0
  8 21  1  0  0  0  0
  8 22  1  0  0  0  0
  9 23  1  0  0  0  0
M  END
>  <InChIKey>
XXJWXESWEXIICW-UHFFFAOYSA-N

>  <UN GHS>
Non-irritant

>  <CASRN>
111-90-0

> <Outcome>
0

>  <Index>
944

>  <StandardizerResult>
Clear Stereo (ID: ClearStereo)
Wedge Clean (ID: WedgeClean)
Mesomerize (ID: Mesomerize)
Tautomerize (ID: Tautomerize)
Add Explicit Hydrogens (ID: AddExplicitH)
Neutralize (ID: Neutralize)
Clean 2D (ID: Clean2D)

> <knn Distance>
2.64575123786926

> <CpId>
944

$$$$
949
  Mrv1532301301811342D          

 29 30  0  0  0  0            999 V2000
    2.1288   -0.4339    0.0000 N   0  0  0  0  0  0  0  0  0  0  0  0
    2.1288   -1.2589    0.0000 C   0  0  0  0  0  0  0  0  0  0  0  0
    2.8433   -1.6714    0.0000 C   0  0  0  0  0  0  0  0  0  0  0  0
    2.8433   -2.4964    0.0000 C   0  0  0  0  0  0  0  0  0  0  0  0
    2.1288   -2.9089    0.0000 C   0  0  0  0  0  0  0  0  0  0  0  0
    2.1288   -3.7339    0.0000 C   0  0  0  0  0  0  0  0  0  0  0  0
    1.4143   -4.1464    0.0000 C   0  0  0  0  0  0  0  0  0  0  0  0
    1.4143   -4.9714    0.0000 C   0  0  0  0  0  0  0  0  0  0  0  0
    0.6999   -5.3839    0.0000 C   0  0  0  0  0  0  0  0  0  0  0  0
   -0.0146   -4.9714    0.0000 C   0  0  0  0  0  0  0  0  0  0  0  0
   -0.7291   -5.3839    0.0000 N   0  0  0  0  0  0  0  0  0  0  0  0
   -0.0146   -4.1464    0.0000 C   0  0  0  0  0  0  0  0  0  0  0  0
    0.6999   -3.7339    0.0000 C   0  0  0  0  0  0  0  0  0  0  0  0
    1.4143   -2.4964    0.0000 C   0  0  0  0  0  0  0  0  0  0  0  0
    1.4143   -1.6714    0.0000 C   0  0  0  0  0  0  0  0  0  0  0  0
    2.8433   -0.0214    0.0000 H   0  0  0  0  0  0  0  0  0  0  0  0
    1.4143   -0.0214    0.0000 H   0  0  0  0  0  0  0  0  0  0  0  0
    3.5578   -1.2589    0.0000 H   0  0  0  0  0  0  0  0  0  0  0  0
    3.5578   -2.9089    0.0000 H   0  0  0  0  0  0  0  0  0  0  0  0
    2.5822   -4.4231    0.0000 H   0  0  0  0  0  0  0  0  0  0  0  0
    2.9524   -3.7818    0.0000 H   0  0  0  0  0  0  0  0  0  0  0  0
    2.1288   -5.3839    0.0000 H   0  0  0  0  0  0  0  0  0  0  0  0
    0.6999   -6.2089    0.0000 H   0  0  0  0  0  0  0  0  0  0  0  0
   -1.4435   -4.9714    0.0000 H   0  0  0  0  0  0  0  0  0  0  0  0
   -0.7291   -6.2089    0.0000 H   0  0  0  0  0  0  0  0  0  0  0  0
   -0.7291   -3.7339    0.0000 H   0  0  0  0  0  0  0  0  0  0  0  0
    0.6999   -2.9089    0.0000 H   0  0  0  0  0  0  0  0  0  0  0  0
    0.6999   -2.0839    0.0000 H   0  0  0  0  0  0  0  0  0  0  0  0
    1.0018   -0.9569    0.0000 H   0  0  0  0  0  0  0  0  0  0  0  0
  1  2  1  0  0  0  0
  2  3  4  0  0  0  0
  3  4  4  0  0  0  0
  4  5  4  0  0  0  0
  5  6  1  0  0  0  0
  6  7  1  0  0  0  0
  7  8  4  0  0  0  0
  8  9  4  0  0  0  0
  9 10  4  0  0  0  0
 10 11  1  0  0  0  0
 10 12  4  0  0  0  0
 12 13  4  0  0  0  0
  7 13  4  0  0  0  0
  5 14  4  0  0  0  0
 14 15  4  0  0  0  0
  2 15  4  0  0  0  0
  1 16  1  0  0  0  0
  1 17  1  0  0  0  0
  3 18  1  0  0  0  0
  4 19  1  0  0  0  0
  6 20  1  0  0  0  0
  6 21  1  0  0  0  0
  8 22  1  0  0  0  0
  9 23  1  0  0  0  0
 11 24  1  0  0  0  0
 11 25  1  0  0  0  0
 12 26  1  0  0  0  0
 13 27  1  0  0  0  0
 14 28  1  0  0  0  0
 15 29  1  0  0  0  0
M  END
>  <InChIKey>
YBRVSVVVWCFQMG-UHFFFAOYSA-N

>  <UN GHS>
Non-irritant

>  <CASRN>
101-77-9

> <Outcome>
0

>  <Index>
949

>  <StandardizerResult>
Dearomatize (ID: Dearomatize)
Clear Stereo (ID: ClearStereo)
Wedge Clean (ID: WedgeClean)
Mesomerize (ID: Mesomerize)
Tautomerize (ID: Tautomerize)
Aromatize (ID: Aromatize)
Add Explicit Hydrogens (ID: AddExplicitH)
Neutralize (ID: Neutralize)
Clean 2D (ID: Clean2D)

> <knn Distance>
2.64575123786926

> <CpId>
949

$$$$
959
  Mrv1532301301811342D          

 47 46  0  0  0  0            999 V2000
    3.3942    2.8529    0.0000 C   0  0  0  0  0  0  0  0  0  0  0  0
    4.1086    3.2654    0.0000 C   0  0  0  0  0  0  0  0  0  0  0  0
    4.8231    2.8529    0.0000 C   0  0  0  0  0  0  0  0  0  0  0  0
    4.8231    2.0279    0.0000 C   0  0  0  0  0  0  0  0  0  0  0  0
    5.5376    3.2654    0.0000 C   0  0  0  0  0  0  0  0  0  0  0  0
    6.2520    2.8529    0.0000 C   0  0  0  0  0  0  0  0  0  0  0  0
    6.9665    3.2654    0.0000 C   0  0  0  0  0  0  0  0  0  0  0  0
    7.6810    2.8529    0.0000 C   0  0  0  0  0  0  0  0  0  0  0  0
    7.6810    2.0279    0.0000 C   0  0  0  0  0  0  0  0  0  0  0  0
    8.3954    3.2654    0.0000 C   0  0  0  0  0  0  0  0  0  0  0  0
    9.1099    2.8529    0.0000 C   0  0  0  0  0  0  0  0  0  0  0  0
    9.8244    3.2654    0.0000 C   0  0  0  0  0  0  0  0  0  0  0  0
   10.5389    2.8529    0.0000 C   0  0  0  0  0  0  0  0  0  0  0  0
   11.2533    3.2654    0.0000 C   0  0  0  0  0  0  0  0  0  0  0  0
   10.5389    2.0279    0.0000 C   0  0  0  0  0  0  0  0  0  0  0  0
    2.9817    3.5674    0.0000 H   0  0  0  0  0  0  0  0  0  0  0  0
    2.6797    2.4404    0.0000 H   0  0  0  0  0  0  0  0  0  0  0  0
    3.8067    2.1385    0.0000 H   0  0  0  0  0  0  0  0  0  0  0  0
    4.4789    4.0027    0.0000 H   0  0  0  0  0  0  0  0  0  0  0  0
    3.7384    4.0027    0.0000 H   0  0  0  0  0  0  0  0  0  0  0  0
    4.1086    2.4404    0.0000 H   0  0  0  0  0  0  0  0  0  0  0  0
    4.2397    1.4446    0.0000 H   0  0  0  0  0  0  0  0  0  0  0  0
    5.2356    1.3135    0.0000 H   0  0  0  0  0  0  0  0  0  0  0  0
    5.6200    2.2415    0.0000 H   0  0  0  0  0  0  0  0  0  0  0  0
    5.9078    4.0027    0.0000 H   0  0  0  0  0  0  0  0  0  0  0  0
    5.1673    4.0027    0.0000 H   0  0  0  0  0  0  0  0  0  0  0  0
    6.7488    2.1943    0.0000 H   0  0  0  0  0  0  0  0  0  0  0  0
    6.2520    3.6779    0.0000 H   0  0  0  0  0  0  0  0  0  0  0  0
    7.5985    3.7957    0.0000 H   0  0  0  0  0  0  0  0  0  0  0  0
    7.1098    4.0779    0.0000 H   0  0  0  0  0  0  0  0  0  0  0  0
    6.9665    2.4404    0.0000 H   0  0  0  0  0  0  0  0  0  0  0  0
    7.2674    1.3141    0.0000 H   0  0  0  0  0  0  0  0  0  0  0  0
    8.2106    1.3954    0.0000 H   0  0  0  0  0  0  0  0  0  0  0  0
    8.4564    2.3097    0.0000 H   0  0  0  0  0  0  0  0  0  0  0  0
    9.1185    3.6627    0.0000 H   0  0  0  0  0  0  0  0  0  0  0  0
    8.4304    4.0897    0.0000 H   0  0  0  0  0  0  0  0  0  0  0  0
    9.2032    2.0332    0.0000 H   0  0  0  0  0  0  0  0  0  0  0  0
    9.8466    2.4815    0.0000 H   0  0  0  0  0  0  0  0  0  0  0  0
   10.4541    3.7984    0.0000 H   0  0  0  0  0  0  0  0  0  0  0  0
    9.9622    4.0788    0.0000 H   0  0  0  0  0  0  0  0  0  0  0  0
   11.2533    2.4404    0.0000 H   0  0  0  0  0  0  0  0  0  0  0  0
   11.9611    2.8415    0.0000 H   0  0  0  0  0  0  0  0  0  0  0  0
   11.9807    3.6547    0.0000 H   0  0  0  0  0  0  0  0  0  0  0  0
   11.2933    4.0895    0.0000 H   0  0  0  0  0  0  0  0  0  0  0  0
    9.8076    1.6460    0.0000 H   0  0  0  0  0  0  0  0  0  0  0  0
   10.5156    1.2033    0.0000 H   0  0  0  0  0  0  0  0  0  0  0  0
   11.2474    1.6054    0.0000 H   0  0  0  0  0  0  0  0  0  0  0  0
  1  2  1  0  0  0  0
  2  3  1  0  0  0  0
  3  4  1  0  0  0  0
  3  5  1  0  0  0  0
  5  6  1  0  0  0  0
  6  7  1  0  0  0  0
  7  8  1  0  0  0  0
  8  9  1  0  0  0  0
  8 10  1  0  0  0  0
 10 11  1  0  0  0  0
 11 12  1  0  0  0  0
 12 13  1  0  0  0  0
 13 14  1  0  0  0  0
 13 15  1  0  0  0  0
  1 16  1  0  0  0  0
  1 17  1  0  0  0  0
  1 18  1  0  0  0  0
  2 19  1  0  0  0  0
  2 20  1  0  0  0  0
  3 21  1  0  0  0  0
  4 22  1  0  0  0  0
  4 23  1  0  0  0  0
  4 24  1  0  0  0  0
  5 25  1  0  0  0  0
  5 26  1  0  0  0  0
  6 27  1  0  0  0  0
  6 28  1  0  0  0  0
  7 29  1  0  0  0  0
  7 30  1  0  0  0  0
  8 31  1  0  0  0  0
  9 32  1  0  0  0  0
  9 33  1  0  0  0  0
  9 34  1  0  0  0  0
 10 35  1  0  0  0  0
 10 36  1  0  0  0  0
 11 37  1  0  0  0  0
 11 38  1  0  0  0  0
 12 39  1  0  0  0  0
 12 40  1  0  0  0  0
 13 41  1  0  0  0  0
 14 42  1  0  0  0  0
 14 43  1  0  0  0  0
 14 44  1  0  0  0  0
 15 45  1  0  0  0  0
 15 46  1  0  0  0  0
 15 47  1  0  0  0  0
M  END
>  <InChIKey>
YFHFHLSMISYUAQ-UHFFFAOYSA-N

>  <UN GHS>
Non-irritant

>  <CASRN>
3891-98-3

> <Outcome>
0

>  <Index>
959

>  <StandardizerResult>
Clear Stereo (ID: ClearStereo)
Wedge Clean (ID: WedgeClean)
Mesomerize (ID: Mesomerize)
Tautomerize (ID: Tautomerize)
Add Explicit Hydrogens (ID: AddExplicitH)
Neutralize (ID: Neutralize)
Clean 2D (ID: Clean2D)

> <knn Distance>
2.64575123786926

> <CpId>
959

$$$$
966
  Mrv1532301301811342D          

 80 79  0  0  0  0            999 V2000
   12.1376    7.8731    0.0000 C   0  0  0  0  0  0  0  0  0  0  0  0
   12.8521    8.2856    0.0000 C   0  0  0  0  0  0  0  0  0  0  0  0
   12.8521    9.1106    0.0000 C   0  0  0  0  0  0  0  0  0  0  0  0
   13.5665    7.8731    0.0000 C   0  0  0  0  0  0  0  0  0  0  0  0
   14.2810    8.2856    0.0000 C   0  0  0  0  0  0  0  0  0  0  0  0
   14.9955    7.8731    0.0000 C   0  0  0  0  0  0  0  0  0  0  0  0
   15.7100    8.2856    0.0000 C   0  0  0  0  0  0  0  0  0  0  0  0
   16.4244    7.8731    0.0000 C   0  0  0  0  0  0  0  0  0  0  0  0
   17.1389    8.2856    0.0000 C   0  0  0  0  0  0  0  0  0  0  0  0
   17.8534    7.8731    0.0000 C   0  0  0  0  0  0  0  0  0  0  0  0
   18.5678    8.2856    0.0000 O   0  0  0  0  0  0  0  0  0  0  0  0
   19.2823    7.8731    0.0000 C   0  0  0  0  0  0  0  0  0  0  0  0
   19.2823    7.0481    0.0000 O   0  0  0  0  0  0  0  0  0  0  0  0
   19.9968    8.2856    0.0000 C   0  0  0  0  0  0  0  0  0  0  0  0
   20.7113    7.8731    0.0000 C   0  0  0  0  0  0  0  0  0  0  0  0
   21.4257    8.2856    0.0000 C   0  0  0  0  0  0  0  0  0  0  0  0
   22.1402    7.8731    0.0000 C   0  0  0  0  0  0  0  0  0  0  0  0
   22.8547    8.2856    0.0000 C   0  0  0  0  0  0  0  0  0  0  0  0
   22.8547    9.1106    0.0000 O   0  0  0  0  0  0  0  0  0  0  0  0
   23.5691    7.8731    0.0000 O   0  0  0  0  0  0  0  0  0  0  0  0
   24.2836    8.2856    0.0000 C   0  0  0  0  0  0  0  0  0  0  0  0
   24.9981    7.8731    0.0000 C   0  0  0  0  0  0  0  0  0  0  0  0
   25.7125    8.2856    0.0000 C   0  0  0  0  0  0  0  0  0  0  0  0
   26.4270    7.8731    0.0000 C   0  0  0  0  0  0  0  0  0  0  0  0
   27.1415    8.2856    0.0000 C   0  0  0  0  0  0  0  0  0  0  0  0
   27.8560    7.8731    0.0000 C   0  0  0  0  0  0  0  0  0  0  0  0
   28.5704    8.2856    0.0000 C   0  0  0  0  0  0  0  0  0  0  0  0
   29.2849    7.8731    0.0000 C   0  0  0  0  0  0  0  0  0  0  0  0
   29.9994    8.2856    0.0000 C   0  0  0  0  0  0  0  0  0  0  0  0
   29.2849    7.0481    0.0000 C   0  0  0  0  0  0  0  0  0  0  0  0
   11.7251    8.5876    0.0000 H   0  0  0  0  0  0  0  0  0  0  0  0
   11.4231    7.4606    0.0000 H   0  0  0  0  0  0  0  0  0  0  0  0
   12.5501    7.1586    0.0000 H   0  0  0  0  0  0  0  0  0  0  0  0
   12.1376    8.6981    0.0000 H   0  0  0  0  0  0  0  0  0  0  0  0
   13.6490    8.8971    0.0000 H   0  0  0  0  0  0  0  0  0  0  0  0
   13.2646    9.8251    0.0000 H   0  0  0  0  0  0  0  0  0  0  0  0
   12.2687    9.6939    0.0000 H   0  0  0  0  0  0  0  0  0  0  0  0
   13.1963    7.1358    0.0000 H   0  0  0  0  0  0  0  0  0  0  0  0
   13.9368    7.1358    0.0000 H   0  0  0  0  0  0  0  0  0  0  0  0
   14.7778    8.9442    0.0000 H   0  0  0  0  0  0  0  0  0  0  0  0
   14.2810    7.4606    0.0000 H   0  0  0  0  0  0  0  0  0  0  0  0
   15.1387    7.0606    0.0000 H   0  0  0  0  0  0  0  0  0  0  0  0
   15.6275    7.3428    0.0000 H   0  0  0  0  0  0  0  0  0  0  0  0
   16.0802    9.0228    0.0000 H   0  0  0  0  0  0  0  0  0  0  0  0
   15.3397    9.0228    0.0000 H   0  0  0  0  0  0  0  0  0  0  0  0
   16.4594    7.0488    0.0000 H   0  0  0  0  0  0  0  0  0  0  0  0
   17.1475    7.4758    0.0000 H   0  0  0  0  0  0  0  0  0  0  0  0
   17.5092    9.0228    0.0000 H   0  0  0  0  0  0  0  0  0  0  0  0
   16.7686    9.0228    0.0000 H   0  0  0  0  0  0  0  0  0  0  0  0
   17.9912    7.0597    0.0000 H   0  0  0  0  0  0  0  0  0  0  0  0
   18.4831    7.3401    0.0000 H   0  0  0  0  0  0  0  0  0  0  0  0
   20.3670    9.0228    0.0000 H   0  0  0  0  0  0  0  0  0  0  0  0
   19.6265    9.0228    0.0000 H   0  0  0  0  0  0  0  0  0  0  0  0
   20.3410    7.1358    0.0000 H   0  0  0  0  0  0  0  0  0  0  0  0
   21.0815    7.1358    0.0000 H   0  0  0  0  0  0  0  0  0  0  0  0
   21.7960    9.0228    0.0000 H   0  0  0  0  0  0  0  0  0  0  0  0
   21.0555    9.0228    0.0000 H   0  0  0  0  0  0  0  0  0  0  0  0
   21.7699    7.1358    0.0000 H   0  0  0  0  0  0  0  0  0  0  0  0
   22.5105    7.1358    0.0000 H   0  0  0  0  0  0  0  0  0  0  0  0
   24.6539    9.0228    0.0000 H   0  0  0  0  0  0  0  0  0  0  0  0
   23.9133    9.0228    0.0000 H   0  0  0  0  0  0  0  0  0  0  0  0
   24.6278    7.1358    0.0000 H   0  0  0  0  0  0  0  0  0  0  0  0
   25.3683    7.1358    0.0000 H   0  0  0  0  0  0  0  0  0  0  0  0
   26.0828    9.0228    0.0000 H   0  0  0  0  0  0  0  0  0  0  0  0
   25.3423    9.0228    0.0000 H   0  0  0  0  0  0  0  0  0  0  0  0
   26.0568    7.1358    0.0000 H   0  0  0  0  0  0  0  0  0  0  0  0
   26.7973    7.1358    0.0000 H   0  0  0  0  0  0  0  0  0  0  0  0
   27.5117    9.0228    0.0000 H   0  0  0  0  0  0  0  0  0  0  0  0
   26.7712    9.0228    0.0000 H   0  0  0  0  0  0  0  0  0  0  0  0
   27.4857    7.1358    0.0000 H   0  0  0  0  0  0  0  0  0  0  0  0
   28.2262    7.1358    0.0000 H   0  0  0  0  0  0  0  0  0  0  0  0
   28.9407    9.0228    0.0000 H   0  0  0  0  0  0  0  0  0  0  0  0
   28.2002    9.0228    0.0000 H   0  0  0  0  0  0  0  0  0  0  0  0
   29.2849    8.6981    0.0000 H   0  0  0  0  0  0  0  0  0  0  0  0
   30.2129    7.4887    0.0000 H   0  0  0  0  0  0  0  0  0  0  0  0
   30.8244    8.2856    0.0000 H   0  0  0  0  0  0  0  0  0  0  0  0
   30.2129    9.0825    0.0000 H   0  0  0  0  0  0  0  0  0  0  0  0
   28.4599    7.0481    0.0000 H   0  0  0  0  0  0  0  0  0  0  0  0
   29.2849    6.2231    0.0000 H   0  0  0  0  0  0  0  0  0  0  0  0
   30.1099    7.0481    0.0000 H   0  0  0  0  0  0  0  0  0  0  0  0
  1  2  1  0  0  0  0
  2  3  1  0  0  0  0
  2  4  1  0  0  0  0
  4  5  1  0  0  0  0
  5  6  1  0  0  0  0
  6  7  1  0  0  0  0
  7  8  1  0  0  0  0
  8  9  1  0  0  0  0
  9 10  1  0  0  0  0
 10 11  1  0  0  0  0
 11 12  1  0  0  0  0
 12 13  2  0  0  0  0
 12 14  1  0  0  0  0
 14 15  1  0  0  0  0
 15 16  1  0  0  0  0
 16 17  1  0  0  0  0
 17 18  1  0  0  0  0
 18 19  2  0  0  0  0
 18 20  1  0  0  0  0
 20 21  1  0  0  0  0
 21 22  1  0  0  0  0
 22 23  1  0  0  0  0
 23 24  1  0  0  0  0
 24 25  1  0  0  0  0
 25 26  1  0  0  0  0
 26 27  1  0  0  0  0
 27 28  1  0  0  0  0
 28 29  1  0  0  0  0
 28 30  1  0  0  0  0
  1 31  1  0  0  0  0
  1 32  1  0  0  0  0
  1 33  1  0  0  0  0
  2 34  1  0  0  0  0
  3 35  1  0  0  0  0
  3 36  1  0  0  0  0
  3 37  1  0  0  0  0
  4 38  1  0  0  0  0
  4 39  1  0  0  0  0
  5 40  1  0  0  0  0
  5 41  1  0  0  0  0
  6 42  1  0  0  0  0
  6 43  1  0  0  0  0
  7 44  1  0  0  0  0
  7 45  1  0  0  0  0
  8 46  1  0  0  0  0
  8 47  1  0  0  0  0
  9 48  1  0  0  0  0
  9 49  1  0  0  0  0
 10 50  1  0  0  0  0
 10 51  1  0  0  0  0
 14 52  1  0  0  0  0
 14 53  1  0  0  0  0
 15 54  1  0  0  0  0
 15 55  1  0  0  0  0
 16 56  1  0  0  0  0
 16 57  1  0  0  0  0
 17 58  1  0  0  0  0
 17 59  1  0  0  0  0
 21 60  1  0  0  0  0
 21 61  1  0  0  0  0
 22 62  1  0  0  0  0
 22 63  1  0  0  0  0
 23 64  1  0  0  0  0
 23 65  1  0  0  0  0
 24 66  1  0  0  0  0
 24 67  1  0  0  0  0
 25 68  1  0  0  0  0
 25 69  1  0  0  0  0
 26 70  1  0  0  0  0
 26 71  1  0  0  0  0
 27 72  1  0  0  0  0
 27 73  1  0  0  0  0
 28 74  1  0  0  0  0
 29 75  1  0  0  0  0
 29 76  1  0  0  0  0
 29 77  1  0  0  0  0
 30 78  1  0  0  0  0
 30 79  1  0  0  0  0
 30 80  1  0  0  0  0
M  END
>  <InChIKey>
YKGYQYOQRGPFTO-UHFFFAOYSA-N

>  <UN GHS>
Non-irritant

>  <CASRN>
27178-16-1

> <Outcome>
0

>  <Index>
966

>  <StandardizerResult>
Clear Stereo (ID: ClearStereo)
Wedge Clean (ID: WedgeClean)
Mesomerize (ID: Mesomerize)
Tautomerize (ID: Tautomerize)
Add Explicit Hydrogens (ID: AddExplicitH)
Neutralize (ID: Neutralize)
Clean 2D (ID: Clean2D)

> <knn Distance>
2.64575123786926

> <CpId>
966

$$$$
984
  Mrv1532301301811342D          

 23 24  0  0  0  0            999 V2000
    0.7145   -0.4125    0.0000 O   0  0  0  0  0  0  0  0  0  0  0  0
    0.7145   -1.2375    0.0000 C   0  0  0  0  0  0  0  0  0  0  0  0
    1.4289   -1.6500    0.0000 C   0  0  0  0  0  0  0  0  0  0  0  0
    1.4289   -2.4750    0.0000 C   0  0  0  0  0  0  0  0  0  0  0  0
    0.7145   -2.8875    0.0000 C   0  0  0  0  0  0  0  0  0  0  0  0
   -0.0000   -2.4750    0.0000 C   0  0  0  0  0  0  0  0  0  0  0  0
   -0.0000   -1.6500    0.0000 C   0  0  0  0  0  0  0  0  0  0  0  0
    0.7145   -3.7125    0.0000 C   0  0  0  0  0  0  0  0  0  0  0  0
    1.4289   -4.1250    0.0000 C   0  0  0  0  0  0  0  0  0  0  0  0
    1.4289   -4.9500    0.0000 C   0  0  0  0  0  0  0  0  0  0  0  0
    0.7145   -5.3625    0.0000 C   0  0  0  0  0  0  0  0  0  0  0  0
   -0.0000   -4.9500    0.0000 C   0  0  0  0  0  0  0  0  0  0  0  0
   -0.0000   -4.1250    0.0000 C   0  0  0  0  0  0  0  0  0  0  0  0
    1.4289    0.0000    0.0000 H   0  0  0  0  0  0  0  0  0  0  0  0
    2.1434   -1.2375    0.0000 H   0  0  0  0  0  0  0  0  0  0  0  0
    2.1434   -2.8875    0.0000 H   0  0  0  0  0  0  0  0  0  0  0  0
   -0.7145   -2.8875    0.0000 H   0  0  0  0  0  0  0  0  0  0  0  0
   -0.7145   -1.2375    0.0000 H   0  0  0  0  0  0  0  0  0  0  0  0
    2.1434   -3.7125    0.0000 H   0  0  0  0  0  0  0  0  0  0  0  0
    2.1434   -5.3625    0.0000 H   0  0  0  0  0  0  0  0  0  0  0  0
    0.7145   -6.1875    0.0000 H   0  0  0  0  0  0  0  0  0  0  0  0
   -0.7145   -5.3625    0.0000 H   0  0  0  0  0  0  0  0  0  0  0  0
   -0.7145   -3.7125    0.0000 H   0  0  0  0  0  0  0  0  0  0  0  0
  1  2  1  0  0  0  0
  2  3  4  0  0  0  0
  3  4  4  0  0  0  0
  4  5  4  0  0  0  0
  5  6  4  0  0  0  0
  6  7  4  0  0  0  0
  2  7  4  0  0  0  0
  5  8  1  0  0  0  0
  8  9  4  0  0  0  0
  9 10  4  0  0  0  0
 10 11  4  0  0  0  0
 11 12  4  0  0  0  0
 12 13  4  0  0  0  0
  8 13  4  0  0  0  0
  1 14  1  0  0  0  0
  3 15  1  0  0  0  0
  4 16  1  0  0  0  0
  6 17  1  0  0  0  0
  7 18  1  0  0  0  0
  9 19  1  0  0  0  0
 10 20  1  0  0  0  0
 11 21  1  0  0  0  0
 12 22  1  0  0  0  0
 13 23  1  0  0  0  0
M  END
>  <InChIKey>
YXVFYQXJAXKLAK-UHFFFAOYSA-N

>  <UN GHS>
Non-irritant

>  <CASRN>
92-69-3

> <Outcome>
0

>  <Index>
984

>  <StandardizerResult>
Dearomatize (ID: Dearomatize)
Clear Stereo (ID: ClearStereo)
Wedge Clean (ID: WedgeClean)
Mesomerize (ID: Mesomerize)
Tautomerize (ID: Tautomerize)
Aromatize (ID: Aromatize)
Add Explicit Hydrogens (ID: AddExplicitH)
Neutralize (ID: Neutralize)
Clean 2D (ID: Clean2D)

> <knn Distance>
2.64575123786926

> <CpId>
984

$$$$
1053
  Mrv1532301301811342D          

 23 22  0  0  0  0            999 V2000
    2.5962   -1.5233    0.0000 C   0  0  0  0  0  0  0  0  0  0  0  0
    1.7712   -1.5233    0.0000 C   0  0  0  0  0  0  0  0  0  0  0  0
    1.3587   -0.8088    0.0000 C   0  0  0  0  0  0  0  0  0  0  0  0
    2.0732   -0.3963    0.0000 C   0  0  0  0  0  0  0  0  0  0  0  0
    0.6443   -1.2213    0.0000 C   0  0  0  0  0  0  0  0  0  0  0  0
    0.9462   -0.0944    0.0000 C   0  0  0  0  0  0  0  0  0  0  0  0
    0.1212   -0.0944    0.0000 C   0  0  0  0  0  0  0  0  0  0  0  0
    2.5962   -2.3483    0.0000 H   0  0  0  0  0  0  0  0  0  0  0  0
    3.4212   -1.5233    0.0000 H   0  0  0  0  0  0  0  0  0  0  0  0
    2.5962   -0.6983    0.0000 H   0  0  0  0  0  0  0  0  0  0  0  0
    1.0819   -1.9766    0.0000 H   0  0  0  0  0  0  0  0  0  0  0  0
    1.7233   -2.3469    0.0000 H   0  0  0  0  0  0  0  0  0  0  0  0
    2.7877    0.0162    0.0000 H   0  0  0  0  0  0  0  0  0  0  0  0
    2.0732    0.4287    0.0000 H   0  0  0  0  0  0  0  0  0  0  0  0
    1.3587    0.0162    0.0000 H   0  0  0  0  0  0  0  0  0  0  0  0
    0.5362   -0.4034    0.0000 H   0  0  0  0  0  0  0  0  0  0  0  0
   -0.1528   -1.0084    0.0000 H   0  0  0  0  0  0  0  0  0  0  0  0
    0.1428   -1.8765    0.0000 H   0  0  0  0  0  0  0  0  0  0  0  0
    1.2284    0.6809    0.0000 H   0  0  0  0  0  0  0  0  0  0  0  0
    0.4730    0.5814    0.0000 H   0  0  0  0  0  0  0  0  0  0  0  0
   -0.1637    0.6799    0.0000 H   0  0  0  0  0  0  0  0  0  0  0  0
   -0.6432    0.2159    0.0000 H   0  0  0  0  0  0  0  0  0  0  0  0
   -0.6227   -0.4509    0.0000 H   0  0  0  0  0  0  0  0  0  0  0  0
  1  2  1  0  0  0  0
  2  3  1  0  0  0  0
  3  4  1  0  0  0  0
  3  5  1  0  0  0  0
  3  6  1  0  0  0  0
  6  7  1  0  0  0  0
  1  8  1  0  0  0  0
  1  9  1  0  0  0  0
  1 10  1  0  0  0  0
  2 11  1  0  0  0  0
  2 12  1  0  0  0  0
  4 13  1  0  0  0  0
  4 14  1  0  0  0  0
  4 15  1  0  0  0  0
  5 16  1  0  0  0  0
  5 17  1  0  0  0  0
  5 18  1  0  0  0  0
  6 19  1  0  0  0  0
  6 20  1  0  0  0  0
  7 21  1  0  0  0  0
  7 22  1  0  0  0  0
  7 23  1  0  0  0  0
M  END
>  <InChIKey>
InChI=1S/C7H16/c1-5-7(3,4)6-2/h5-6H2,1-4H3

>  <UN GHS>
Non-irritant

>  <CASRN>
562-49-2

> <Outcome>
0

>  <Index>
1053

>  <StandardizerResult>
Clear Stereo (ID: ClearStereo)
Wedge Clean (ID: WedgeClean)
Mesomerize (ID: Mesomerize)
Tautomerize (ID: Tautomerize)
Add Explicit Hydrogens (ID: AddExplicitH)
Neutralize (ID: Neutralize)
Clean 2D (ID: Clean2D)

> <knn Distance>
2.64575123786926

> <CpId>
1053

$$$$
1234
  Mrv1532301301811342D          

 21 20  0  0  0  0            999 V2000
   -0.6199   -1.6408    0.0000 C   0  0  0  0  0  0  0  0  0  0  0  0
    0.0946   -1.2283    0.0000 C   0  0  0  0  0  0  0  0  0  0  0  0
    0.5071   -1.9428    0.0000 C   0  0  0  0  0  0  0  0  0  0  0  0
   -0.3179   -0.5138    0.0000 Cl  0  0  0  0  0  0  0  0  0  0  0  0
    0.8090   -0.8158    0.0000 O   0  0  0  0  0  0  0  0  0  0  0  0
    0.8090    0.0092    0.0000 C   0  0  0  0  0  0  0  0  0  0  0  0
    0.8090    0.8342    0.0000 C   0  0  0  0  0  0  0  0  0  0  0  0
    1.6340    0.0092    0.0000 C   0  0  0  0  0  0  0  0  0  0  0  0
   -0.0160    0.0092    0.0000 Cl  0  0  0  0  0  0  0  0  0  0  0  0
   -1.0324   -0.9263    0.0000 H   0  0  0  0  0  0  0  0  0  0  0  0
   -1.3344   -2.0533    0.0000 H   0  0  0  0  0  0  0  0  0  0  0  0
   -0.2074   -2.3553    0.0000 H   0  0  0  0  0  0  0  0  0  0  0  0
    0.6147   -2.7607    0.0000 H   0  0  0  0  0  0  0  0  0  0  0  0
    1.3040   -2.1563    0.0000 H   0  0  0  0  0  0  0  0  0  0  0  0
    1.0093   -1.2882    0.0000 H   0  0  0  0  0  0  0  0  0  0  0  0
    1.6340    0.8342    0.0000 H   0  0  0  0  0  0  0  0  0  0  0  0
    0.8090    1.6592    0.0000 H   0  0  0  0  0  0  0  0  0  0  0  0
   -0.0160    0.8342    0.0000 H   0  0  0  0  0  0  0  0  0  0  0  0
    1.3183   -0.7530    0.0000 H   0  0  0  0  0  0  0  0  0  0  0  0
    2.2174   -0.5742    0.0000 H   0  0  0  0  0  0  0  0  0  0  0  0
    2.3962    0.3249    0.0000 H   0  0  0  0  0  0  0  0  0  0  0  0
  1  2  1  0  0  0  0
  2  3  1  0  0  0  0
  2  4  1  0  0  0  0
  2  5  1  0  0  0  0
  5  6  1  0  0  0  0
  6  7  1  0  0  0  0
  6  8  1  0  0  0  0
  6  9  1  0  0  0  0
  1 10  1  0  0  0  0
  1 11  1  0  0  0  0
  1 12  1  0  0  0  0
  3 13  1  0  0  0  0
  3 14  1  0  0  0  0
  3 15  1  0  0  0  0
  7 16  1  0  0  0  0
  7 17  1  0  0  0  0
  7 18  1  0  0  0  0
  8 19  1  0  0  0  0
  8 20  1  0  0  0  0
  8 21  1  0  0  0  0
M  END
>  <InChIKey>
InChI=1S/C6H12Cl2O/c1-5(2,7)9-6(3,4)8/h1-4H3

>  <CASRN>
39638-32-9

> <Outcome>
0

>  <Index>
1234

>  <StandardizerResult>
Clear Stereo (ID: ClearStereo)
Wedge Clean (ID: WedgeClean)
Mesomerize (ID: Mesomerize)
Tautomerize (ID: Tautomerize)
Add Explicit Hydrogens (ID: AddExplicitH)
Neutralize (ID: Neutralize)
Clean 2D (ID: Clean2D)

> <knn Distance>
2.64575123786926

> <CpId>
1234

$$$$
1327
  Mrv1532301301811342D          

 45 44  0  0  0  0            999 V2000
    5.9961    4.2868    0.0000 C   0  0  0  0  0  0  0  0  0  0  0  0
    6.7105    4.6993    0.0000 C   0  0  0  0  0  0  0  0  0  0  0  0
    7.4250    4.2868    0.0000 C   0  0  0  0  0  0  0  0  0  0  0  0
    8.1395    4.6993    0.0000 C   0  0  0  0  0  0  0  0  0  0  0  0
    8.8540    4.2868    0.0000 C   0  0  0  0  0  0  0  0  0  0  0  0
    9.5684    4.6993    0.0000 C   0  0  0  0  0  0  0  0  0  0  0  0
   10.2829    4.2868    0.0000 C   0  0  0  0  0  0  0  0  0  0  0  0
   10.9974    4.6993    0.0000 C   0  0  0  0  0  0  0  0  0  0  0  0
   11.7118    4.2868    0.0000 C   0  0  0  0  0  0  0  0  0  0  0  0
   12.4263    4.6993    0.0000 C   0  0  0  0  0  0  0  0  0  0  0  0
   13.1408    4.2868    0.0000 C   0  0  0  0  0  0  0  0  0  0  0  0
   13.8552    4.6993    0.0000 C   0  0  0  0  0  0  0  0  0  0  0  0
   13.8552    5.5243    0.0000 O   0  0  0  0  0  0  0  0  0  0  0  0
   14.5697    4.2868    0.0000 O   0  0  0  0  0  0  0  0  0  0  0  0
   15.2842    4.6993    0.0000 C   0  0  0  0  0  0  0  0  0  0  0  0
   15.9987    4.2868    0.0000 C   0  0  0  0  0  0  0  0  0  0  0  0
   16.7131    4.6993    0.0000 O   0  0  0  0  0  0  0  0  0  0  0  0
    5.5836    5.0013    0.0000 H   0  0  0  0  0  0  0  0  0  0  0  0
    5.2816    3.8743    0.0000 H   0  0  0  0  0  0  0  0  0  0  0  0
    6.4086    3.5723    0.0000 H   0  0  0  0  0  0  0  0  0  0  0  0
    7.0808    5.4365    0.0000 H   0  0  0  0  0  0  0  0  0  0  0  0
    6.3403    5.4365    0.0000 H   0  0  0  0  0  0  0  0  0  0  0  0
    7.0547    3.5496    0.0000 H   0  0  0  0  0  0  0  0  0  0  0  0
    7.7953    3.5496    0.0000 H   0  0  0  0  0  0  0  0  0  0  0  0
    8.5097    5.4365    0.0000 H   0  0  0  0  0  0  0  0  0  0  0  0
    7.7692    5.4365    0.0000 H   0  0  0  0  0  0  0  0  0  0  0  0
    8.4837    3.5496    0.0000 H   0  0  0  0  0  0  0  0  0  0  0  0
    9.2242    3.5496    0.0000 H   0  0  0  0  0  0  0  0  0  0  0  0
    9.9387    5.4365    0.0000 H   0  0  0  0  0  0  0  0  0  0  0  0
    9.1982    5.4365    0.0000 H   0  0  0  0  0  0  0  0  0  0  0  0
    9.9126    3.5496    0.0000 H   0  0  0  0  0  0  0  0  0  0  0  0
   10.6532    3.5496    0.0000 H   0  0  0  0  0  0  0  0  0  0  0  0
   11.3676    5.4365    0.0000 H   0  0  0  0  0  0  0  0  0  0  0  0
   10.6271    5.4365    0.0000 H   0  0  0  0  0  0  0  0  0  0  0  0
   11.3416    3.5496    0.0000 H   0  0  0  0  0  0  0  0  0  0  0  0
   12.0821    3.5496    0.0000 H   0  0  0  0  0  0  0  0  0  0  0  0
   12.7966    5.4365    0.0000 H   0  0  0  0  0  0  0  0  0  0  0  0
   12.0560    5.4365    0.0000 H   0  0  0  0  0  0  0  0  0  0  0  0
   12.7705    3.5496    0.0000 H   0  0  0  0  0  0  0  0  0  0  0  0
   13.5110    3.5496    0.0000 H   0  0  0  0  0  0  0  0  0  0  0  0
   15.6544    5.4365    0.0000 H   0  0  0  0  0  0  0  0  0  0  0  0
   14.9139    5.4365    0.0000 H   0  0  0  0  0  0  0  0  0  0  0  0
   15.6284    3.5496    0.0000 H   0  0  0  0  0  0  0  0  0  0  0  0
   16.3689    3.5496    0.0000 H   0  0  0  0  0  0  0  0  0  0  0  0
   17.4276    4.2868    0.0000 H   0  0  0  0  0  0  0  0  0  0  0  0
  1  2  1  0  0  0  0
  2  3  1  0  0  0  0
  3  4  1  0  0  0  0
  4  5  1  0  0  0  0
  5  6  1  0  0  0  0
  6  7  1  0  0  0  0
  7  8  1  0  0  0  0
  8  9  1  0  0  0  0
  9 10  1  0  0  0  0
 10 11  1  0  0  0  0
 11 12  1  0  0  0  0
 12 13  2  0  0  0  0
 12 14  1  0  0  0  0
 14 15  1  0  0  0  0
 15 16  1  0  0  0  0
 16 17  1  0  0  0  0
  1 18  1  0  0  0  0
  1 19  1  0  0  0  0
  1 20  1  0  0  0  0
  2 21  1  0  0  0  0
  2 22  1  0  0  0  0
  3 23  1  0  0  0  0
  3 24  1  0  0  0  0
  4 25  1  0  0  0  0
  4 26  1  0  0  0  0
  5 27  1  0  0  0  0
  5 28  1  0  0  0  0
  6 29  1  0  0  0  0
  6 30  1  0  0  0  0
  7 31  1  0  0  0  0
  7 32  1  0  0  0  0
  8 33  1  0  0  0  0
  8 34  1  0  0  0  0
  9 35  1  0  0  0  0
  9 36  1  0  0  0  0
 10 37  1  0  0  0  0
 10 38  1  0  0  0  0
 11 39  1  0  0  0  0
 11 40  1  0  0  0  0
 15 41  1  0  0  0  0
 15 42  1  0  0  0  0
 16 43  1  0  0  0  0
 16 44  1  0  0  0  0
 17 45  1  0  0  0  0
M  END
>  <InChIKey>
InChI=1S/C14H28O3/c1-2-3-4-5-6-7-8-9-10-11-14(16)17-13-12-15/h15H,2-13H2,1H3

>  <UN GHS>
Non-irritant

>  <CASRN>
9004-81-3

> <Outcome>
0

>  <Index>
1327

>  <StandardizerResult>
Clear Stereo (ID: ClearStereo)
Wedge Clean (ID: WedgeClean)
Mesomerize (ID: Mesomerize)
Tautomerize (ID: Tautomerize)
Add Explicit Hydrogens (ID: AddExplicitH)
Neutralize (ID: Neutralize)
Clean 2D (ID: Clean2D)

> <knn Distance>
2.64575123786926

> <CpId>
1327

$$$$
1522
  Mrv1532301301811342D          

 49 48  0  0  0  0            999 V2000
   -4.0245    1.8449    0.0000 C   0  0  0  0  0  0  0  0  0  0  0  0
   -3.3100    1.4324    0.0000 C   0  0  0  0  0  0  0  0  0  0  0  0
   -2.5956    1.8449    0.0000 O   0  0  0  0  0  0  0  0  0  0  0  0
   -1.8811    1.4324    0.0000 C   0  0  0  0  0  0  0  0  0  0  0  0
   -1.8811    0.6074    0.0000 O   0  0  0  0  0  0  0  0  0  0  0  0
   -1.1666    1.8449    0.0000 C   0  0  0  0  0  0  0  0  0  0  0  0
   -0.4521    1.4324    0.0000 C   0  0  0  0  0  0  0  0  0  0  0  0
   -0.4521    0.6074    0.0000 C   0  0  0  0  0  0  0  0  0  0  0  0
    0.2623    1.8449    0.0000 C   0  0  0  0  0  0  0  0  0  0  0  0
    0.9768    1.4324    0.0000 C   0  0  0  0  0  0  0  0  0  0  0  0
    1.6913    1.8449    0.0000 C   0  0  0  0  0  0  0  0  0  0  0  0
    2.4057    1.4324    0.0000 C   0  0  0  0  0  0  0  0  0  0  0  0
    2.4057    0.6074    0.0000 C   0  0  0  0  0  0  0  0  0  0  0  0
    3.1202    1.8449    0.0000 C   0  0  0  0  0  0  0  0  0  0  0  0
    3.8347    1.4324    0.0000 C   0  0  0  0  0  0  0  0  0  0  0  0
    4.5492    1.8449    0.0000 C   0  0  0  0  0  0  0  0  0  0  0  0
    5.2636    1.4324    0.0000 C   0  0  0  0  0  0  0  0  0  0  0  0
    5.9781    1.8449    0.0000 C   0  0  0  0  0  0  0  0  0  0  0  0
    5.2636    0.6074    0.0000 C   0  0  0  0  0  0  0  0  0  0  0  0
   -3.6120    2.5594    0.0000 H   0  0  0  0  0  0  0  0  0  0  0  0
   -4.7390    2.2574    0.0000 H   0  0  0  0  0  0  0  0  0  0  0  0
   -4.4370    1.1305    0.0000 H   0  0  0  0  0  0  0  0  0  0  0  0
   -3.6803    0.6952    0.0000 H   0  0  0  0  0  0  0  0  0  0  0  0
   -2.9398    0.6952    0.0000 H   0  0  0  0  0  0  0  0  0  0  0  0
   -1.1666    2.6699    0.0000 H   0  0  0  0  0  0  0  0  0  0  0  0
   -1.2771    0.6074    0.0000 H   0  0  0  0  0  0  0  0  0  0  0  0
   -0.4521   -0.2176    0.0000 H   0  0  0  0  0  0  0  0  0  0  0  0
    0.3729    0.6074    0.0000 H   0  0  0  0  0  0  0  0  0  0  0  0
    0.2623    2.6699    0.0000 H   0  0  0  0  0  0  0  0  0  0  0  0
    0.9768    0.6074    0.0000 H   0  0  0  0  0  0  0  0  0  0  0  0
    2.0615    2.5822    0.0000 H   0  0  0  0  0  0  0  0  0  0  0  0
    1.3210    2.5822    0.0000 H   0  0  0  0  0  0  0  0  0  0  0  0
    1.6913    1.0199    0.0000 H   0  0  0  0  0  0  0  0  0  0  0  0
    1.8224    0.0241    0.0000 H   0  0  0  0  0  0  0  0  0  0  0  0
    2.8182   -0.1070    0.0000 H   0  0  0  0  0  0  0  0  0  0  0  0
    3.2026    0.8210    0.0000 H   0  0  0  0  0  0  0  0  0  0  0  0
    3.4905    2.5822    0.0000 H   0  0  0  0  0  0  0  0  0  0  0  0
    2.7500    2.5822    0.0000 H   0  0  0  0  0  0  0  0  0  0  0  0
    4.3315    0.7738    0.0000 H   0  0  0  0  0  0  0  0  0  0  0  0
    3.8347    2.2574    0.0000 H   0  0  0  0  0  0  0  0  0  0  0  0
    5.1811    2.3752    0.0000 H   0  0  0  0  0  0  0  0  0  0  0  0
    4.6924    2.6574    0.0000 H   0  0  0  0  0  0  0  0  0  0  0  0
    5.9781    1.0199    0.0000 H   0  0  0  0  0  0  0  0  0  0  0  0
    6.6859    1.4211    0.0000 H   0  0  0  0  0  0  0  0  0  0  0  0
    6.7053    2.2345    0.0000 H   0  0  0  0  0  0  0  0  0  0  0  0
    6.0174    2.6690    0.0000 H   0  0  0  0  0  0  0  0  0  0  0  0
    4.6794    0.0250    0.0000 H   0  0  0  0  0  0  0  0  0  0  0  0
    5.4060   -0.2052    0.0000 H   0  0  0  0  0  0  0  0  0  0  0  0
    6.0112    0.2584    0.0000 H   0  0  0  0  0  0  0  0  0  0  0  0
  1  2  1  0  0  0  0
  2  3  1  0  0  0  0
  3  4  1  0  0  0  0
  4  5  2  0  0  0  0
  6  4  1  4  0  0  0
  6  7  2  0  0  0  0
  7  8  1  0  0  0  0
  9  7  1  4  0  0  0
  9 10  2  0  0  0  0
 10 11  1  0  0  0  0
 11 12  1  0  0  0  0
 12 13  1  0  0  0  0
 12 14  1  0  0  0  0
 14 15  1  0  0  0  0
 15 16  1  0  0  0  0
 16 17  1  0  0  0  0
 17 18  1  0  0  0  0
 17 19  1  0  0  0  0
  1 20  1  0  0  0  0
  1 21  1  0  0  0  0
  1 22  1  0  0  0  0
  2 23  1  0  0  0  0
  2 24  1  0  0  0  0
  6 25  1  0  0  0  0
  8 26  1  0  0  0  0
  8 27  1  0  0  0  0
  8 28  1  0  0  0  0
  9 29  1  0  0  0  0
 10 30  1  0  0  0  0
 11 31  1  0  0  0  0
 11 32  1  0  0  0  0
 12 33  1  0  0  0  0
 13 34  1  0  0  0  0
 13 35  1  0  0  0  0
 13 36  1  0  0  0  0
 14 37  1  0  0  0  0
 14 38  1  0  0  0  0
 15 39  1  0  0  0  0
 15 40  1  0  0  0  0
 16 41  1  0  0  0  0
 16 42  1  0  0  0  0
 17 43  1  0  0  0  0
 18 44  1  0  0  0  0
 18 45  1  0  0  0  0
 18 46  1  0  0  0  0
 19 47  1  0  0  0  0
 19 48  1  0  0  0  0
 19 49  1  0  0  0  0
M  END
>  <InChIKey>
InChI=1S/C17H30O2/c1-6-19-17(18)13-16(5)12-8-11-15(4)10-7-9-14(2)3/h8,12-15H,6-7,9-11H2,1-5H3

>  <CASRN>
41096-46-2

> <Outcome>
0

>  <Index>
1522

>  <StandardizerResult>
Clear Stereo (ID: ClearStereo)
Wedge Clean (ID: WedgeClean)
Mesomerize (ID: Mesomerize)
Tautomerize (ID: Tautomerize)
Add Explicit Hydrogens (ID: AddExplicitH)
Neutralize (ID: Neutralize)
Clean 2D (ID: Clean2D)

> <knn Distance>
2.64575123786926

> <CpId>
1522

$$$$
1761
  Mrv1532301301811342D          

 24 23  0  0  0  0            999 V2000
    2.4750    0.0376    0.0000 C   0  0  0  0  0  0  0  0  0  0  0  0
    1.6500    0.0376    0.0000 C   0  0  0  0  0  0  0  0  0  0  0  0
    1.6500    0.8626    0.0000 C   0  0  0  0  0  0  0  0  0  0  0  0
    1.6500   -0.7874    0.0000 O   0  0  0  0  0  0  0  0  0  0  0  0
    0.8250    0.0376    0.0000 C   0  0  0  0  0  0  0  0  0  0  0  0
   -0.0000    0.0376    0.0000 C   0  0  0  0  0  0  0  0  0  0  0  0
   -0.8250    0.0376    0.0000 C   0  0  0  0  0  0  0  0  0  0  0  0
   -1.6500    0.0376    0.0000 C   0  0  0  0  0  0  0  0  0  0  0  0
   -0.8250    0.8626    0.0000 C   0  0  0  0  0  0  0  0  0  0  0  0
   -0.8250   -0.7874    0.0000 O   0  0  0  0  0  0  0  0  0  0  0  0
    2.4750   -0.7874    0.0000 H   0  0  0  0  0  0  0  0  0  0  0  0
    3.3000    0.0376    0.0000 H   0  0  0  0  0  0  0  0  0  0  0  0
    2.4750    0.8626    0.0000 H   0  0  0  0  0  0  0  0  0  0  0  0
    1.9657    1.6248    0.0000 H   0  0  0  0  0  0  0  0  0  0  0  0
    1.0666    1.4459    0.0000 H   0  0  0  0  0  0  0  0  0  0  0  0
    0.8878    0.5469    0.0000 H   0  0  0  0  0  0  0  0  0  0  0  0
    1.0666   -1.3708    0.0000 H   0  0  0  0  0  0  0  0  0  0  0  0
   -1.6500    0.8626    0.0000 H   0  0  0  0  0  0  0  0  0  0  0  0
   -2.4750    0.0376    0.0000 H   0  0  0  0  0  0  0  0  0  0  0  0
   -1.6500   -0.7874    0.0000 H   0  0  0  0  0  0  0  0  0  0  0  0
   -0.0628    0.5469    0.0000 H   0  0  0  0  0  0  0  0  0  0  0  0
   -0.2416    1.4459    0.0000 H   0  0  0  0  0  0  0  0  0  0  0  0
   -1.1407    1.6248    0.0000 H   0  0  0  0  0  0  0  0  0  0  0  0
   -0.2416   -1.3708    0.0000 H   0  0  0  0  0  0  0  0  0  0  0  0
  1  2  1  0  0  0  0
  2  3  1  0  0  0  0
  2  4  1  0  0  0  0
  2  5  1  0  0  0  0
  5  6  3  0  0  0  0
  6  7  1  0  0  0  0
  7  8  1  0  0  0  0
  7  9  1  0  0  0  0
  7 10  1  0  0  0  0
  1 11  1  0  0  0  0
  1 12  1  0  0  0  0
  1 13  1  0  0  0  0
  3 14  1  0  0  0  0
  3 15  1  0  0  0  0
  3 16  1  0  0  0  0
  4 17  1  0  0  0  0
  8 18  1  0  0  0  0
  8 19  1  0  0  0  0
  8 20  1  0  0  0  0
  9 21  1  0  0  0  0
  9 22  1  0  0  0  0
  9 23  1  0  0  0  0
 10 24  1  0  0  0  0
M  END
>  <InChIKey>
InChI=1S/C8H14O2/c1-7(2,9)5-6-8(3,4)10/h9-10H,1-4H3

>  <CASRN>
142-30-3

> <Outcome>
0

>  <Index>
1761

>  <StandardizerResult>
Clear Stereo (ID: ClearStereo)
Wedge Clean (ID: WedgeClean)
Mesomerize (ID: Mesomerize)
Tautomerize (ID: Tautomerize)
Add Explicit Hydrogens (ID: AddExplicitH)
Neutralize (ID: Neutralize)
Clean 2D (ID: Clean2D)

> <knn Distance>
2.64575123786926

> <CpId>
1761

$$$$
1922
  Mrv1532301301811342D          

 20 19  0  0  0  0            999 V2000
    1.0461    1.4289    0.0000 C   0  0  0  0  0  0  0  0  0  0  0  0
    1.7605    1.8414    0.0000 C   0  0  0  0  0  0  0  0  0  0  0  0
    1.7605    2.6664    0.0000 O   0  0  0  0  0  0  0  0  0  0  0  0
    2.4750    1.4289    0.0000 O   0  0  0  0  0  0  0  0  0  0  0  0
    3.1895    1.8414    0.0000 C   0  0  0  0  0  0  0  0  0  0  0  0
    3.9040    1.4289    0.0000 C   0  0  0  0  0  0  0  0  0  0  0  0
    4.6184    1.8414    0.0000 O   0  0  0  0  0  0  0  0  0  0  0  0
    5.3329    1.4289    0.0000 C   0  0  0  0  0  0  0  0  0  0  0  0
    6.0474    1.8414    0.0000 C   0  0  0  0  0  0  0  0  0  0  0  0
    5.3329    0.6039    0.0000 O   0  0  0  0  0  0  0  0  0  0  0  0
    0.6336    2.1434    0.0000 H   0  0  0  0  0  0  0  0  0  0  0  0
    0.3316    1.0164    0.0000 H   0  0  0  0  0  0  0  0  0  0  0  0
    1.4586    0.7144    0.0000 H   0  0  0  0  0  0  0  0  0  0  0  0
    3.5597    2.5786    0.0000 H   0  0  0  0  0  0  0  0  0  0  0  0
    2.8192    2.5786    0.0000 H   0  0  0  0  0  0  0  0  0  0  0  0
    3.5337    0.6917    0.0000 H   0  0  0  0  0  0  0  0  0  0  0  0
    4.2742    0.6917    0.0000 H   0  0  0  0  0  0  0  0  0  0  0  0
    6.4599    1.1269    0.0000 H   0  0  0  0  0  0  0  0  0  0  0  0
    6.7618    2.2539    0.0000 H   0  0  0  0  0  0  0  0  0  0  0  0
    5.6349    2.5559    0.0000 H   0  0  0  0  0  0  0  0  0  0  0  0
  1  2  1  0  0  0  0
  2  3  2  0  0  0  0
  2  4  1  0  0  0  0
  4  5  1  0  0  0  0
  5  6  1  0  0  0  0
  6  7  1  0  0  0  0
  7  8  1  0  0  0  0
  8  9  1  0  0  0  0
  8 10  2  0  0  0  0
  1 11  1  0  0  0  0
  1 12  1  0  0  0  0
  1 13  1  0  0  0  0
  5 14  1  0  0  0  0
  5 15  1  0  0  0  0
  6 16  1  0  0  0  0
  6 17  1  0  0  0  0
  9 18  1  0  0  0  0
  9 19  1  0  0  0  0
  9 20  1  0  0  0  0
M  END
>  <InChIKey>
InChI=1S/C6H10O4/c1-5(7)9-3-4-10-6(2)8/h3-4H2,1-2H3

>  <CASRN>
111-55-7

> <Outcome>
0

>  <Index>
1922

>  <StandardizerResult>
Clear Stereo (ID: ClearStereo)
Wedge Clean (ID: WedgeClean)
Mesomerize (ID: Mesomerize)
Tautomerize (ID: Tautomerize)
Add Explicit Hydrogens (ID: AddExplicitH)
Neutralize (ID: Neutralize)
Clean 2D (ID: Clean2D)

> <knn Distance>
2.64575123786926

> <CpId>
1922

$$$$
1964
  Mrv1532301301811342D          

 27 27  0  0  0  0            999 V2000
    0.7215    3.0087    0.0000 C   0  0  0  0  0  0  0  0  0  0  0  0
    0.7215    2.1837    0.0000 C   0  0  0  0  0  0  0  0  0  0  0  0
   -0.1035    2.1837    0.0000 C   0  0  0  0  0  0  0  0  0  0  0  0
    1.5465    2.1837    0.0000 C   0  0  0  0  0  0  0  0  0  0  0  0
    0.7215    1.3587    0.0000 C   0  0  0  0  0  0  0  0  0  0  0  0
    1.4359    0.9462    0.0000 C   0  0  0  0  0  0  0  0  0  0  0  0
    1.4359    0.1212    0.0000 C   0  0  0  0  0  0  0  0  0  0  0  0
    0.7215   -0.2913    0.0000 C   0  0  0  0  0  0  0  0  0  0  0  0
    0.0070    0.1212    0.0000 C   0  0  0  0  0  0  0  0  0  0  0  0
    0.0070    0.9462    0.0000 C   0  0  0  0  0  0  0  0  0  0  0  0
    0.7215   -1.1163    0.0000 C   0  0  0  0  0  0  0  0  0  0  0  0
    1.4359   -1.5288    0.0000 O   0  0  0  0  0  0  0  0  0  0  0  0
    0.0070   -1.5288    0.0000 O   0  0  0  0  0  0  0  0  0  0  0  0
    1.5465    3.0087    0.0000 H   0  0  0  0  0  0  0  0  0  0  0  0
    0.7215    3.8337    0.0000 H   0  0  0  0  0  0  0  0  0  0  0  0
   -0.1035    3.0087    0.0000 H   0  0  0  0  0  0  0  0  0  0  0  0
   -0.8657    2.4994    0.0000 H   0  0  0  0  0  0  0  0  0  0  0  0
   -0.6869    1.6003    0.0000 H   0  0  0  0  0  0  0  0  0  0  0  0
    0.2122    1.4215    0.0000 H   0  0  0  0  0  0  0  0  0  0  0  0
    1.2308    1.4215    0.0000 H   0  0  0  0  0  0  0  0  0  0  0  0
    2.1298    1.6003    0.0000 H   0  0  0  0  0  0  0  0  0  0  0  0
    2.3087    2.4994    0.0000 H   0  0  0  0  0  0  0  0  0  0  0  0
    2.1934    0.6193    0.0000 H   0  0  0  0  0  0  0  0  0  0  0  0
    1.8690   -0.5810    0.0000 H   0  0  0  0  0  0  0  0  0  0  0  0
   -0.7075   -0.2913    0.0000 H   0  0  0  0  0  0  0  0  0  0  0  0
   -0.7505    0.6193    0.0000 H   0  0  0  0  0  0  0  0  0  0  0  0
    1.4359   -2.3538    0.0000 H   0  0  0  0  0  0  0  0  0  0  0  0
  1  2  1  0  0  0  0
  2  3  1  0  0  0  0
  2  4  1  0  0  0  0
  2  5  1  0  0  0  0
  5  6  4  0  0  0  0
  6  7  4  0  0  0  0
  7  8  4  0  0  0  0
  8  9  4  0  0  0  0
  9 10  4  0  0  0  0
  5 10  4  0  0  0  0
  8 11  1  0  0  0  0
 11 12  1  0  0  0  0
 11 13  2  0  0  0  0
  1 14  1  0  0  0  0
  1 15  1  0  0  0  0
  1 16  1  0  0  0  0
  3 17  1  0  0  0  0
  3 18  1  0  0  0  0
  3 19  1  0  0  0  0
  4 20  1  0  0  0  0
  4 21  1  0  0  0  0
  4 22  1  0  0  0  0
  6 23  1  0  0  0  0
  7 24  1  0  0  0  0
  9 25  1  0  0  0  0
 10 26  1  0  0  0  0
 12 27  1  0  0  0  0
M  END
>  <InChIKey>
InChI=1S/C11H14O2/c1-11(2,3)9-6-4-8(5-7-9)10(12)13/h4-7H,1-3H3,(H,12,13)

>  <CASRN>
98-73-7

> <Outcome>
0

>  <Index>
1964

>  <StandardizerResult>
Dearomatize (ID: Dearomatize)
Clear Stereo (ID: ClearStereo)
Wedge Clean (ID: WedgeClean)
Mesomerize (ID: Mesomerize)
Tautomerize (ID: Tautomerize)
Aromatize (ID: Aromatize)
Add Explicit Hydrogens (ID: AddExplicitH)
Neutralize (ID: Neutralize)
Clean 2D (ID: Clean2D)

> <knn Distance>
2.64575123786926

> <CpId>
1964

$$$$
2046
  Mrv1532301301811342D          

 18 17  0  0  0  0            999 V2000
    2.4750    1.4289    0.0000 C   0  0  0  0  0  0  0  0  0  0  0  0
    2.0625    0.7145    0.0000 O   0  0  0  0  0  0  0  0  0  0  0  0
    1.2375    0.7145    0.0000 C   0  0  0  0  0  0  0  0  0  0  0  0
    0.8250    1.4289    0.0000 O   0  0  0  0  0  0  0  0  0  0  0  0
    0.8250   -0.0000    0.0000 C   0  0  0  0  0  0  0  0  0  0  0  0
    0.0000   -0.0000    0.0000 C   0  0  0  0  0  0  0  0  0  0  0  0
   -0.4125   -0.7145    0.0000 C   0  0  0  0  0  0  0  0  0  0  0  0
    0.0000   -1.4289    0.0000 O   0  0  0  0  0  0  0  0  0  0  0  0
   -1.2375   -0.7145    0.0000 O   0  0  0  0  0  0  0  0  0  0  0  0
   -1.6500   -1.4289    0.0000 C   0  0  0  0  0  0  0  0  0  0  0  0
    3.1895    1.0164    0.0000 H   0  0  0  0  0  0  0  0  0  0  0  0
    2.8875    2.1434    0.0000 H   0  0  0  0  0  0  0  0  0  0  0  0
    1.7605    1.8414    0.0000 H   0  0  0  0  0  0  0  0  0  0  0  0
    1.2375   -0.7145    0.0000 H   0  0  0  0  0  0  0  0  0  0  0  0
   -0.4125    0.7145    0.0000 H   0  0  0  0  0  0  0  0  0  0  0  0
   -2.3645   -1.0164    0.0000 H   0  0  0  0  0  0  0  0  0  0  0  0
   -2.0625   -2.1434    0.0000 H   0  0  0  0  0  0  0  0  0  0  0  0
   -0.9355   -1.8414    0.0000 H   0  0  0  0  0  0  0  0  0  0  0  0
  1  2  1  0  0  0  0
  2  3  1  0  0  0  0
  3  4  2  0  0  0  0
  5  3  1  4  0  0  0
  5  6  2  0  0  0  0
  6  7  1  0  0  0  0
  7  8  2  0  0  0  0
  7  9  1  0  0  0  0
  9 10  1  0  0  0  0
  1 11  1  0  0  0  0
  1 12  1  0  0  0  0
  1 13  1  0  0  0  0
  5 14  1  0  0  0  0
  6 15  1  0  0  0  0
 10 16  1  0  0  0  0
 10 17  1  0  0  0  0
 10 18  1  0  0  0  0
M  END
>  <InChIKey>
InChI=1S/C6H8O4/c1-9-5(7)3-4-6(8)10-2/h3-4H,1-2H3

>  <CASRN>
624-49-7

> <Outcome>
0

>  <Index>
2046

>  <StandardizerResult>
Clear Stereo (ID: ClearStereo)
Wedge Clean (ID: WedgeClean)
Mesomerize (ID: Mesomerize)
Tautomerize (ID: Tautomerize)
Add Explicit Hydrogens (ID: AddExplicitH)
Neutralize (ID: Neutralize)
Clean 2D (ID: Clean2D)

> <knn Distance>
2.64575123786926

> <CpId>
2046

$$$$
2063
  Mrv1532301301811342D          

 16 16  0  0  0  0            999 V2000
   -0.0000    2.4750    0.0000 C   0  0  0  0  0  0  0  0  0  0  0  0
    0.7145    2.0625    0.0000 S   0  0  0  0  0  0  0  0  0  0  0  0
    0.7145    1.2375    0.0000 C   0  0  0  0  0  0  0  0  0  0  0  0
    1.4289    0.8250    0.0000 C   0  0  0  0  0  0  0  0  0  0  0  0
    2.1434    1.2375    0.0000 Cl  0  0  0  0  0  0  0  0  0  0  0  0
    1.4289   -0.0000    0.0000 C   0  0  0  0  0  0  0  0  0  0  0  0
    2.1434   -0.4125    0.0000 Cl  0  0  0  0  0  0  0  0  0  0  0  0
    0.7145   -0.4125    0.0000 C   0  0  0  0  0  0  0  0  0  0  0  0
    0.7145   -1.2375    0.0000 Cl  0  0  0  0  0  0  0  0  0  0  0  0
   -0.0000   -0.0000    0.0000 C   0  0  0  0  0  0  0  0  0  0  0  0
   -0.7145   -0.4125    0.0000 Cl  0  0  0  0  0  0  0  0  0  0  0  0
   -0.0000    0.8250    0.0000 C   0  0  0  0  0  0  0  0  0  0  0  0
   -0.7145    1.2375    0.0000 Cl  0  0  0  0  0  0  0  0  0  0  0  0
    0.4125    3.1895    0.0000 H   0  0  0  0  0  0  0  0  0  0  0  0
   -0.7145    2.8875    0.0000 H   0  0  0  0  0  0  0  0  0  0  0  0
   -0.4125    1.7605    0.0000 H   0  0  0  0  0  0  0  0  0  0  0  0
  1  2  1  0  0  0  0
  2  3  1  0  0  0  0
  3  4  4  0  0  0  0
  4  5  1  0  0  0  0
  4  6  4  0  0  0  0
  6  7  1  0  0  0  0
  6  8  4  0  0  0  0
  8  9  1  0  0  0  0
  8 10  4  0  0  0  0
 10 11  1  0  0  0  0
 10 12  4  0  0  0  0
  3 12  4  0  0  0  0
 12 13  1  0  0  0  0
  1 14  1  0  0  0  0
  1 15  1  0  0  0  0
  1 16  1  0  0  0  0
M  END
>  <InChIKey>
InChI=1S/C7H3Cl5S/c1-13-7-5(11)3(9)2(8)4(10)6(7)12/h1H3

>  <CASRN>
1825-19-0

> <Outcome>
0

>  <Index>
2063

>  <StandardizerResult>
Dearomatize (ID: Dearomatize)
Clear Stereo (ID: ClearStereo)
Wedge Clean (ID: WedgeClean)
Mesomerize (ID: Mesomerize)
Tautomerize (ID: Tautomerize)
Aromatize (ID: Aromatize)
Add Explicit Hydrogens (ID: AddExplicitH)
Neutralize (ID: Neutralize)
Clean 2D (ID: Clean2D)

> <knn Distance>
2.64575123786926

> <CpId>
2063

$$$$
2092
  Mrv1532301301811342D          

 15 14  0  0  0  0            999 V2000
    0.8513    1.4648    0.0000 C   0  0  0  0  0  0  0  0  0  0  0  0
    1.2638    0.7503    0.0000 C   0  0  0  0  0  0  0  0  0  0  0  0
    0.8513    0.0358    0.0000 C   0  0  0  0  0  0  0  0  0  0  0  0
    1.2638   -0.6786    0.0000 C   0  0  0  0  0  0  0  0  0  0  0  0
    0.0263    0.0358    0.0000 S   0  0  0  0  0  0  0  0  0  0  0  0
    1.5658    1.8773    0.0000 H   0  0  0  0  0  0  0  0  0  0  0  0
    0.4388    2.1792    0.0000 H   0  0  0  0  0  0  0  0  0  0  0  0
    0.1369    1.0523    0.0000 H   0  0  0  0  0  0  0  0  0  0  0  0
    2.0011    0.3800    0.0000 H   0  0  0  0  0  0  0  0  0  0  0  0
    2.0011    1.1206    0.0000 H   0  0  0  0  0  0  0  0  0  0  0  0
    1.6763    0.0358    0.0000 H   0  0  0  0  0  0  0  0  0  0  0  0
    0.4669   -0.8922    0.0000 H   0  0  0  0  0  0  0  0  0  0  0  0
    1.2638   -1.5036    0.0000 H   0  0  0  0  0  0  0  0  0  0  0  0
    2.0607   -0.8922    0.0000 H   0  0  0  0  0  0  0  0  0  0  0  0
   -0.3862    0.7503    0.0000 H   0  0  0  0  0  0  0  0  0  0  0  0
  1  2  1  0  0  0  0
  2  3  1  0  0  0  0
  3  4  1  0  0  0  0
  3  5  1  0  0  0  0
  1  6  1  0  0  0  0
  1  7  1  0  0  0  0
  1  8  1  0  0  0  0
  2  9  1  0  0  0  0
  2 10  1  0  0  0  0
  3 11  1  0  0  0  0
  4 12  1  0  0  0  0
  4 13  1  0  0  0  0
  4 14  1  0  0  0  0
  5 15  1  0  0  0  0
M  END
>  <InChIKey>
InChI=1S/C4H10S/c1-3-4(2)5/h4-5H,3H2,1-2H3

>  <CASRN>
513-53-1

> <Outcome>
0

>  <Index>
2092

>  <StandardizerResult>
Clear Stereo (ID: ClearStereo)
Wedge Clean (ID: WedgeClean)
Mesomerize (ID: Mesomerize)
Tautomerize (ID: Tautomerize)
Add Explicit Hydrogens (ID: AddExplicitH)
Neutralize (ID: Neutralize)
Clean 2D (ID: Clean2D)

> <knn Distance>
2.64575123786926

> <CpId>
2092

$$$$
2102
  Mrv1532301301811342D          

  6  5  0  0  0  0            999 V2000
    0.8250    0.0000    0.0000 C   0  0  0  0  0  0  0  0  0  0  0  0
   -0.0000    0.0000    0.0000 S   0  0  0  0  0  0  0  0  0  0  0  0
    0.8250   -0.8250    0.0000 H   0  0  0  0  0  0  0  0  0  0  0  0
    1.6500   -0.0000    0.0000 H   0  0  0  0  0  0  0  0  0  0  0  0
    0.8250    0.8250    0.0000 H   0  0  0  0  0  0  0  0  0  0  0  0
   -0.4125    0.7145    0.0000 H   0  0  0  0  0  0  0  0  0  0  0  0
  1  2  1  0  0  0  0
  1  3  1  0  0  0  0
  1  4  1  0  0  0  0
  1  5  1  0  0  0  0
  2  6  1  0  0  0  0
M  END
>  <InChIKey>
InChI=1S/CH4S/c1-2/h2H,1H3

>  <CASRN>
74-93-1

> <Outcome>
0

>  <Index>
2102

>  <StandardizerResult>
Mesomerize (ID: Mesomerize)
Tautomerize (ID: Tautomerize)
Add Explicit Hydrogens (ID: AddExplicitH)
Neutralize (ID: Neutralize)
Clean 2D (ID: Clean2D)

> <knn Distance>
2.64575123786926

> <CpId>
2102

$$$$
2195
  Mrv1532301301811342D          

 20 19  0  0  0  0            999 V2000
    1.7605    1.8423    0.0000 C   0  0  0  0  0  0  0  0  0  0  0  0
    2.4750    1.4298    0.0000 C   0  0  0  0  0  0  0  0  0  0  0  0
    3.1895    1.8423    0.0000 C   0  0  0  0  0  0  0  0  0  0  0  0
    3.9039    1.4298    0.0000 C   0  0  0  0  0  0  0  0  0  0  0  0
    4.6184    1.8423    0.0000 C   0  0  0  0  0  0  0  0  0  0  0  0
    5.3329    1.4298    0.0000 C   0  0  0  0  0  0  0  0  0  0  0  0
    6.0473    1.8423    0.0000 Br  0  0  0  0  0  0  0  0  0  0  0  0
    2.1730    2.5568    0.0000 H   0  0  0  0  0  0  0  0  0  0  0  0
    1.0461    2.2548    0.0000 H   0  0  0  0  0  0  0  0  0  0  0  0
    1.3480    1.1278    0.0000 H   0  0  0  0  0  0  0  0  0  0  0  0
    2.1047    0.6925    0.0000 H   0  0  0  0  0  0  0  0  0  0  0  0
    2.8453    0.6925    0.0000 H   0  0  0  0  0  0  0  0  0  0  0  0
    3.5597    2.5795    0.0000 H   0  0  0  0  0  0  0  0  0  0  0  0
    2.8192    2.5795    0.0000 H   0  0  0  0  0  0  0  0  0  0  0  0
    3.5337    0.6925    0.0000 H   0  0  0  0  0  0  0  0  0  0  0  0
    4.2742    0.6925    0.0000 H   0  0  0  0  0  0  0  0  0  0  0  0
    4.9887    2.5795    0.0000 H   0  0  0  0  0  0  0  0  0  0  0  0
    4.2481    2.5795    0.0000 H   0  0  0  0  0  0  0  0  0  0  0  0
    4.9626    0.6925    0.0000 H   0  0  0  0  0  0  0  0  0  0  0  0
    5.7031    0.6925    0.0000 H   0  0  0  0  0  0  0  0  0  0  0  0
  1  2  1  0  0  0  0
  2  3  1  0  0  0  0
  3  4  1  0  0  0  0
  4  5  1  0  0  0  0
  5  6  1  0  0  0  0
  6  7  1  0  0  0  0
  1  8  1  0  0  0  0
  1  9  1  0  0  0  0
  1 10  1  0  0  0  0
  2 11  1  0  0  0  0
  2 12  1  0  0  0  0
  3 13  1  0  0  0  0
  3 14  1  0  0  0  0
  4 15  1  0  0  0  0
  4 16  1  0  0  0  0
  5 17  1  0  0  0  0
  5 18  1  0  0  0  0
  6 19  1  0  0  0  0
  6 20  1  0  0  0  0
M  END
>  <InChIKey>
InChI=1S/C6H13Br/c1-2-3-4-5-6-7/h2-6H2,1H3

>  <UN GHS>
Non-irritant

>  <CASRN>
111-25-1

> <Outcome>
0

>  <Index>
2195

>  <StandardizerResult>
Clear Stereo (ID: ClearStereo)
Wedge Clean (ID: WedgeClean)
Mesomerize (ID: Mesomerize)
Tautomerize (ID: Tautomerize)
Add Explicit Hydrogens (ID: AddExplicitH)
Neutralize (ID: Neutralize)
Clean 2D (ID: Clean2D)

> <knn Distance>
2.64575123786926

> <CpId>
2195

$$$$
2404
  Mrv1532301301811342D          

102101  0  0  0  0            999 V2000
   20.8461   12.8603    0.0000 C   0  0  0  0  0  0  0  0  0  0  0  0
   21.5605   13.2728    0.0000 C   0  0  0  0  0  0  0  0  0  0  0  0
   22.2750   12.8603    0.0000 C   0  0  0  0  0  0  0  0  0  0  0  0
   22.9895   13.2728    0.0000 C   0  0  0  0  0  0  0  0  0  0  0  0
   23.7039   12.8603    0.0000 C   0  0  0  0  0  0  0  0  0  0  0  0
   24.4184   13.2728    0.0000 C   0  0  0  0  0  0  0  0  0  0  0  0
   25.1329   12.8603    0.0000 C   0  0  0  0  0  0  0  0  0  0  0  0
   25.8474   13.2728    0.0000 C   0  0  0  0  0  0  0  0  0  0  0  0
   26.5618   12.8603    0.0000 C   0  0  0  0  0  0  0  0  0  0  0  0
   27.2763   13.2728    0.0000 C   0  0  0  0  0  0  0  0  0  0  0  0
   27.9908   12.8603    0.0000 C   0  0  0  0  0  0  0  0  0  0  0  0
   28.7052   13.2728    0.0000 C   0  0  0  0  0  0  0  0  0  0  0  0
   29.4197   12.8603    0.0000 O   0  0  0  0  0  0  0  0  0  0  0  0
   30.1342   13.2728    0.0000 C   0  0  0  0  0  0  0  0  0  0  0  0
   30.8487   12.8603    0.0000 C   0  0  0  0  0  0  0  0  0  0  0  0
   31.5631   13.2728    0.0000 O   0  0  0  0  0  0  0  0  0  0  0  0
   32.2776   12.8603    0.0000 C   0  0  0  0  0  0  0  0  0  0  0  0
   32.9921   13.2728    0.0000 C   0  0  0  0  0  0  0  0  0  0  0  0
   33.7065   12.8603    0.0000 O   0  0  0  0  0  0  0  0  0  0  0  0
   34.4210   13.2728    0.0000 C   0  0  0  0  0  0  0  0  0  0  0  0
   35.1355   12.8603    0.0000 C   0  0  0  0  0  0  0  0  0  0  0  0
   35.8500   13.2728    0.0000 O   0  0  0  0  0  0  0  0  0  0  0  0
   36.5644   12.8603    0.0000 C   0  0  0  0  0  0  0  0  0  0  0  0
   37.2789   13.2728    0.0000 C   0  0  0  0  0  0  0  0  0  0  0  0
   37.9934   12.8603    0.0000 O   0  0  0  0  0  0  0  0  0  0  0  0
   38.7078   13.2728    0.0000 C   0  0  0  0  0  0  0  0  0  0  0  0
   39.4223   12.8603    0.0000 C   0  0  0  0  0  0  0  0  0  0  0  0
   40.1368   13.2728    0.0000 O   0  0  0  0  0  0  0  0  0  0  0  0
   40.8512   12.8603    0.0000 C   0  0  0  0  0  0  0  0  0  0  0  0
   41.5657   13.2728    0.0000 C   0  0  0  0  0  0  0  0  0  0  0  0
   42.2802   12.8603    0.0000 O   0  0  0  0  0  0  0  0  0  0  0  0
   42.9947   13.2728    0.0000 C   0  0  0  0  0  0  0  0  0  0  0  0
   43.7091   12.8603    0.0000 C   0  0  0  0  0  0  0  0  0  0  0  0
   44.4236   13.2728    0.0000 O   0  0  0  0  0  0  0  0  0  0  0  0
   45.1381   12.8603    0.0000 C   0  0  0  0  0  0  0  0  0  0  0  0
   45.8525   13.2728    0.0000 C   0  0  0  0  0  0  0  0  0  0  0  0
   46.5670   12.8603    0.0000 O   0  0  0  0  0  0  0  0  0  0  0  0
   47.2815   13.2728    0.0000 C   0  0  0  0  0  0  0  0  0  0  0  0
   47.9960   12.8603    0.0000 C   0  0  0  0  0  0  0  0  0  0  0  0
   48.7104   13.2728    0.0000 O   0  0  0  0  0  0  0  0  0  0  0  0
   20.4336   13.5748    0.0000 H   0  0  0  0  0  0  0  0  0  0  0  0
   20.1316   12.4478    0.0000 H   0  0  0  0  0  0  0  0  0  0  0  0
   21.2586   12.1459    0.0000 H   0  0  0  0  0  0  0  0  0  0  0  0
   21.9308   14.0101    0.0000 H   0  0  0  0  0  0  0  0  0  0  0  0
   21.1903   14.0101    0.0000 H   0  0  0  0  0  0  0  0  0  0  0  0
   21.9047   12.1231    0.0000 H   0  0  0  0  0  0  0  0  0  0  0  0
   22.6453   12.1231    0.0000 H   0  0  0  0  0  0  0  0  0  0  0  0
   23.3597   14.0101    0.0000 H   0  0  0  0  0  0  0  0  0  0  0  0
   22.6192   14.0101    0.0000 H   0  0  0  0  0  0  0  0  0  0  0  0
   23.3337   12.1231    0.0000 H   0  0  0  0  0  0  0  0  0  0  0  0
   24.0742   12.1231    0.0000 H   0  0  0  0  0  0  0  0  0  0  0  0
   24.7887   14.0101    0.0000 H   0  0  0  0  0  0  0  0  0  0  0  0
   24.0482   14.0101    0.0000 H   0  0  0  0  0  0  0  0  0  0  0  0
   24.7626   12.1231    0.0000 H   0  0  0  0  0  0  0  0  0  0  0  0
   25.5031   12.1231    0.0000 H   0  0  0  0  0  0  0  0  0  0  0  0
   26.2176   14.0101    0.0000 H   0  0  0  0  0  0  0  0  0  0  0  0
   25.4771   14.0101    0.0000 H   0  0  0  0  0  0  0  0  0  0  0  0
   26.1916   12.1231    0.0000 H   0  0  0  0  0  0  0  0  0  0  0  0
   26.9321   12.1231    0.0000 H   0  0  0  0  0  0  0  0  0  0  0  0
   27.6466   14.0101    0.0000 H   0  0  0  0  0  0  0  0  0  0  0  0
   26.9060   14.0101    0.0000 H   0  0  0  0  0  0  0  0  0  0  0  0
   27.6205   12.1231    0.0000 H   0  0  0  0  0  0  0  0  0  0  0  0
   28.3610   12.1231    0.0000 H   0  0  0  0  0  0  0  0  0  0  0  0
   29.0755   14.0101    0.0000 H   0  0  0  0  0  0  0  0  0  0  0  0
   28.3350   14.0101    0.0000 H   0  0  0  0  0  0  0  0  0  0  0  0
   30.5044   14.0101    0.0000 H   0  0  0  0  0  0  0  0  0  0  0  0
   29.7639   14.0101    0.0000 H   0  0  0  0  0  0  0  0  0  0  0  0
   30.4784   12.1231    0.0000 H   0  0  0  0  0  0  0  0  0  0  0  0
   31.2189   12.1231    0.0000 H   0  0  0  0  0  0  0  0  0  0  0  0
   31.9073   12.1231    0.0000 H   0  0  0  0  0  0  0  0  0  0  0  0
   32.6479   12.1231    0.0000 H   0  0  0  0  0  0  0  0  0  0  0  0
   33.3623   14.0101    0.0000 H   0  0  0  0  0  0  0  0  0  0  0  0
   32.6218   14.0101    0.0000 H   0  0  0  0  0  0  0  0  0  0  0  0
   34.7913   14.0101    0.0000 H   0  0  0  0  0  0  0  0  0  0  0  0
   34.0508   14.0101    0.0000 H   0  0  0  0  0  0  0  0  0  0  0  0
   34.7652   12.1231    0.0000 H   0  0  0  0  0  0  0  0  0  0  0  0
   35.5057   12.1231    0.0000 H   0  0  0  0  0  0  0  0  0  0  0  0
   36.1942   12.1231    0.0000 H   0  0  0  0  0  0  0  0  0  0  0  0
   36.9347   12.1231    0.0000 H   0  0  0  0  0  0  0  0  0  0  0  0
   37.6492   14.0101    0.0000 H   0  0  0  0  0  0  0  0  0  0  0  0
   36.9086   14.0101    0.0000 H   0  0  0  0  0  0  0  0  0  0  0  0
   39.0781   14.0101    0.0000 H   0  0  0  0  0  0  0  0  0  0  0  0
   38.3376   14.0101    0.0000 H   0  0  0  0  0  0  0  0  0  0  0  0
   39.0520   12.1231    0.0000 H   0  0  0  0  0  0  0  0  0  0  0  0
   39.7926   12.1231    0.0000 H   0  0  0  0  0  0  0  0  0  0  0  0
   40.4810   12.1231    0.0000 H   0  0  0  0  0  0  0  0  0  0  0  0
   41.2215   12.1231    0.0000 H   0  0  0  0  0  0  0  0  0  0  0  0
   41.9360   14.0101    0.0000 H   0  0  0  0  0  0  0  0  0  0  0  0
   41.1955   14.0101    0.0000 H   0  0  0  0  0  0  0  0  0  0  0  0
   43.3649   14.0101    0.0000 H   0  0  0  0  0  0  0  0  0  0  0  0
   42.6244   14.0101    0.0000 H   0  0  0  0  0  0  0  0  0  0  0  0
   43.3389   12.1231    0.0000 H   0  0  0  0  0  0  0  0  0  0  0  0
   44.0794   12.1231    0.0000 H   0  0  0  0  0  0  0  0  0  0  0  0
   44.7678   12.1231    0.0000 H   0  0  0  0  0  0  0  0  0  0  0  0
   45.5083   12.1231    0.0000 H   0  0  0  0  0  0  0  0  0  0  0  0
   46.2228   14.0101    0.0000 H   0  0  0  0  0  0  0  0  0  0  0  0
   45.4823   14.0101    0.0000 H   0  0  0  0  0  0  0  0  0  0  0  0
   47.6517   14.0101    0.0000 H   0  0  0  0  0  0  0  0  0  0  0  0
   46.9112   14.0101    0.0000 H   0  0  0  0  0  0  0  0  0  0  0  0
   47.6257   12.1231    0.0000 H   0  0  0  0  0  0  0  0  0  0  0  0
   48.3662   12.1231    0.0000 H   0  0  0  0  0  0  0  0  0  0  0  0
   49.4249   12.8603    0.0000 H   0  0  0  0  0  0  0  0  0  0  0  0
  1  2  1  0  0  0  0
  2  3  1  0  0  0  0
  3  4  1  0  0  0  0
  4  5  1  0  0  0  0
  5  6  1  0  0  0  0
  6  7  1  0  0  0  0
  7  8  1  0  0  0  0
  8  9  1  0  0  0  0
  9 10  1  0  0  0  0
 10 11  1  0  0  0  0
 11 12  1  0  0  0  0
 12 13  1  0  0  0  0
 13 14  1  0  0  0  0
 14 15  1  0  0  0  0
 15 16  1  0  0  0  0
 16 17  1  0  0  0  0
 17 18  1  0  0  0  0
 18 19  1  0  0  0  0
 19 20  1  0  0  0  0
 20 21  1  0  0  0  0
 21 22  1  0  0  0  0
 22 23  1  0  0  0  0
 23 24  1  0  0  0  0
 24 25  1  0  0  0  0
 25 26  1  0  0  0  0
 26 27  1  0  0  0  0
 27 28  1  0  0  0  0
 28 29  1  0  0  0  0
 29 30  1  0  0  0  0
 30 31  1  0  0  0  0
 31 32  1  0  0  0  0
 32 33  1  0  0  0  0
 33 34  1  0  0  0  0
 34 35  1  0  0  0  0
 35 36  1  0  0  0  0
 36 37  1  0  0  0  0
 37 38  1  0  0  0  0
 38 39  1  0  0  0  0
 39 40  1  0  0  0  0
  1 41  1  0  0  0  0
  1 42  1  0  0  0  0
  1 43  1  0  0  0  0
  2 44  1  0  0  0  0
  2 45  1  0  0  0  0
  3 46  1  0  0  0  0
  3 47  1  0  0  0  0
  4 48  1  0  0  0  0
  4 49  1  0  0  0  0
  5 50  1  0  0  0  0
  5 51  1  0  0  0  0
  6 52  1  0  0  0  0
  6 53  1  0  0  0  0
  7 54  1  0  0  0  0
  7 55  1  0  0  0  0
  8 56  1  0  0  0  0
  8 57  1  0  0  0  0
  9 58  1  0  0  0  0
  9 59  1  0  0  0  0
 10 60  1  0  0  0  0
 10 61  1  0  0  0  0
 11 62  1  0  0  0  0
 11 63  1  0  0  0  0
 12 64  1  0  0  0  0
 12 65  1  0  0  0  0
 14 66  1  0  0  0  0
 14 67  1  0  0  0  0
 15 68  1  0  0  0  0
 15 69  1  0  0  0  0
 17 70  1  0  0  0  0
 17 71  1  0  0  0  0
 18 72  1  0  0  0  0
 18 73  1  0  0  0  0
 20 74  1  0  0  0  0
 20 75  1  0  0  0  0
 21 76  1  0  0  0  0
 21 77  1  0  0  0  0
 23 78  1  0  0  0  0
 23 79  1  0  0  0  0
 24 80  1  0  0  0  0
 24 81  1  0  0  0  0
 26 82  1  0  0  0  0
 26 83  1  0  0  0  0
 27 84  1  0  0  0  0
 27 85  1  0  0  0  0
 29 86  1  0  0  0  0
 29 87  1  0  0  0  0
 30 88  1  0  0  0  0
 30 89  1  0  0  0  0
 32 90  1  0  0  0  0
 32 91  1  0  0  0  0
 33 92  1  0  0  0  0
 33 93  1  0  0  0  0
 35 94  1  0  0  0  0
 35 95  1  0  0  0  0
 36 96  1  0  0  0  0
 36 97  1  0  0  0  0
 38 98  1  0  0  0  0
 38 99  1  0  0  0  0
 39100  1  0  0  0  0
 39101  1  0  0  0  0
 40102  1  0  0  0  0
M  END
>  <InChIKey>
InChI=1S/C30H62O10/c1-2-3-4-5-6-7-8-9-10-11-13-32-15-17-34-19-21-36-23-25-38-27-29-40-30-28-39-26-24-37-22-20-35-18-16-33-14-12-31/h31H,2-30H2,1H3

>  <CASRN>
3055-99-0

> <Outcome>
0

>  <Index>
2404

>  <StandardizerResult>
Clear Stereo (ID: ClearStereo)
Wedge Clean (ID: WedgeClean)
Mesomerize (ID: Mesomerize)
Tautomerize (ID: Tautomerize)
Add Explicit Hydrogens (ID: AddExplicitH)
Neutralize (ID: Neutralize)
Clean 2D (ID: Clean2D)

> <knn Distance>
2.64575123786926

> <CpId>
2404

$$$$
2431
  Mrv1532301301811342D          

 40 39  0  0  0  0            999 V2000
    5.3746    3.9670    0.0000 C   0  0  0  0  0  0  0  0  0  0  0  0
    6.0890    3.5545    0.0000 C   0  0  0  0  0  0  0  0  0  0  0  0
    6.0890    2.7295    0.0000 C   0  0  0  0  0  0  0  0  0  0  0  0
    6.8035    3.9670    0.0000 C   0  0  0  0  0  0  0  0  0  0  0  0
    7.5180    3.5545    0.0000 C   0  0  0  0  0  0  0  0  0  0  0  0
    8.2325    3.9670    0.0000 C   0  0  0  0  0  0  0  0  0  0  0  0
    8.9469    3.5545    0.0000 C   0  0  0  0  0  0  0  0  0  0  0  0
    9.6614    3.9670    0.0000 C   0  0  0  0  0  0  0  0  0  0  0  0
   10.3759    3.5545    0.0000 C   0  0  0  0  0  0  0  0  0  0  0  0
   11.0903    3.9670    0.0000 C   0  0  0  0  0  0  0  0  0  0  0  0
   11.8048    3.5545    0.0000 C   0  0  0  0  0  0  0  0  0  0  0  0
   12.5193    3.9670    0.0000 C   0  0  0  0  0  0  0  0  0  0  0  0
   13.2338    3.5545    0.0000 C   0  0  0  0  0  0  0  0  0  0  0  0
   13.9482    3.9670    0.0000 O   0  0  0  0  0  0  0  0  0  0  0  0
    5.7871    4.6814    0.0000 H   0  0  0  0  0  0  0  0  0  0  0  0
    4.6601    4.3795    0.0000 H   0  0  0  0  0  0  0  0  0  0  0  0
    4.9621    3.2525    0.0000 H   0  0  0  0  0  0  0  0  0  0  0  0
    5.3746    3.1420    0.0000 H   0  0  0  0  0  0  0  0  0  0  0  0
    5.5057    2.1461    0.0000 H   0  0  0  0  0  0  0  0  0  0  0  0
    6.5015    2.0150    0.0000 H   0  0  0  0  0  0  0  0  0  0  0  0
    6.8859    2.9430    0.0000 H   0  0  0  0  0  0  0  0  0  0  0  0
    7.1738    4.7042    0.0000 H   0  0  0  0  0  0  0  0  0  0  0  0
    6.4333    4.7042    0.0000 H   0  0  0  0  0  0  0  0  0  0  0  0
    8.0148    2.8958    0.0000 H   0  0  0  0  0  0  0  0  0  0  0  0
    7.5180    4.3795    0.0000 H   0  0  0  0  0  0  0  0  0  0  0  0
    8.8644    4.4973    0.0000 H   0  0  0  0  0  0  0  0  0  0  0  0
    8.3757    4.7794    0.0000 H   0  0  0  0  0  0  0  0  0  0  0  0
    8.5767    2.8172    0.0000 H   0  0  0  0  0  0  0  0  0  0  0  0
    9.3172    2.8172    0.0000 H   0  0  0  0  0  0  0  0  0  0  0  0
   10.3844    4.3642    0.0000 H   0  0  0  0  0  0  0  0  0  0  0  0
    9.6963    4.7912    0.0000 H   0  0  0  0  0  0  0  0  0  0  0  0
   10.0056    2.8172    0.0000 H   0  0  0  0  0  0  0  0  0  0  0  0
   10.7461    2.8172    0.0000 H   0  0  0  0  0  0  0  0  0  0  0  0
   11.7201    4.5000    0.0000 H   0  0  0  0  0  0  0  0  0  0  0  0
   11.2281    4.7804    0.0000 H   0  0  0  0  0  0  0  0  0  0  0  0
   11.4346    2.8172    0.0000 H   0  0  0  0  0  0  0  0  0  0  0  0
   12.1751    2.8172    0.0000 H   0  0  0  0  0  0  0  0  0  0  0  0
   13.2425    4.3640    0.0000 H   0  0  0  0  0  0  0  0  0  0  0  0
   12.5548    4.7912    0.0000 H   0  0  0  0  0  0  0  0  0  0  0  0
   13.2338    2.7295    0.0000 H   0  0  0  0  0  0  0  0  0  0  0  0
  1  2  1  0  0  0  0
  2  3  1  0  0  0  0
  2  4  1  0  0  0  0
  4  5  1  0  0  0  0
  5  6  1  0  0  0  0
  6  7  1  0  0  0  0
  7  8  1  0  0  0  0
  8  9  1  0  0  0  0
  9 10  1  0  0  0  0
 10 11  1  0  0  0  0
 11 12  1  0  0  0  0
 12 13  1  0  0  0  0
 13 14  2  0  0  0  0
  1 15  1  0  0  0  0
  1 16  1  0  0  0  0
  1 17  1  0  0  0  0
  2 18  1  0  0  0  0
  3 19  1  0  0  0  0
  3 20  1  0  0  0  0
  3 21  1  0  0  0  0
  4 22  1  0  0  0  0
  4 23  1  0  0  0  0
  5 24  1  0  0  0  0
  5 25  1  0  0  0  0
  6 26  1  0  0  0  0
  6 27  1  0  0  0  0
  7 28  1  0  0  0  0
  7 29  1  0  0  0  0
  8 30  1  0  0  0  0
  8 31  1  0  0  0  0
  9 32  1  0  0  0  0
  9 33  1  0  0  0  0
 10 34  1  0  0  0  0
 10 35  1  0  0  0  0
 11 36  1  0  0  0  0
 11 37  1  0  0  0  0
 12 38  1  0  0  0  0
 12 39  1  0  0  0  0
 13 40  1  0  0  0  0
M  END
>  <InChIKey>
InChI=1S/C13H26O/c1-13(2)11-9-7-5-3-4-6-8-10-12-14/h12-13H,3-11H2,1-2H3

>  <UN GHS>
Non-irritant

>  <CASRN>
61497-46-9

> <Outcome>
0

>  <Index>
2431

>  <StandardizerResult>
Clear Stereo (ID: ClearStereo)
Wedge Clean (ID: WedgeClean)
Mesomerize (ID: Mesomerize)
Tautomerize (ID: Tautomerize)
Add Explicit Hydrogens (ID: AddExplicitH)
Neutralize (ID: Neutralize)
Clean 2D (ID: Clean2D)

> <knn Distance>
2.64575123786926

> <CpId>
2431

$$$$
2497
  Mrv1532301301811342D          

 17 17  0  0  0  0            999 V2000
    0.7145    2.0625    0.0000 C   0  0  0  0  0  0  0  0  0  0  0  0
    0.7145    1.2375    0.0000 C   0  0  0  0  0  0  0  0  0  0  0  0
    1.4289    0.8250    0.0000 C   0  0  0  0  0  0  0  0  0  0  0  0
    1.4289    0.0000    0.0000 C   0  0  0  0  0  0  0  0  0  0  0  0
    0.7145   -0.4125    0.0000 C   0  0  0  0  0  0  0  0  0  0  0  0
    0.7145   -1.2375    0.0000 C   0  0  0  0  0  0  0  0  0  0  0  0
    1.4289   -1.6500    0.0000 S   0  0  0  0  0  0  0  0  0  0  0  0
    0.0000    0.0000    0.0000 C   0  0  0  0  0  0  0  0  0  0  0  0
    0.0000    0.8250    0.0000 C   0  0  0  0  0  0  0  0  0  0  0  0
    1.5395    2.0625    0.0000 H   0  0  0  0  0  0  0  0  0  0  0  0
    0.7145    2.8875    0.0000 H   0  0  0  0  0  0  0  0  0  0  0  0
   -0.1105    2.0625    0.0000 H   0  0  0  0  0  0  0  0  0  0  0  0
    2.1434    1.2375    0.0000 H   0  0  0  0  0  0  0  0  0  0  0  0
    2.1434   -0.4125    0.0000 H   0  0  0  0  0  0  0  0  0  0  0  0
    0.0000   -1.6500    0.0000 H   0  0  0  0  0  0  0  0  0  0  0  0
   -0.7145   -0.4125    0.0000 H   0  0  0  0  0  0  0  0  0  0  0  0
   -0.7145    1.2375    0.0000 H   0  0  0  0  0  0  0  0  0  0  0  0
  1  2  1  0  0  0  0
  2  3  4  0  0  0  0
  3  4  4  0  0  0  0
  4  5  4  0  0  0  0
  5  6  1  0  0  0  0
  6  7  2  0  0  0  0
  5  8  4  0  0  0  0
  8  9  4  0  0  0  0
  2  9  4  0  0  0  0
  1 10  1  0  0  0  0
  1 11  1  0  0  0  0
  1 12  1  0  0  0  0
  3 13  1  0  0  0  0
  4 14  1  0  0  0  0
  6 15  1  0  0  0  0
  8 16  1  0  0  0  0
  9 17  1  0  0  0  0
M  END
>  <InChIKey>
InChI=1S/C8H8S/c1-7-2-4-8(6-9)5-3-7/h2-6H,1H3

> <Outcome>
0

>  <Index>
2497

>  <StandardizerResult>
Dearomatize (ID: Dearomatize)
Clear Stereo (ID: ClearStereo)
Wedge Clean (ID: WedgeClean)
Mesomerize (ID: Mesomerize)
Tautomerize (ID: Tautomerize)
Aromatize (ID: Aromatize)
Add Explicit Hydrogens (ID: AddExplicitH)
Neutralize (ID: Neutralize)
Clean 2D (ID: Clean2D)

> <knn Distance>
2.64575123786926

> <CpId>
2497

$$$$
2645
  Mrv1532301301811342D          

 57 56  0  0  0  0            999 V2000
    1.3779    9.0459    0.0000 C   0  0  0  0  0  0  0  0  0  0  0  0
    1.3779    8.2209    0.0000 C   0  0  0  0  0  0  0  0  0  0  0  0
    2.0924    7.8084    0.0000 C   0  0  0  0  0  0  0  0  0  0  0  0
    2.0924    6.9834    0.0000 C   0  0  0  0  0  0  0  0  0  0  0  0
    2.8068    6.5709    0.0000 C   0  0  0  0  0  0  0  0  0  0  0  0
    2.8068    5.7459    0.0000 C   0  0  0  0  0  0  0  0  0  0  0  0
    3.5213    5.3334    0.0000 C   0  0  0  0  0  0  0  0  0  0  0  0
    3.5213    4.5084    0.0000 C   0  0  0  0  0  0  0  0  0  0  0  0
    4.2358    4.0959    0.0000 C   0  0  0  0  0  0  0  0  0  0  0  0
    4.2358    3.2709    0.0000 C   0  0  0  0  0  0  0  0  0  0  0  0
    4.9503    2.8584    0.0000 C   0  0  0  0  0  0  0  0  0  0  0  0
    5.6647    3.2709    0.0000 C   0  0  0  0  0  0  0  0  0  0  0  0
    6.3792    2.8584    0.0000 C   0  0  0  0  0  0  0  0  0  0  0  0
    7.0937    3.2709    0.0000 C   0  0  0  0  0  0  0  0  0  0  0  0
    7.8081    2.8584    0.0000 C   0  0  0  0  0  0  0  0  0  0  0  0
    8.5226    3.2709    0.0000 C   0  0  0  0  0  0  0  0  0  0  0  0
    9.2371    2.8584    0.0000 C   0  0  0  0  0  0  0  0  0  0  0  0
    9.9516    3.2709    0.0000 C   0  0  0  0  0  0  0  0  0  0  0  0
    9.9516    4.0959    0.0000 O   0  0  0  0  0  0  0  0  0  0  0  0
   10.6660    2.8584    0.0000 O   0  0  0  0  0  0  0  0  0  0  0  0
   11.3805    3.2709    0.0000 C   0  0  0  0  0  0  0  0  0  0  0  0
    2.2029    9.0459    0.0000 H   0  0  0  0  0  0  0  0  0  0  0  0
    1.3779    9.8709    0.0000 H   0  0  0  0  0  0  0  0  0  0  0  0
    0.5529    9.0459    0.0000 H   0  0  0  0  0  0  0  0  0  0  0  0
    0.5543    8.1729    0.0000 H   0  0  0  0  0  0  0  0  0  0  0  0
    0.9246    7.5316    0.0000 H   0  0  0  0  0  0  0  0  0  0  0  0
    2.9160    7.8563    0.0000 H   0  0  0  0  0  0  0  0  0  0  0  0
    2.5457    8.4976    0.0000 H   0  0  0  0  0  0  0  0  0  0  0  0
    1.2688    6.9354    0.0000 H   0  0  0  0  0  0  0  0  0  0  0  0
    1.6390    6.2941    0.0000 H   0  0  0  0  0  0  0  0  0  0  0  0
    3.6305    6.6188    0.0000 H   0  0  0  0  0  0  0  0  0  0  0  0
    3.2602    7.2601    0.0000 H   0  0  0  0  0  0  0  0  0  0  0  0
    1.9832    5.6979    0.0000 H   0  0  0  0  0  0  0  0  0  0  0  0
    2.3535    5.0566    0.0000 H   0  0  0  0  0  0  0  0  0  0  0  0
    4.3449    5.3813    0.0000 H   0  0  0  0  0  0  0  0  0  0  0  0
    3.9747    6.0226    0.0000 H   0  0  0  0  0  0  0  0  0  0  0  0
    2.6977    4.4604    0.0000 H   0  0  0  0  0  0  0  0  0  0  0  0
    3.0680    3.8191    0.0000 H   0  0  0  0  0  0  0  0  0  0  0  0
    4.9503    4.5084    0.0000 H   0  0  0  0  0  0  0  0  0  0  0  0
    3.5213    2.8584    0.0000 H   0  0  0  0  0  0  0  0  0  0  0  0
    4.5800    2.1211    0.0000 H   0  0  0  0  0  0  0  0  0  0  0  0
    5.3205    2.1211    0.0000 H   0  0  0  0  0  0  0  0  0  0  0  0
    6.0350    4.0081    0.0000 H   0  0  0  0  0  0  0  0  0  0  0  0
    5.2945    4.0081    0.0000 H   0  0  0  0  0  0  0  0  0  0  0  0
    6.0089    2.1211    0.0000 H   0  0  0  0  0  0  0  0  0  0  0  0
    6.7495    2.1211    0.0000 H   0  0  0  0  0  0  0  0  0  0  0  0
    7.4639    4.0081    0.0000 H   0  0  0  0  0  0  0  0  0  0  0  0
    6.7234    4.0081    0.0000 H   0  0  0  0  0  0  0  0  0  0  0  0
    7.4379    2.1211    0.0000 H   0  0  0  0  0  0  0  0  0  0  0  0
    8.1784    2.1211    0.0000 H   0  0  0  0  0  0  0  0  0  0  0  0
    8.8929    4.0081    0.0000 H   0  0  0  0  0  0  0  0  0  0  0  0
    8.1524    4.0081    0.0000 H   0  0  0  0  0  0  0  0  0  0  0  0
    8.8668    2.1211    0.0000 H   0  0  0  0  0  0  0  0  0  0  0  0
    9.6073    2.1211    0.0000 H   0  0  0  0  0  0  0  0  0  0  0  0
   11.7930    2.5564    0.0000 H   0  0  0  0  0  0  0  0  0  0  0  0
   12.0950    3.6834    0.0000 H   0  0  0  0  0  0  0  0  0  0  0  0
   10.9680    3.9853    0.0000 H   0  0  0  0  0  0  0  0  0  0  0  0
  1  2  1  0  0  0  0
  2  3  1  0  0  0  0
  3  4  1  0  0  0  0
  4  5  1  0  0  0  0
  5  6  1  0  0  0  0
  6  7  1  0  0  0  0
  7  8  1  0  0  0  0
  9  8  1  4  0  0  0
  9 10  2  0  0  0  0
 10 11  1  0  0  0  0
 11 12  1  0  0  0  0
 12 13  1  0  0  0  0
 13 14  1  0  0  0  0
 14 15  1  0  0  0  0
 15 16  1  0  0  0  0
 16 17  1  0  0  0  0
 17 18  1  0  0  0  0
 18 19  2  0  0  0  0
 18 20  1  0  0  0  0
 20 21  1  0  0  0  0
  1 22  1  0  0  0  0
  1 23  1  0  0  0  0
  1 24  1  0  0  0  0
  2 25  1  0  0  0  0
  2 26  1  0  0  0  0
  3 27  1  0  0  0  0
  3 28  1  0  0  0  0
  4 29  1  0  0  0  0
  4 30  1  0  0  0  0
  5 31  1  0  0  0  0
  5 32  1  0  0  0  0
  6 33  1  0  0  0  0
  6 34  1  0  0  0  0
  7 35  1  0  0  0  0
  7 36  1  0  0  0  0
  8 37  1  0  0  0  0
  8 38  1  0  0  0  0
  9 39  1  0  0  0  0
 10 40  1  0  0  0  0
 11 41  1  0  0  0  0
 11 42  1  0  0  0  0
 12 43  1  0  0  0  0
 12 44  1  0  0  0  0
 13 45  1  0  0  0  0
 13 46  1  0  0  0  0
 14 47  1  0  0  0  0
 14 48  1  0  0  0  0
 15 49  1  0  0  0  0
 15 50  1  0  0  0  0
 16 51  1  0  0  0  0
 16 52  1  0  0  0  0
 17 53  1  0  0  0  0
 17 54  1  0  0  0  0
 21 55  1  0  0  0  0
 21 56  1  0  0  0  0
 21 57  1  0  0  0  0
M  END
>  <InChIKey>
InChI=1S/C19H36O2/c1-3-4-5-6-7-8-9-10-11-12-13-14-15-16-17-18-19(20)21-2/h10-11H,3-9,12-18H2,1-2H3

>  <CASRN>
112-62-9

> <Outcome>
0

>  <Index>
2645

>  <StandardizerResult>
Clear Stereo (ID: ClearStereo)
Wedge Clean (ID: WedgeClean)
Mesomerize (ID: Mesomerize)
Tautomerize (ID: Tautomerize)
Add Explicit Hydrogens (ID: AddExplicitH)
Neutralize (ID: Neutralize)
Clean 2D (ID: Clean2D)

> <knn Distance>
2.64575123786926

> <CpId>
2645

$$$$
2651
  Mrv1532301301811342D          

 62 61  0  0  0  0            999 V2000
   -6.6214    0.3020    0.0000 C   0  0  0  0  0  0  0  0  0  0  0  0
   -5.9069    0.7145    0.0000 C   0  0  0  0  0  0  0  0  0  0  0  0
   -5.1925    0.3020    0.0000 C   0  0  0  0  0  0  0  0  0  0  0  0
   -4.4780    0.7145    0.0000 C   0  0  0  0  0  0  0  0  0  0  0  0
   -3.7635    0.3020    0.0000 O   0  0  0  0  0  0  0  0  0  0  0  0
   -3.0490    0.7145    0.0000 C   0  0  0  0  0  0  0  0  0  0  0  0
   -3.0490    1.5395    0.0000 O   0  0  0  0  0  0  0  0  0  0  0  0
   -2.3346    0.3020    0.0000 C   0  0  0  0  0  0  0  0  0  0  0  0
   -1.6201    0.7145    0.0000 C   0  0  0  0  0  0  0  0  0  0  0  0
   -0.9056    1.1270    0.0000 C   0  0  0  0  0  0  0  0  0  0  0  0
   -0.1912    0.7145    0.0000 C   0  0  0  0  0  0  0  0  0  0  0  0
   -0.1912   -0.1105    0.0000 O   0  0  0  0  0  0  0  0  0  0  0  0
    0.5233    1.1270    0.0000 O   0  0  0  0  0  0  0  0  0  0  0  0
    1.2378    0.7145    0.0000 C   0  0  0  0  0  0  0  0  0  0  0  0
    1.9522    1.1270    0.0000 C   0  0  0  0  0  0  0  0  0  0  0  0
    2.6667    0.7145    0.0000 C   0  0  0  0  0  0  0  0  0  0  0  0
    3.3812    1.1270    0.0000 C   0  0  0  0  0  0  0  0  0  0  0  0
   -1.2076    0.0000    0.0000 O   0  0  0  0  0  0  0  0  0  0  0  0
   -1.6201   -0.7144    0.0000 C   0  0  0  0  0  0  0  0  0  0  0  0
   -1.2076   -1.4289    0.0000 C   0  0  0  0  0  0  0  0  0  0  0  0
   -2.4451   -0.7144    0.0000 O   0  0  0  0  0  0  0  0  0  0  0  0
   -2.0326    1.4290    0.0000 C   0  0  0  0  0  0  0  0  0  0  0  0
   -2.7000    1.9139    0.0000 O   0  0  0  0  0  0  0  0  0  0  0  0
   -1.6201    2.1434    0.0000 O   0  0  0  0  0  0  0  0  0  0  0  0
   -2.0326    2.8579    0.0000 C   0  0  0  0  0  0  0  0  0  0  0  0
   -1.6201    3.5724    0.0000 C   0  0  0  0  0  0  0  0  0  0  0  0
   -2.0326    4.2868    0.0000 C   0  0  0  0  0  0  0  0  0  0  0  0
   -1.6201    5.0013    0.0000 C   0  0  0  0  0  0  0  0  0  0  0  0
   -7.0339    1.0165    0.0000 H   0  0  0  0  0  0  0  0  0  0  0  0
   -7.3359   -0.1105    0.0000 H   0  0  0  0  0  0  0  0  0  0  0  0
   -6.2089   -0.4125    0.0000 H   0  0  0  0  0  0  0  0  0  0  0  0
   -5.5367    1.4517    0.0000 H   0  0  0  0  0  0  0  0  0  0  0  0
   -6.2772    1.4517    0.0000 H   0  0  0  0  0  0  0  0  0  0  0  0
   -5.5627   -0.4353    0.0000 H   0  0  0  0  0  0  0  0  0  0  0  0
   -4.8222   -0.4353    0.0000 H   0  0  0  0  0  0  0  0  0  0  0  0
   -4.1077    1.4517    0.0000 H   0  0  0  0  0  0  0  0  0  0  0  0
   -4.8483    1.4517    0.0000 H   0  0  0  0  0  0  0  0  0  0  0  0
   -2.7048   -0.4353    0.0000 H   0  0  0  0  0  0  0  0  0  0  0  0
   -1.9643   -0.4353    0.0000 H   0  0  0  0  0  0  0  0  0  0  0  0
   -0.5354    1.8642    0.0000 H   0  0  0  0  0  0  0  0  0  0  0  0
   -1.2759    1.8642    0.0000 H   0  0  0  0  0  0  0  0  0  0  0  0
    0.8675   -0.0228    0.0000 H   0  0  0  0  0  0  0  0  0  0  0  0
    1.6080   -0.0228    0.0000 H   0  0  0  0  0  0  0  0  0  0  0  0
    2.3225    1.8642    0.0000 H   0  0  0  0  0  0  0  0  0  0  0  0
    1.5820    1.8642    0.0000 H   0  0  0  0  0  0  0  0  0  0  0  0
    2.2965   -0.0228    0.0000 H   0  0  0  0  0  0  0  0  0  0  0  0
    3.0370   -0.0228    0.0000 H   0  0  0  0  0  0  0  0  0  0  0  0
    3.7937    0.4125    0.0000 H   0  0  0  0  0  0  0  0  0  0  0  0
    4.0957    1.5395    0.0000 H   0  0  0  0  0  0  0  0  0  0  0  0
    2.9687    1.8415    0.0000 H   0  0  0  0  0  0  0  0  0  0  0  0
   -1.9221   -1.8414    0.0000 H   0  0  0  0  0  0  0  0  0  0  0  0
   -0.7951   -2.1434    0.0000 H   0  0  0  0  0  0  0  0  0  0  0  0
   -0.4931   -1.0164    0.0000 H   0  0  0  0  0  0  0  0  0  0  0  0
   -2.7699    3.2282    0.0000 H   0  0  0  0  0  0  0  0  0  0  0  0
   -2.7699    2.4876    0.0000 H   0  0  0  0  0  0  0  0  0  0  0  0
   -0.8829    3.2021    0.0000 H   0  0  0  0  0  0  0  0  0  0  0  0
   -0.8829    3.9426    0.0000 H   0  0  0  0  0  0  0  0  0  0  0  0
   -2.7699    4.6571    0.0000 H   0  0  0  0  0  0  0  0  0  0  0  0
   -2.7699    3.9166    0.0000 H   0  0  0  0  0  0  0  0  0  0  0  0
   -0.9056    4.5888    0.0000 H   0  0  0  0  0  0  0  0  0  0  0  0
   -1.2076    5.7158    0.0000 H   0  0  0  0  0  0  0  0  0  0  0  0
   -2.3346    5.4138    0.0000 H   0  0  0  0  0  0  0  0  0  0  0  0
  1  2  1  0  0  0  0
  2  3  1  0  0  0  0
  3  4  1  0  0  0  0
  4  5  1  0  0  0  0
  5  6  1  0  0  0  0
  6  7  2  0  0  0  0
  6  8  1  0  0  0  0
  8  9  1  0  0  0  0
  9 10  1  0  0  0  0
 10 11  1  0  0  0  0
 11 12  2  0  0  0  0
 11 13  1  0  0  0  0
 13 14  1  0  0  0  0
 14 15  1  0  0  0  0
 15 16  1  0  0  0  0
 16 17  1  0  0  0  0
  9 18  1  0  0  0  0
 18 19  1  0  0  0  0
 19 20  1  0  0  0  0
 19 21  2  0  0  0  0
  9 22  1  0  0  0  0
 22 23  2  0  0  0  0
 22 24  1  0  0  0  0
 24 25  1  0  0  0  0
 25 26  1  0  0  0  0
 26 27  1  0  0  0  0
 27 28  1  0  0  0  0
  1 29  1  0  0  0  0
  1 30  1  0  0  0  0
  1 31  1  0  0  0  0
  2 32  1  0  0  0  0
  2 33  1  0  0  0  0
  3 34  1  0  0  0  0
  3 35  1  0  0  0  0
  4 36  1  0  0  0  0
  4 37  1  0  0  0  0
  8 38  1  0  0  0  0
  8 39  1  0  0  0  0
 10 40  1  0  0  0  0
 10 41  1  0  0  0  0
 14 42  1  0  0  0  0
 14 43  1  0  0  0  0
 15 44  1  0  0  0  0
 15 45  1  0  0  0  0
 16 46  1  0  0  0  0
 16 47  1  0  0  0  0
 17 48  1  0  0  0  0
 17 49  1  0  0  0  0
 17 50  1  0  0  0  0
 20 51  1  0  0  0  0
 20 52  1  0  0  0  0
 20 53  1  0  0  0  0
 25 54  1  0  0  0  0
 25 55  1  0  0  0  0
 26 56  1  0  0  0  0
 26 57  1  0  0  0  0
 27 58  1  0  0  0  0
 27 59  1  0  0  0  0
 28 60  1  0  0  0  0
 28 61  1  0  0  0  0
 28 62  1  0  0  0  0
M  END
>  <InChIKey>
InChI=1S/C20H34O8/c1-5-8-11-25-17(22)14-20(28-16(4)21,19(24)27-13-10-7-3)15-18(23)26-12-9-6-2/h5-15H2,1-4H3

>  <CASRN>
77-90-7

> <Outcome>
0

>  <Index>
2651

>  <StandardizerResult>
Clear Stereo (ID: ClearStereo)
Wedge Clean (ID: WedgeClean)
Mesomerize (ID: Mesomerize)
Tautomerize (ID: Tautomerize)
Add Explicit Hydrogens (ID: AddExplicitH)
Neutralize (ID: Neutralize)
Clean 2D (ID: Clean2D)

> <knn Distance>
2.64575123786926

> <CpId>
2651

$$$$
2668
  Mrv1532301301811342D          

 32 33  0  0  0  0            999 V2000
    1.3754   -0.0840    0.0000 C   0  0  0  0  0  0  0  0  0  0  0  0
    2.0899   -0.4965    0.0000 C   0  0  0  0  0  0  0  0  0  0  0  0
    2.8044   -0.0840    0.0000 C   0  0  0  0  0  0  0  0  0  0  0  0
    2.8044    0.7410    0.0000 O   0  0  0  0  0  0  0  0  0  0  0  0
    3.5188   -0.4965    0.0000 O   0  0  0  0  0  0  0  0  0  0  0  0
    2.0899   -1.3215    0.0000 C   0  0  0  0  0  0  0  0  0  0  0  0
    2.8044   -1.7340    0.0000 C   0  0  0  0  0  0  0  0  0  0  0  0
    2.8044   -2.5590    0.0000 C   0  0  0  0  0  0  0  0  0  0  0  0
    2.0899   -2.9715    0.0000 C   0  0  0  0  0  0  0  0  0  0  0  0
    1.3754   -2.5590    0.0000 C   0  0  0  0  0  0  0  0  0  0  0  0
    0.6609   -2.9715    0.0000 O   0  0  0  0  0  0  0  0  0  0  0  0
   -0.0535   -2.5590    0.0000 C   0  0  0  0  0  0  0  0  0  0  0  0
   -0.7680   -2.9715    0.0000 C   0  0  0  0  0  0  0  0  0  0  0  0
   -1.4825   -2.5590    0.0000 C   0  0  0  0  0  0  0  0  0  0  0  0
   -1.4825   -1.7340    0.0000 C   0  0  0  0  0  0  0  0  0  0  0  0
   -0.7680   -1.3215    0.0000 C   0  0  0  0  0  0  0  0  0  0  0  0
   -0.0535   -1.7340    0.0000 C   0  0  0  0  0  0  0  0  0  0  0  0
    1.3754   -1.7340    0.0000 C   0  0  0  0  0  0  0  0  0  0  0  0
    1.7879    0.6305    0.0000 H   0  0  0  0  0  0  0  0  0  0  0  0
    0.6609    0.3285    0.0000 H   0  0  0  0  0  0  0  0  0  0  0  0
    0.9629   -0.7985    0.0000 H   0  0  0  0  0  0  0  0  0  0  0  0
    2.0899    0.3285    0.0000 H   0  0  0  0  0  0  0  0  0  0  0  0
    3.2169    1.4555    0.0000 H   0  0  0  0  0  0  0  0  0  0  0  0
    3.5188   -1.3215    0.0000 H   0  0  0  0  0  0  0  0  0  0  0  0
    3.5188   -2.9715    0.0000 H   0  0  0  0  0  0  0  0  0  0  0  0
    2.0899   -3.7965    0.0000 H   0  0  0  0  0  0  0  0  0  0  0  0
   -0.7680   -3.7965    0.0000 H   0  0  0  0  0  0  0  0  0  0  0  0
   -2.1969   -2.9715    0.0000 H   0  0  0  0  0  0  0  0  0  0  0  0
   -2.1969   -1.3215    0.0000 H   0  0  0  0  0  0  0  0  0  0  0  0
   -0.7680   -0.4965    0.0000 H   0  0  0  0  0  0  0  0  0  0  0  0
    0.6609   -1.3215    0.0000 H   0  0  0  0  0  0  0  0  0  0  0  0
    1.3754   -0.9090    0.0000 H   0  0  0  0  0  0  0  0  0  0  0  0
  1  2  1  0  0  0  0
  2  3  1  0  0  0  0
  3  4  1  0  0  0  0
  3  5  2  0  0  0  0
  2  6  1  0  0  0  0
  6  7  4  0  0  0  0
  7  8  4  0  0  0  0
  8  9  4  0  0  0  0
  9 10  4  0  0  0  0
 10 11  1  0  0  0  0
 11 12  1  0  0  0  0
 12 13  4  0  0  0  0
 13 14  4  0  0  0  0
 14 15  4  0  0  0  0
 15 16  4  0  0  0  0
 16 17  4  0  0  0  0
 12 17  4  0  0  0  0
 10 18  4  0  0  0  0
  6 18  4  0  0  0  0
  1 19  1  0  0  0  0
  1 20  1  0  0  0  0
  1 21  1  0  0  0  0
  2 22  1  0  0  0  0
  4 23  1  0  0  0  0
  7 24  1  0  0  0  0
  8 25  1  0  0  0  0
  9 26  1  0  0  0  0
 13 27  1  0  0  0  0
 14 28  1  0  0  0  0
 15 29  1  0  0  0  0
 16 30  1  0  0  0  0
 17 31  1  0  0  0  0
 18 32  1  0  0  0  0
M  END
>  <InChIKey>
InChI=1S/C15H14O3/c1-11(15(16)17)12-6-5-9-14(10-12)18-13-7-3-2-4-8-13/h2-11H,1H3,(H,16,17)

>  <CASRN>
31879-05-7

> <Outcome>
0

>  <Index>
2668

>  <StandardizerResult>
Dearomatize (ID: Dearomatize)
Clear Stereo (ID: ClearStereo)
Wedge Clean (ID: WedgeClean)
Mesomerize (ID: Mesomerize)
Tautomerize (ID: Tautomerize)
Aromatize (ID: Aromatize)
Add Explicit Hydrogens (ID: AddExplicitH)
Neutralize (ID: Neutralize)
Clean 2D (ID: Clean2D)

> <knn Distance>
2.64575123786926

> <CpId>
2668

$$$$
2681
  Mrv1532301301811342D          

 12 11  0  0  0  0            999 V2000
    1.2375    2.1434    0.0000 C   0  0  0  0  0  0  0  0  0  0  0  0
    1.6500    1.4289    0.0000 O   0  0  0  0  0  0  0  0  0  0  0  0
    1.2375    0.7145    0.0000 C   0  0  0  0  0  0  0  0  0  0  0  0
    0.5230    1.1270    0.0000 F   0  0  0  0  0  0  0  0  0  0  0  0
    1.9520    0.3020    0.0000 F   0  0  0  0  0  0  0  0  0  0  0  0
    0.8250   -0.0000    0.0000 C   0  0  0  0  0  0  0  0  0  0  0  0
    1.2375   -0.7145    0.0000 Cl  0  0  0  0  0  0  0  0  0  0  0  0
    0.0000   -0.0000    0.0000 Cl  0  0  0  0  0  0  0  0  0  0  0  0
    1.9520    2.5559    0.0000 H   0  0  0  0  0  0  0  0  0  0  0  0
    0.8250    2.8579    0.0000 H   0  0  0  0  0  0  0  0  0  0  0  0
    0.5230    1.7309    0.0000 H   0  0  0  0  0  0  0  0  0  0  0  0
    1.6500   -0.0000    0.0000 H   0  0  0  0  0  0  0  0  0  0  0  0
  1  2  1  0  0  0  0
  2  3  1  0  0  0  0
  3  4  1  0  0  0  0
  3  5  1  0  0  0  0
  3  6  1  0  0  0  0
  6  7  1  0  0  0  0
  6  8  1  0  0  0  0
  1  9  1  0  0  0  0
  1 10  1  0  0  0  0
  1 11  1  0  0  0  0
  6 12  1  0  0  0  0
M  END
>  <InChIKey>
InChI=1S/C3H4Cl2F2O/c1-8-3(6,7)2(4)5/h2H,1H3

>  <CASRN>
76-38-0

> <Outcome>
0

>  <Index>
2681

>  <StandardizerResult>
Clear Stereo (ID: ClearStereo)
Wedge Clean (ID: WedgeClean)
Mesomerize (ID: Mesomerize)
Tautomerize (ID: Tautomerize)
Add Explicit Hydrogens (ID: AddExplicitH)
Neutralize (ID: Neutralize)
Clean 2D (ID: Clean2D)

> <knn Distance>
2.64575123786926

> <CpId>
2681

$$$$
2682
  Mrv1532301301811342D          

 63 62  0  0  0  0            999 V2000
    9.7086    6.4302    0.0000 C   0  0  0  0  0  0  0  0  0  0  0  0
   10.4230    6.8427    0.0000 C   0  0  0  0  0  0  0  0  0  0  0  0
   11.1375    6.4302    0.0000 C   0  0  0  0  0  0  0  0  0  0  0  0
   11.8520    6.8427    0.0000 C   0  0  0  0  0  0  0  0  0  0  0  0
   12.5664    6.4302    0.0000 C   0  0  0  0  0  0  0  0  0  0  0  0
   13.2809    6.8427    0.0000 C   0  0  0  0  0  0  0  0  0  0  0  0
   13.9954    6.4302    0.0000 C   0  0  0  0  0  0  0  0  0  0  0  0
   14.7099    6.8427    0.0000 C   0  0  0  0  0  0  0  0  0  0  0  0
   15.4243    6.4302    0.0000 C   0  0  0  0  0  0  0  0  0  0  0  0
   16.1388    6.8427    0.0000 C   0  0  0  0  0  0  0  0  0  0  0  0
   16.8533    6.4302    0.0000 C   0  0  0  0  0  0  0  0  0  0  0  0
   17.5677    6.8427    0.0000 C   0  0  0  0  0  0  0  0  0  0  0  0
   18.2822    6.4302    0.0000 C   0  0  0  0  0  0  0  0  0  0  0  0
   18.9967    6.8427    0.0000 C   0  0  0  0  0  0  0  0  0  0  0  0
   19.7112    6.4302    0.0000 C   0  0  0  0  0  0  0  0  0  0  0  0
   20.4256    6.8427    0.0000 C   0  0  0  0  0  0  0  0  0  0  0  0
   21.1401    6.4302    0.0000 C   0  0  0  0  0  0  0  0  0  0  0  0
   21.8546    6.8427    0.0000 C   0  0  0  0  0  0  0  0  0  0  0  0
   21.8546    7.6677    0.0000 O   0  0  0  0  0  0  0  0  0  0  0  0
   22.5690    6.4302    0.0000 O   0  0  0  0  0  0  0  0  0  0  0  0
   23.2835    6.8427    0.0000 C   0  0  0  0  0  0  0  0  0  0  0  0
   23.9980    6.4302    0.0000 C   0  0  0  0  0  0  0  0  0  0  0  0
   24.7125    6.8427    0.0000 O   0  0  0  0  0  0  0  0  0  0  0  0
    9.2961    7.1447    0.0000 H   0  0  0  0  0  0  0  0  0  0  0  0
    8.9941    6.0177    0.0000 H   0  0  0  0  0  0  0  0  0  0  0  0
   10.1211    5.7157    0.0000 H   0  0  0  0  0  0  0  0  0  0  0  0
   10.7933    7.5799    0.0000 H   0  0  0  0  0  0  0  0  0  0  0  0
   10.0528    7.5799    0.0000 H   0  0  0  0  0  0  0  0  0  0  0  0
   10.7672    5.6930    0.0000 H   0  0  0  0  0  0  0  0  0  0  0  0
   11.5078    5.6930    0.0000 H   0  0  0  0  0  0  0  0  0  0  0  0
   12.2222    7.5799    0.0000 H   0  0  0  0  0  0  0  0  0  0  0  0
   11.4817    7.5799    0.0000 H   0  0  0  0  0  0  0  0  0  0  0  0
   12.1962    5.6930    0.0000 H   0  0  0  0  0  0  0  0  0  0  0  0
   12.9367    5.6930    0.0000 H   0  0  0  0  0  0  0  0  0  0  0  0
   13.6512    7.5799    0.0000 H   0  0  0  0  0  0  0  0  0  0  0  0
   12.9107    7.5799    0.0000 H   0  0  0  0  0  0  0  0  0  0  0  0
   13.6251    5.6930    0.0000 H   0  0  0  0  0  0  0  0  0  0  0  0
   14.3656    5.6930    0.0000 H   0  0  0  0  0  0  0  0  0  0  0  0
   15.0801    7.5799    0.0000 H   0  0  0  0  0  0  0  0  0  0  0  0
   14.3396    7.5799    0.0000 H   0  0  0  0  0  0  0  0  0  0  0  0
   15.0541    5.6930    0.0000 H   0  0  0  0  0  0  0  0  0  0  0  0
   15.7946    5.6930    0.0000 H   0  0  0  0  0  0  0  0  0  0  0  0
   16.5091    7.5799    0.0000 H   0  0  0  0  0  0  0  0  0  0  0  0
   15.7685    7.5799    0.0000 H   0  0  0  0  0  0  0  0  0  0  0  0
   16.4830    5.6930    0.0000 H   0  0  0  0  0  0  0  0  0  0  0  0
   17.2235    5.6930    0.0000 H   0  0  0  0  0  0  0  0  0  0  0  0
   17.9380    7.5799    0.0000 H   0  0  0  0  0  0  0  0  0  0  0  0
   17.1975    7.5799    0.0000 H   0  0  0  0  0  0  0  0  0  0  0  0
   17.9120    5.6930    0.0000 H   0  0  0  0  0  0  0  0  0  0  0  0
   18.6525    5.6930    0.0000 H   0  0  0  0  0  0  0  0  0  0  0  0
   19.3669    7.5799    0.0000 H   0  0  0  0  0  0  0  0  0  0  0  0
   18.6264    7.5799    0.0000 H   0  0  0  0  0  0  0  0  0  0  0  0
   19.3409    5.6930    0.0000 H   0  0  0  0  0  0  0  0  0  0  0  0
   20.0814    5.6930    0.0000 H   0  0  0  0  0  0  0  0  0  0  0  0
   20.7959    7.5799    0.0000 H   0  0  0  0  0  0  0  0  0  0  0  0
   20.0554    7.5799    0.0000 H   0  0  0  0  0  0  0  0  0  0  0  0
   20.7698    5.6930    0.0000 H   0  0  0  0  0  0  0  0  0  0  0  0
   21.5104    5.6930    0.0000 H   0  0  0  0  0  0  0  0  0  0  0  0
   23.6538    7.5799    0.0000 H   0  0  0  0  0  0  0  0  0  0  0  0
   22.9133    7.5799    0.0000 H   0  0  0  0  0  0  0  0  0  0  0  0
   23.6277    5.6930    0.0000 H   0  0  0  0  0  0  0  0  0  0  0  0
   24.3682    5.6930    0.0000 H   0  0  0  0  0  0  0  0  0  0  0  0
   25.4269    6.4302    0.0000 H   0  0  0  0  0  0  0  0  0  0  0  0
  1  2  1  0  0  0  0
  2  3  1  0  0  0  0
  3  4  1  0  0  0  0
  4  5  1  0  0  0  0
  5  6  1  0  0  0  0
  6  7  1  0  0  0  0
  7  8  1  0  0  0  0
  8  9  1  0  0  0  0
  9 10  1  0  0  0  0
 10 11  1  0  0  0  0
 11 12  1  0  0  0  0
 12 13  1  0  0  0  0
 13 14  1  0  0  0  0
 14 15  1  0  0  0  0
 15 16  1  0  0  0  0
 16 17  1  0  0  0  0
 17 18  1  0  0  0  0
 18 19  2  0  0  0  0
 18 20  1  0  0  0  0
 20 21  1  0  0  0  0
 21 22  1  0  0  0  0
 22 23  1  0  0  0  0
  1 24  1  0  0  0  0
  1 25  1  0  0  0  0
  1 26  1  0  0  0  0
  2 27  1  0  0  0  0
  2 28  1  0  0  0  0
  3 29  1  0  0  0  0
  3 30  1  0  0  0  0
  4 31  1  0  0  0  0
  4 32  1  0  0  0  0
  5 33  1  0  0  0  0
  5 34  1  0  0  0  0
  6 35  1  0  0  0  0
  6 36  1  0  0  0  0
  7 37  1  0  0  0  0
  7 38  1  0  0  0  0
  8 39  1  0  0  0  0
  8 40  1  0  0  0  0
  9 41  1  0  0  0  0
  9 42  1  0  0  0  0
 10 43  1  0  0  0  0
 10 44  1  0  0  0  0
 11 45  1  0  0  0  0
 11 46  1  0  0  0  0
 12 47  1  0  0  0  0
 12 48  1  0  0  0  0
 13 49  1  0  0  0  0
 13 50  1  0  0  0  0
 14 51  1  0  0  0  0
 14 52  1  0  0  0  0
 15 53  1  0  0  0  0
 15 54  1  0  0  0  0
 16 55  1  0  0  0  0
 16 56  1  0  0  0  0
 17 57  1  0  0  0  0
 17 58  1  0  0  0  0
 21 59  1  0  0  0  0
 21 60  1  0  0  0  0
 22 61  1  0  0  0  0
 22 62  1  0  0  0  0
 23 63  1  0  0  0  0
M  END
>  <InChIKey>
InChI=1S/C20H40O3/c1-2-3-4-5-6-7-8-9-10-11-12-13-14-15-16-17-20(22)23-19-18-21/h21H,2-19H2,1H3

>  <UN GHS>
Non-irritant

>  <CASRN>
9004-99-3

> <Outcome>
0

>  <Index>
2682

>  <StandardizerResult>
Clear Stereo (ID: ClearStereo)
Wedge Clean (ID: WedgeClean)
Mesomerize (ID: Mesomerize)
Tautomerize (ID: Tautomerize)
Add Explicit Hydrogens (ID: AddExplicitH)
Neutralize (ID: Neutralize)
Clean 2D (ID: Clean2D)

> <knn Distance>
2.64575123786926

> <CpId>
2682

$$$$
2751
  Mrv1532301301811342D          

 24 25  0  0  0  0            999 V2000
    1.4789   -0.0106    0.0000 O   0  0  0  0  0  0  0  0  0  0  0  0
    2.1934   -0.4231    0.0000 C   0  0  0  0  0  0  0  0  0  0  0  0
    2.1934   -1.2481    0.0000 C   0  0  0  0  0  0  0  0  0  0  0  0
    2.9079   -1.6606    0.0000 C   0  0  0  0  0  0  0  0  0  0  0  0
    2.9079   -2.4856    0.0000 C   0  0  0  0  0  0  0  0  0  0  0  0
    2.1934   -2.8981    0.0000 C   0  0  0  0  0  0  0  0  0  0  0  0
    1.4789   -2.4856    0.0000 C   0  0  0  0  0  0  0  0  0  0  0  0
    1.4789   -1.6606    0.0000 C   0  0  0  0  0  0  0  0  0  0  0  0
    2.9079   -0.0106    0.0000 C   0  0  0  0  0  0  0  0  0  0  0  0
    2.9079    0.8144    0.0000 C   0  0  0  0  0  0  0  0  0  0  0  0
    3.6223    1.2269    0.0000 C   0  0  0  0  0  0  0  0  0  0  0  0
    4.3368    0.8144    0.0000 C   0  0  0  0  0  0  0  0  0  0  0  0
    4.3368   -0.0106    0.0000 C   0  0  0  0  0  0  0  0  0  0  0  0
    3.6223   -0.4231    0.0000 C   0  0  0  0  0  0  0  0  0  0  0  0
    3.6223   -1.2481    0.0000 H   0  0  0  0  0  0  0  0  0  0  0  0
    3.6223   -2.8981    0.0000 H   0  0  0  0  0  0  0  0  0  0  0  0
    2.1934   -3.7231    0.0000 H   0  0  0  0  0  0  0  0  0  0  0  0
    0.7644   -2.8981    0.0000 H   0  0  0  0  0  0  0  0  0  0  0  0
    0.7644   -1.2481    0.0000 H   0  0  0  0  0  0  0  0  0  0  0  0
    2.1934    1.2269    0.0000 H   0  0  0  0  0  0  0  0  0  0  0  0
    3.6223    2.0519    0.0000 H   0  0  0  0  0  0  0  0  0  0  0  0
    5.0513    1.2269    0.0000 H   0  0  0  0  0  0  0  0  0  0  0  0
    5.0513   -0.4231    0.0000 H   0  0  0  0  0  0  0  0  0  0  0  0
    2.9079   -0.8356    0.0000 H   0  0  0  0  0  0  0  0  0  0  0  0
  1  2  2  0  0  0  0
  2  3  1  0  0  0  0
  3  4  4  0  0  0  0
  4  5  4  0  0  0  0
  5  6  4  0  0  0  0
  6  7  4  0  0  0  0
  7  8  4  0  0  0  0
  3  8  4  0  0  0  0
  2  9  1  0  0  0  0
  9 10  4  0  0  0  0
 10 11  4  0  0  0  0
 11 12  4  0  0  0  0
 12 13  4  0  0  0  0
 13 14  4  0  0  0  0
  9 14  4  0  0  0  0
  4 15  1  0  0  0  0
  5 16  1  0  0  0  0
  6 17  1  0  0  0  0
  7 18  1  0  0  0  0
  8 19  1  0  0  0  0
 10 20  1  0  0  0  0
 11 21  1  0  0  0  0
 12 22  1  0  0  0  0
 13 23  1  0  0  0  0
 14 24  1  0  0  0  0
M  END
>  <InChIKey>
InChI=1S/C13H10O/c14-13(11-7-3-1-4-8-11)12-9-5-2-6-10-12/h1-10H

>  <CASRN>
119-61-9

> <Outcome>
0

>  <Index>
2751

>  <StandardizerResult>
Dearomatize (ID: Dearomatize)
Clear Stereo (ID: ClearStereo)
Wedge Clean (ID: WedgeClean)
Mesomerize (ID: Mesomerize)
Tautomerize (ID: Tautomerize)
Aromatize (ID: Aromatize)
Add Explicit Hydrogens (ID: AddExplicitH)
Neutralize (ID: Neutralize)
Clean 2D (ID: Clean2D)

> <knn Distance>
2.64575123786926

> <CpId>
2751

$$$$
2880
  Mrv1532301301811342D          

  9  8  0  0  0  0            999 V2000
    2.0625   -0.7145    0.0000 O   0  0  0  0  0  0  0  0  0  0  0  0
    1.2375   -0.7145    0.0000 C   0  0  0  0  0  0  0  0  0  0  0  0
    0.8250   -0.0000    0.0000 C   0  0  0  0  0  0  0  0  0  0  0  0
    0.0000   -0.0000    0.0000 Cl  0  0  0  0  0  0  0  0  0  0  0  0
    2.4750   -1.4290    0.0000 H   0  0  0  0  0  0  0  0  0  0  0  0
    0.5482   -1.1678    0.0000 H   0  0  0  0  0  0  0  0  0  0  0  0
    1.1895   -1.5381    0.0000 H   0  0  0  0  0  0  0  0  0  0  0  0
    1.5143    0.4533    0.0000 H   0  0  0  0  0  0  0  0  0  0  0  0
    0.8730    0.8236    0.0000 H   0  0  0  0  0  0  0  0  0  0  0  0
  1  2  1  0  0  0  0
  2  3  1  0  0  0  0
  3  4  1  0  0  0  0
  1  5  1  0  0  0  0
  2  6  1  0  0  0  0
  2  7  1  0  0  0  0
  3  8  1  0  0  0  0
  3  9  1  0  0  0  0
M  END
>  <InChIKey>
InChI=1S/C2H5ClO/c3-1-2-4/h4H,1-2H2

>  <CASRN>
107-07-3

> <Outcome>
0

>  <Index>
2880

>  <StandardizerResult>
Clear Stereo (ID: ClearStereo)
Wedge Clean (ID: WedgeClean)
Mesomerize (ID: Mesomerize)
Tautomerize (ID: Tautomerize)
Add Explicit Hydrogens (ID: AddExplicitH)
Neutralize (ID: Neutralize)
Clean 2D (ID: Clean2D)

> <knn Distance>
2.64575123786926

> <CpId>
2880

$$$$
2886
  Mrv1532301301811342D          

 44 43  0  0  0  0            999 V2000
    6.7105    4.6993    0.0000 C   0  0  0  0  0  0  0  0  0  0  0  0
    7.4250    4.2868    0.0000 C   0  0  0  0  0  0  0  0  0  0  0  0
    8.1395    4.6993    0.0000 C   0  0  0  0  0  0  0  0  0  0  0  0
    8.8539    4.2868    0.0000 C   0  0  0  0  0  0  0  0  0  0  0  0
    9.5684    4.6993    0.0000 C   0  0  0  0  0  0  0  0  0  0  0  0
   10.2829    4.2868    0.0000 C   0  0  0  0  0  0  0  0  0  0  0  0
   10.9974    4.6993    0.0000 C   0  0  0  0  0  0  0  0  0  0  0  0
   11.7118    4.2868    0.0000 C   0  0  0  0  0  0  0  0  0  0  0  0
   12.4263    4.6993    0.0000 C   0  0  0  0  0  0  0  0  0  0  0  0
   13.1408    4.2868    0.0000 C   0  0  0  0  0  0  0  0  0  0  0  0
   13.8552    4.6993    0.0000 C   0  0  0  0  0  0  0  0  0  0  0  0
   14.5697    4.2868    0.0000 C   0  0  0  0  0  0  0  0  0  0  0  0
   15.2842    4.6993    0.0000 C   0  0  0  0  0  0  0  0  0  0  0  0
   15.9987    4.2868    0.0000 C   0  0  0  0  0  0  0  0  0  0  0  0
   16.7131    4.6993    0.0000 O   0  0  0  0  0  0  0  0  0  0  0  0
   15.9987    3.4618    0.0000 O   0  0  0  0  0  0  0  0  0  0  0  0
    7.1230    5.4138    0.0000 H   0  0  0  0  0  0  0  0  0  0  0  0
    5.9961    5.1118    0.0000 H   0  0  0  0  0  0  0  0  0  0  0  0
    6.2980    3.9848    0.0000 H   0  0  0  0  0  0  0  0  0  0  0  0
    7.0547    3.5496    0.0000 H   0  0  0  0  0  0  0  0  0  0  0  0
    7.7953    3.5496    0.0000 H   0  0  0  0  0  0  0  0  0  0  0  0
    8.5097    5.4365    0.0000 H   0  0  0  0  0  0  0  0  0  0  0  0
    7.7692    5.4365    0.0000 H   0  0  0  0  0  0  0  0  0  0  0  0
    8.4837    3.5496    0.0000 H   0  0  0  0  0  0  0  0  0  0  0  0
    9.2242    3.5496    0.0000 H   0  0  0  0  0  0  0  0  0  0  0  0
    9.9387    5.4365    0.0000 H   0  0  0  0  0  0  0  0  0  0  0  0
    9.1982    5.4365    0.0000 H   0  0  0  0  0  0  0  0  0  0  0  0
    9.9126    3.5496    0.0000 H   0  0  0  0  0  0  0  0  0  0  0  0
   10.6531    3.5496    0.0000 H   0  0  0  0  0  0  0  0  0  0  0  0
   11.3676    5.4365    0.0000 H   0  0  0  0  0  0  0  0  0  0  0  0
   10.6271    5.4365    0.0000 H   0  0  0  0  0  0  0  0  0  0  0  0
   11.3416    3.5496    0.0000 H   0  0  0  0  0  0  0  0  0  0  0  0
   12.0821    3.5496    0.0000 H   0  0  0  0  0  0  0  0  0  0  0  0
   12.7966    5.4365    0.0000 H   0  0  0  0  0  0  0  0  0  0  0  0
   12.0560    5.4365    0.0000 H   0  0  0  0  0  0  0  0  0  0  0  0
   12.7705    3.5496    0.0000 H   0  0  0  0  0  0  0  0  0  0  0  0
   13.5110    3.5496    0.0000 H   0  0  0  0  0  0  0  0  0  0  0  0
   14.2255    5.4365    0.0000 H   0  0  0  0  0  0  0  0  0  0  0  0
   13.4850    5.4365    0.0000 H   0  0  0  0  0  0  0  0  0  0  0  0
   14.1995    3.5496    0.0000 H   0  0  0  0  0  0  0  0  0  0  0  0
   14.9400    3.5496    0.0000 H   0  0  0  0  0  0  0  0  0  0  0  0
   15.6544    5.4365    0.0000 H   0  0  0  0  0  0  0  0  0  0  0  0
   14.9139    5.4365    0.0000 H   0  0  0  0  0  0  0  0  0  0  0  0
   17.4276    4.2868    0.0000 H   0  0  0  0  0  0  0  0  0  0  0  0
  1  2  1  0  0  0  0
  2  3  1  0  0  0  0
  3  4  1  0  0  0  0
  4  5  1  0  0  0  0
  5  6  1  0  0  0  0
  6  7  1  0  0  0  0
  7  8  1  0  0  0  0
  8  9  1  0  0  0  0
  9 10  1  0  0  0  0
 10 11  1  0  0  0  0
 11 12  1  0  0  0  0
 12 13  1  0  0  0  0
 13 14  1  0  0  0  0
 14 15  1  0  0  0  0
 14 16  2  0  0  0  0
  1 17  1  0  0  0  0
  1 18  1  0  0  0  0
  1 19  1  0  0  0  0
  2 20  1  0  0  0  0
  2 21  1  0  0  0  0
  3 22  1  0  0  0  0
  3 23  1  0  0  0  0
  4 24  1  0  0  0  0
  4 25  1  0  0  0  0
  5 26  1  0  0  0  0
  5 27  1  0  0  0  0
  6 28  1  0  0  0  0
  6 29  1  0  0  0  0
  7 30  1  0  0  0  0
  7 31  1  0  0  0  0
  8 32  1  0  0  0  0
  8 33  1  0  0  0  0
  9 34  1  0  0  0  0
  9 35  1  0  0  0  0
 10 36  1  0  0  0  0
 10 37  1  0  0  0  0
 11 38  1  0  0  0  0
 11 39  1  0  0  0  0
 12 40  1  0  0  0  0
 12 41  1  0  0  0  0
 13 42  1  0  0  0  0
 13 43  1  0  0  0  0
 15 44  1  0  0  0  0
M  END
>  <InChIKey>
InChI=1S/C14H28O2/c1-2-3-4-5-6-7-8-9-10-11-12-13-14(15)16/h2-13H2,1H3,(H,15,16)

>  <CASRN>
544-63-8

> <Outcome>
0

>  <Index>
2886

>  <StandardizerResult>
Clear Stereo (ID: ClearStereo)
Wedge Clean (ID: WedgeClean)
Mesomerize (ID: Mesomerize)
Tautomerize (ID: Tautomerize)
Add Explicit Hydrogens (ID: AddExplicitH)
Neutralize (ID: Neutralize)
Clean 2D (ID: Clean2D)

> <knn Distance>
2.64575123786926

> <CpId>
2886

$$$$
2974
  Mrv1532301301811342D          

 14 13  0  0  0  0            999 V2000
    0.8532    1.4673    0.0000 C   0  0  0  0  0  0  0  0  0  0  0  0
    1.2657    0.7529    0.0000 C   0  0  0  0  0  0  0  0  0  0  0  0
    0.8532    0.0384    0.0000 C   0  0  0  0  0  0  0  0  0  0  0  0
    1.2657   -0.6761    0.0000 C   0  0  0  0  0  0  0  0  0  0  0  0
    0.0282    0.0384    0.0000 Br  0  0  0  0  0  0  0  0  0  0  0  0
    1.5677    1.8798    0.0000 H   0  0  0  0  0  0  0  0  0  0  0  0
    0.4407    2.1818    0.0000 H   0  0  0  0  0  0  0  0  0  0  0  0
    0.1387    1.0548    0.0000 H   0  0  0  0  0  0  0  0  0  0  0  0
    2.0029    0.3826    0.0000 H   0  0  0  0  0  0  0  0  0  0  0  0
    2.0029    1.1231    0.0000 H   0  0  0  0  0  0  0  0  0  0  0  0
    1.6782    0.0384    0.0000 H   0  0  0  0  0  0  0  0  0  0  0  0
    0.4688   -0.8896    0.0000 H   0  0  0  0  0  0  0  0  0  0  0  0
    1.2657   -1.5011    0.0000 H   0  0  0  0  0  0  0  0  0  0  0  0
    2.0626   -0.8896    0.0000 H   0  0  0  0  0  0  0  0  0  0  0  0
  1  2  1  0  0  0  0
  2  3  1  0  0  0  0
  3  4  1  0  0  0  0
  3  5  1  0  0  0  0
  1  6  1  0  0  0  0
  1  7  1  0  0  0  0
  1  8  1  0  0  0  0
  2  9  1  0  0  0  0
  2 10  1  0  0  0  0
  3 11  1  0  0  0  0
  4 12  1  0  0  0  0
  4 13  1  0  0  0  0
  4 14  1  0  0  0  0
M  END
>  <InChIKey>
InChI=1S/C4H9Br/c1-3-4(2)5/h4H,3H2,1-2H3

>  <UN GHS>
Non-irritant

>  <CASRN>
78-76-2

> <Outcome>
0

>  <Index>
2974

>  <StandardizerResult>
Clear Stereo (ID: ClearStereo)
Wedge Clean (ID: WedgeClean)
Mesomerize (ID: Mesomerize)
Tautomerize (ID: Tautomerize)
Add Explicit Hydrogens (ID: AddExplicitH)
Neutralize (ID: Neutralize)
Clean 2D (ID: Clean2D)

> <knn Distance>
2.64575123786926

> <CpId>
2974

$$$$
3061
  Mrv1532301301811342D          

 23 22  0  0  0  0            999 V2000
   -0.2336    0.7442    0.0000 C   0  0  0  0  0  0  0  0  0  0  0  0
    0.4809    1.1567    0.0000 C   0  0  0  0  0  0  0  0  0  0  0  0
    1.1954    0.7442    0.0000 C   0  0  0  0  0  0  0  0  0  0  0  0
    1.9098    1.1567    0.0000 C   0  0  0  0  0  0  0  0  0  0  0  0
    1.9098    1.9817    0.0000 C   0  0  0  0  0  0  0  0  0  0  0  0
    2.6243    0.7442    0.0000 C   0  0  0  0  0  0  0  0  0  0  0  0
    3.3388    1.1567    0.0000 C   0  0  0  0  0  0  0  0  0  0  0  0
   -0.6461    1.4587    0.0000 H   0  0  0  0  0  0  0  0  0  0  0  0
   -0.9480    0.3317    0.0000 H   0  0  0  0  0  0  0  0  0  0  0  0
    0.1789    0.0297    0.0000 H   0  0  0  0  0  0  0  0  0  0  0  0
    0.8512    1.8940    0.0000 H   0  0  0  0  0  0  0  0  0  0  0  0
    0.1106    1.8940    0.0000 H   0  0  0  0  0  0  0  0  0  0  0  0
    0.8251    0.0070    0.0000 H   0  0  0  0  0  0  0  0  0  0  0  0
    1.5656    0.0070    0.0000 H   0  0  0  0  0  0  0  0  0  0  0  0
    1.1954    1.5692    0.0000 H   0  0  0  0  0  0  0  0  0  0  0  0
    2.7067    1.7682    0.0000 H   0  0  0  0  0  0  0  0  0  0  0  0
    2.3223    2.6962    0.0000 H   0  0  0  0  0  0  0  0  0  0  0  0
    1.3265    2.5651    0.0000 H   0  0  0  0  0  0  0  0  0  0  0  0
    2.2541    0.0070    0.0000 H   0  0  0  0  0  0  0  0  0  0  0  0
    2.9946    0.0070    0.0000 H   0  0  0  0  0  0  0  0  0  0  0  0
    3.5031    0.3482    0.0000 H   0  0  0  0  0  0  0  0  0  0  0  0
    4.1576    1.0558    0.0000 H   0  0  0  0  0  0  0  0  0  0  0  0
    3.6945    1.9011    0.0000 H   0  0  0  0  0  0  0  0  0  0  0  0
  1  2  1  0  0  0  0
  2  3  1  0  0  0  0
  3  4  1  0  0  0  0
  4  5  1  0  0  0  0
  4  6  1  0  0  0  0
  6  7  1  0  0  0  0
  1  8  1  0  0  0  0
  1  9  1  0  0  0  0
  1 10  1  0  0  0  0
  2 11  1  0  0  0  0
  2 12  1  0  0  0  0
  3 13  1  0  0  0  0
  3 14  1  0  0  0  0
  4 15  1  0  0  0  0
  5 16  1  0  0  0  0
  5 17  1  0  0  0  0
  5 18  1  0  0  0  0
  6 19  1  0  0  0  0
  6 20  1  0  0  0  0
  7 21  1  0  0  0  0
  7 22  1  0  0  0  0
  7 23  1  0  0  0  0
M  END
>  <InChIKey>
InChI=1S/C7H16/c1-4-6-7(3)5-2/h7H,4-6H2,1-3H3

>  <UN GHS>
Non-irritant

>  <CASRN>
589-34-4  589-34-4

> <Outcome>
0

>  <Index>
3061

>  <StandardizerResult>
Clear Stereo (ID: ClearStereo)
Wedge Clean (ID: WedgeClean)
Mesomerize (ID: Mesomerize)
Tautomerize (ID: Tautomerize)
Add Explicit Hydrogens (ID: AddExplicitH)
Neutralize (ID: Neutralize)
Clean 2D (ID: Clean2D)

> <knn Distance>
2.64575123786926

> <CpId>
3061

$$$$
3067
  Mrv1532301301811342D          

 26 25  0  0  0  0            999 V2000
    2.9980    2.5566    0.0000 C   0  0  0  0  0  0  0  0  0  0  0  0
    3.7125    2.1441    0.0000 C   0  0  0  0  0  0  0  0  0  0  0  0
    4.4270    2.5566    0.0000 C   0  0  0  0  0  0  0  0  0  0  0  0
    5.1414    2.1441    0.0000 C   0  0  0  0  0  0  0  0  0  0  0  0
    5.8559    2.5566    0.0000 C   0  0  0  0  0  0  0  0  0  0  0  0
    6.5704    2.1441    0.0000 C   0  0  0  0  0  0  0  0  0  0  0  0
    7.2849    2.5566    0.0000 C   0  0  0  0  0  0  0  0  0  0  0  0
    7.9993    2.1441    0.0000 C   0  0  0  0  0  0  0  0  0  0  0  0
    8.7138    2.5566    0.0000 Br  0  0  0  0  0  0  0  0  0  0  0  0
    3.4105    3.2710    0.0000 H   0  0  0  0  0  0  0  0  0  0  0  0
    2.2836    2.9691    0.0000 H   0  0  0  0  0  0  0  0  0  0  0  0
    2.5855    1.8421    0.0000 H   0  0  0  0  0  0  0  0  0  0  0  0
    3.3422    1.4068    0.0000 H   0  0  0  0  0  0  0  0  0  0  0  0
    4.0828    1.4068    0.0000 H   0  0  0  0  0  0  0  0  0  0  0  0
    4.7972    3.2938    0.0000 H   0  0  0  0  0  0  0  0  0  0  0  0
    4.0567    3.2938    0.0000 H   0  0  0  0  0  0  0  0  0  0  0  0
    4.7712    1.4068    0.0000 H   0  0  0  0  0  0  0  0  0  0  0  0
    5.5117    1.4068    0.0000 H   0  0  0  0  0  0  0  0  0  0  0  0
    6.2262    3.2938    0.0000 H   0  0  0  0  0  0  0  0  0  0  0  0
    5.4857    3.2938    0.0000 H   0  0  0  0  0  0  0  0  0  0  0  0
    6.2001    1.4068    0.0000 H   0  0  0  0  0  0  0  0  0  0  0  0
    6.9406    1.4068    0.0000 H   0  0  0  0  0  0  0  0  0  0  0  0
    7.6551    3.2938    0.0000 H   0  0  0  0  0  0  0  0  0  0  0  0
    6.9146    3.2938    0.0000 H   0  0  0  0  0  0  0  0  0  0  0  0
    7.6291    1.4068    0.0000 H   0  0  0  0  0  0  0  0  0  0  0  0
    8.3696    1.4068    0.0000 H   0  0  0  0  0  0  0  0  0  0  0  0
  1  2  1  0  0  0  0
  2  3  1  0  0  0  0
  3  4  1  0  0  0  0
  4  5  1  0  0  0  0
  5  6  1  0  0  0  0
  6  7  1  0  0  0  0
  7  8  1  0  0  0  0
  8  9  1  0  0  0  0
  1 10  1  0  0  0  0
  1 11  1  0  0  0  0
  1 12  1  0  0  0  0
  2 13  1  0  0  0  0
  2 14  1  0  0  0  0
  3 15  1  0  0  0  0
  3 16  1  0  0  0  0
  4 17  1  0  0  0  0
  4 18  1  0  0  0  0
  5 19  1  0  0  0  0
  5 20  1  0  0  0  0
  6 21  1  0  0  0  0
  6 22  1  0  0  0  0
  7 23  1  0  0  0  0
  7 24  1  0  0  0  0
  8 25  1  0  0  0  0
  8 26  1  0  0  0  0
M  END
>  <InChIKey>
InChI=1S/C8H17Br/c1-2-3-4-5-6-7-8-9/h2-8H2,1H3

>  <UN GHS>
Non-irritant

>  <CASRN>
111-83-1

> <Outcome>
0

>  <Index>
3067

>  <StandardizerResult>
Clear Stereo (ID: ClearStereo)
Wedge Clean (ID: WedgeClean)
Mesomerize (ID: Mesomerize)
Tautomerize (ID: Tautomerize)
Add Explicit Hydrogens (ID: AddExplicitH)
Neutralize (ID: Neutralize)
Clean 2D (ID: Clean2D)

> <knn Distance>
2.64575123786926

> <CpId>
3067

$$$$
3156
  Mrv1532301301811342D          

 25 24  0  0  0  0            999 V2000
    0.7860   -1.4393    0.0000 C   0  0  0  0  0  0  0  0  0  0  0  0
    1.1985   -2.1537    0.0000 C   0  0  0  0  0  0  0  0  0  0  0  0
    2.0235   -2.1537    0.0000 C   0  0  0  0  0  0  0  0  0  0  0  0
    2.4360   -2.8682    0.0000 C   0  0  0  0  0  0  0  0  0  0  0  0
    3.2610   -2.8682    0.0000 C   0  0  0  0  0  0  0  0  0  0  0  0
    3.6735   -3.5827    0.0000 C   0  0  0  0  0  0  0  0  0  0  0  0
    4.4985   -3.5827    0.0000 C   0  0  0  0  0  0  0  0  0  0  0  0
    3.6735   -2.1537    0.0000 C   0  0  0  0  0  0  0  0  0  0  0  0
    3.2610   -1.4393    0.0000 Cl  0  0  0  0  0  0  0  0  0  0  0  0
    4.4985   -2.1537    0.0000 O   0  0  0  0  0  0  0  0  0  0  0  0
    1.5005   -1.0268    0.0000 H   0  0  0  0  0  0  0  0  0  0  0  0
    0.3735   -0.7248    0.0000 H   0  0  0  0  0  0  0  0  0  0  0  0
    0.0716   -1.8518    0.0000 H   0  0  0  0  0  0  0  0  0  0  0  0
    0.5093   -2.6071    0.0000 H   0  0  0  0  0  0  0  0  0  0  0  0
    1.1506   -2.9773    0.0000 H   0  0  0  0  0  0  0  0  0  0  0  0
    2.7128   -1.7004    0.0000 H   0  0  0  0  0  0  0  0  0  0  0  0
    2.0715   -1.3301    0.0000 H   0  0  0  0  0  0  0  0  0  0  0  0
    1.7468   -3.3215    0.0000 H   0  0  0  0  0  0  0  0  0  0  0  0
    2.3881   -3.6918    0.0000 H   0  0  0  0  0  0  0  0  0  0  0  0
    2.8485   -3.5827    0.0000 H   0  0  0  0  0  0  0  0  0  0  0  0
    3.3914   -4.3579    0.0000 H   0  0  0  0  0  0  0  0  0  0  0  0
    3.9557   -4.3579    0.0000 H   0  0  0  0  0  0  0  0  0  0  0  0
    5.0425   -4.2029    0.0000 H   0  0  0  0  0  0  0  0  0  0  0  0
    5.2303   -3.2017    0.0000 H   0  0  0  0  0  0  0  0  0  0  0  0
    4.3024   -2.7813    0.0000 H   0  0  0  0  0  0  0  0  0  0  0  0
  1  2  1  0  0  0  0
  2  3  1  0  0  0  0
  3  4  1  0  0  0  0
  4  5  1  0  0  0  0
  5  6  1  0  0  0  0
  6  7  1  0  0  0  0
  5  8  1  0  0  0  0
  8  9  1  0  0  0  0
  8 10  2  0  0  0  0
  1 11  1  0  0  0  0
  1 12  1  0  0  0  0
  1 13  1  0  0  0  0
  2 14  1  0  0  0  0
  2 15  1  0  0  0  0
  3 16  1  0  0  0  0
  3 17  1  0  0  0  0
  4 18  1  0  0  0  0
  4 19  1  0  0  0  0
  5 20  1  0  0  0  0
  6 21  1  0  0  0  0
  6 22  1  0  0  0  0
  7 23  1  0  0  0  0
  7 24  1  0  0  0  0
  7 25  1  0  0  0  0
M  END
>  <InChIKey>
InChI=1S/C8H15ClO/c1-3-5-6-7(4-2)8(9)10/h7H,3-6H2,1-2H3

>  <UN GHS>
Non-irritant

>  <CASRN>
760-67-8

> <Outcome>
0

>  <Index>
3156

>  <StandardizerResult>
Clear Stereo (ID: ClearStereo)
Wedge Clean (ID: WedgeClean)
Mesomerize (ID: Mesomerize)
Tautomerize (ID: Tautomerize)
Add Explicit Hydrogens (ID: AddExplicitH)
Neutralize (ID: Neutralize)
Clean 2D (ID: Clean2D)

> <knn Distance>
2.64575123786926

> <CpId>
3156

$$$$
3439
  Mrv1532301301811342D          

 17 16  0  0  0  0            999 V2000
   -0.1914    0.7145    0.0000 C   0  0  0  0  0  0  0  0  0  0  0  0
    0.5230    1.1270    0.0000 C   0  0  0  0  0  0  0  0  0  0  0  0
    1.2375    0.7145    0.0000 C   0  0  0  0  0  0  0  0  0  0  0  0
    1.9520    1.1270    0.0000 C   0  0  0  0  0  0  0  0  0  0  0  0
    2.6664    0.7145    0.0000 C   0  0  0  0  0  0  0  0  0  0  0  0
    3.3809    1.1270    0.0000 Br  0  0  0  0  0  0  0  0  0  0  0  0
   -0.6039    1.4290    0.0000 H   0  0  0  0  0  0  0  0  0  0  0  0
   -0.9059    0.3020    0.0000 H   0  0  0  0  0  0  0  0  0  0  0  0
    0.2211    0.0000    0.0000 H   0  0  0  0  0  0  0  0  0  0  0  0
    0.8933    1.8642    0.0000 H   0  0  0  0  0  0  0  0  0  0  0  0
    0.1528    1.8642    0.0000 H   0  0  0  0  0  0  0  0  0  0  0  0
    0.8672   -0.0227    0.0000 H   0  0  0  0  0  0  0  0  0  0  0  0
    1.6078   -0.0227    0.0000 H   0  0  0  0  0  0  0  0  0  0  0  0
    2.3222    1.8642    0.0000 H   0  0  0  0  0  0  0  0  0  0  0  0
    1.5817    1.8642    0.0000 H   0  0  0  0  0  0  0  0  0  0  0  0
    2.2962   -0.0227    0.0000 H   0  0  0  0  0  0  0  0  0  0  0  0
    3.0367   -0.0227    0.0000 H   0  0  0  0  0  0  0  0  0  0  0  0
  1  2  1  0  0  0  0
  2  3  1  0  0  0  0
  3  4  1  0  0  0  0
  4  5  1  0  0  0  0
  5  6  1  0  0  0  0
  1  7  1  0  0  0  0
  1  8  1  0  0  0  0
  1  9  1  0  0  0  0
  2 10  1  0  0  0  0
  2 11  1  0  0  0  0
  3 12  1  0  0  0  0
  3 13  1  0  0  0  0
  4 14  1  0  0  0  0
  4 15  1  0  0  0  0
  5 16  1  0  0  0  0
  5 17  1  0  0  0  0
M  END
>  <InChIKey>
InChI=1S/C5H11Br/c1-2-3-4-5-6/h2-5H2,1H3

>  <UN GHS>
Non-irritant

>  <CASRN>
110-53-2

> <Outcome>
0

>  <Index>
3439

>  <StandardizerResult>
Clear Stereo (ID: ClearStereo)
Wedge Clean (ID: WedgeClean)
Mesomerize (ID: Mesomerize)
Tautomerize (ID: Tautomerize)
Add Explicit Hydrogens (ID: AddExplicitH)
Neutralize (ID: Neutralize)
Clean 2D (ID: Clean2D)

> <knn Distance>
2.64575123786926

> <CpId>
3439

$$$$
3476
  Mrv1532301301811342D          

 23 24  0  0  0  0            999 V2000
    0.0000   -1.6500    0.0000 C   0  0  0  0  0  0  0  0  0  0  0  0
    0.7145   -1.2375    0.0000 C   0  0  0  0  0  0  0  0  0  0  0  0
    0.7145   -0.4125    0.0000 C   0  0  0  0  0  0  0  0  0  0  0  0
    1.4289   -0.0000    0.0000 C   0  0  0  0  0  0  0  0  0  0  0  0
    1.4289    0.8250    0.0000 O   0  0  0  0  0  0  0  0  0  0  0  0
    2.1434   -0.4125    0.0000 C   0  0  0  0  0  0  0  0  0  0  0  0
    2.8579   -0.0000    0.0000 C   0  0  0  0  0  0  0  0  0  0  0  0
    3.5724   -0.4125    0.0000 C   0  0  0  0  0  0  0  0  0  0  0  0
    3.5724   -1.2375    0.0000 C   0  0  0  0  0  0  0  0  0  0  0  0
    2.8579   -1.6500    0.0000 C   0  0  0  0  0  0  0  0  0  0  0  0
    2.1434   -1.2375    0.0000 C   0  0  0  0  0  0  0  0  0  0  0  0
    1.4289   -1.6500    0.0000 C   0  0  0  0  0  0  0  0  0  0  0  0
    1.4289   -2.4750    0.0000 O   0  0  0  0  0  0  0  0  0  0  0  0
   -0.4125   -0.9355    0.0000 H   0  0  0  0  0  0  0  0  0  0  0  0
   -0.7145   -2.0625    0.0000 H   0  0  0  0  0  0  0  0  0  0  0  0
    0.4125   -2.3645    0.0000 H   0  0  0  0  0  0  0  0  0  0  0  0
    0.0000   -0.0000    0.0000 H   0  0  0  0  0  0  0  0  0  0  0  0
    2.1434    1.2375    0.0000 H   0  0  0  0  0  0  0  0  0  0  0  0
    2.8579    0.8250    0.0000 H   0  0  0  0  0  0  0  0  0  0  0  0
    4.2868   -0.0000    0.0000 H   0  0  0  0  0  0  0  0  0  0  0  0
    4.2868   -1.6500    0.0000 H   0  0  0  0  0  0  0  0  0  0  0  0
    2.8579   -2.4750    0.0000 H   0  0  0  0  0  0  0  0  0  0  0  0
    0.7145   -2.8875    0.0000 H   0  0  0  0  0  0  0  0  0  0  0  0
  1  2  1  0  0  0  0
  2  3  4  0  0  0  0
  3  4  4  0  0  0  0
  4  5  1  0  0  0  0
  4  6  4  0  0  0  0
  6  7  4  0  0  0  0
  7  8  4  0  0  0  0
  8  9  4  0  0  0  0
  9 10  4  0  0  0  0
 10 11  4  0  0  0  0
  6 11  4  0  0  0  0
 11 12  4  0  0  0  0
  2 12  4  0  0  0  0
 12 13  1  0  0  0  0
  1 14  1  0  0  0  0
  1 15  1  0  0  0  0
  1 16  1  0  0  0  0
  3 17  1  0  0  0  0
  5 18  1  0  0  0  0
  7 19  1  0  0  0  0
  8 20  1  0  0  0  0
  9 21  1  0  0  0  0
 10 22  1  0  0  0  0
 13 23  1  0  0  0  0
M  END
>  <InChIKey>
InChI=1S/C11H10O2/c1-7-6-10(12)8-4-2-3-5-9(8)11(7)13/h2-6,12-13H,1H3

>  <CASRN>
481-85-6

> <Outcome>
0

>  <Index>
3476

>  <StandardizerResult>
Dearomatize (ID: Dearomatize)
Clear Stereo (ID: ClearStereo)
Wedge Clean (ID: WedgeClean)
Mesomerize (ID: Mesomerize)
Tautomerize (ID: Tautomerize)
Aromatize (ID: Aromatize)
Add Explicit Hydrogens (ID: AddExplicitH)
Neutralize (ID: Neutralize)
Clean 2D (ID: Clean2D)

> <knn Distance>
2.64575123786926

> <CpId>
3476

$$$$
3499
  Mrv1532301301811342D          

 46 45  0  0  0  0            999 V2000
    5.9961    4.2864    0.0000 C   0  0  0  0  0  0  0  0  0  0  0  0
    6.7105    4.6989    0.0000 C   0  0  0  0  0  0  0  0  0  0  0  0
    7.4250    4.2864    0.0000 C   0  0  0  0  0  0  0  0  0  0  0  0
    8.1395    4.6989    0.0000 C   0  0  0  0  0  0  0  0  0  0  0  0
    8.8539    4.2864    0.0000 C   0  0  0  0  0  0  0  0  0  0  0  0
    9.5684    4.6989    0.0000 C   0  0  0  0  0  0  0  0  0  0  0  0
   10.2829    4.2864    0.0000 C   0  0  0  0  0  0  0  0  0  0  0  0
   10.9974    4.6989    0.0000 C   0  0  0  0  0  0  0  0  0  0  0  0
   11.7118    4.2864    0.0000 C   0  0  0  0  0  0  0  0  0  0  0  0
   12.4263    4.6989    0.0000 C   0  0  0  0  0  0  0  0  0  0  0  0
   13.1408    4.2864    0.0000 C   0  0  0  0  0  0  0  0  0  0  0  0
   13.8552    4.6989    0.0000 C   0  0  0  0  0  0  0  0  0  0  0  0
   14.5697    4.2864    0.0000 S   0  0  0  0  0  0  0  0  0  0  0  0
   15.2842    4.6989    0.0000 C   0  0  0  0  0  0  0  0  0  0  0  0
   15.9987    4.2864    0.0000 C   0  0  0  0  0  0  0  0  0  0  0  0
   16.7131    4.6989    0.0000 O   0  0  0  0  0  0  0  0  0  0  0  0
    5.5836    5.0009    0.0000 H   0  0  0  0  0  0  0  0  0  0  0  0
    5.2816    3.8739    0.0000 H   0  0  0  0  0  0  0  0  0  0  0  0
    6.4086    3.5719    0.0000 H   0  0  0  0  0  0  0  0  0  0  0  0
    7.0808    5.4362    0.0000 H   0  0  0  0  0  0  0  0  0  0  0  0
    6.3403    5.4362    0.0000 H   0  0  0  0  0  0  0  0  0  0  0  0
    7.0547    3.5492    0.0000 H   0  0  0  0  0  0  0  0  0  0  0  0
    7.7953    3.5492    0.0000 H   0  0  0  0  0  0  0  0  0  0  0  0
    8.5097    5.4362    0.0000 H   0  0  0  0  0  0  0  0  0  0  0  0
    7.7692    5.4362    0.0000 H   0  0  0  0  0  0  0  0  0  0  0  0
    8.4837    3.5492    0.0000 H   0  0  0  0  0  0  0  0  0  0  0  0
    9.2242    3.5492    0.0000 H   0  0  0  0  0  0  0  0  0  0  0  0
    9.9387    5.4362    0.0000 H   0  0  0  0  0  0  0  0  0  0  0  0
    9.1982    5.4362    0.0000 H   0  0  0  0  0  0  0  0  0  0  0  0
    9.9126    3.5492    0.0000 H   0  0  0  0  0  0  0  0  0  0  0  0
   10.6531    3.5492    0.0000 H   0  0  0  0  0  0  0  0  0  0  0  0
   11.3676    5.4362    0.0000 H   0  0  0  0  0  0  0  0  0  0  0  0
   10.6271    5.4362    0.0000 H   0  0  0  0  0  0  0  0  0  0  0  0
   11.3416    3.5492    0.0000 H   0  0  0  0  0  0  0  0  0  0  0  0
   12.0821    3.5492    0.0000 H   0  0  0  0  0  0  0  0  0  0  0  0
   12.7966    5.4362    0.0000 H   0  0  0  0  0  0  0  0  0  0  0  0
   12.0560    5.4362    0.0000 H   0  0  0  0  0  0  0  0  0  0  0  0
   12.7705    3.5492    0.0000 H   0  0  0  0  0  0  0  0  0  0  0  0
   13.5110    3.5492    0.0000 H   0  0  0  0  0  0  0  0  0  0  0  0
   14.2255    5.4362    0.0000 H   0  0  0  0  0  0  0  0  0  0  0  0
   13.4850    5.4362    0.0000 H   0  0  0  0  0  0  0  0  0  0  0  0
   15.6544    5.4362    0.0000 H   0  0  0  0  0  0  0  0  0  0  0  0
   14.9139    5.4362    0.0000 H   0  0  0  0  0  0  0  0  0  0  0  0
   15.6284    3.5492    0.0000 H   0  0  0  0  0  0  0  0  0  0  0  0
   16.3689    3.5492    0.0000 H   0  0  0  0  0  0  0  0  0  0  0  0
   17.4276    4.2864    0.0000 H   0  0  0  0  0  0  0  0  0  0  0  0
  1  2  1  0  0  0  0
  2  3  1  0  0  0  0
  3  4  1  0  0  0  0
  4  5  1  0  0  0  0
  5  6  1  0  0  0  0
  6  7  1  0  0  0  0
  7  8  1  0  0  0  0
  8  9  1  0  0  0  0
  9 10  1  0  0  0  0
 10 11  1  0  0  0  0
 11 12  1  0  0  0  0
 12 13  1  0  0  0  0
 13 14  1  0  0  0  0
 14 15  1  0  0  0  0
 15 16  1  0  0  0  0
  1 17  1  0  0  0  0
  1 18  1  0  0  0  0
  1 19  1  0  0  0  0
  2 20  1  0  0  0  0
  2 21  1  0  0  0  0
  3 22  1  0  0  0  0
  3 23  1  0  0  0  0
  4 24  1  0  0  0  0
  4 25  1  0  0  0  0
  5 26  1  0  0  0  0
  5 27  1  0  0  0  0
  6 28  1  0  0  0  0
  6 29  1  0  0  0  0
  7 30  1  0  0  0  0
  7 31  1  0  0  0  0
  8 32  1  0  0  0  0
  8 33  1  0  0  0  0
  9 34  1  0  0  0  0
  9 35  1  0  0  0  0
 10 36  1  0  0  0  0
 10 37  1  0  0  0  0
 11 38  1  0  0  0  0
 11 39  1  0  0  0  0
 12 40  1  0  0  0  0
 12 41  1  0  0  0  0
 14 42  1  0  0  0  0
 14 43  1  0  0  0  0
 15 44  1  0  0  0  0
 15 45  1  0  0  0  0
 16 46  1  0  0  0  0
M  END
>  <InChIKey>
InChI=1S/C14H30OS/c1-2-3-4-5-6-7-8-9-10-11-13-16-14-12-15/h15H,2-14H2,1H3

>  <UN GHS>
Non-irritant

>  <CASRN>
1462-55-1

> <Outcome>
0

>  <Index>
3499

>  <StandardizerResult>
Clear Stereo (ID: ClearStereo)
Wedge Clean (ID: WedgeClean)
Mesomerize (ID: Mesomerize)
Tautomerize (ID: Tautomerize)
Add Explicit Hydrogens (ID: AddExplicitH)
Neutralize (ID: Neutralize)
Clean 2D (ID: Clean2D)

> <knn Distance>
2.64575123786926

> <CpId>
3499

$$$$
3504
  Mrv1532301301811342D          

 65 64  0  0  0  0            999 V2000
   10.4148    6.8490    0.0000 C   0  0  0  0  0  0  0  0  0  0  0  0
   11.1292    6.4365    0.0000 C   0  0  0  0  0  0  0  0  0  0  0  0
   11.8437    6.8490    0.0000 C   0  0  0  0  0  0  0  0  0  0  0  0
   12.5582    6.4365    0.0000 C   0  0  0  0  0  0  0  0  0  0  0  0
   13.2726    6.8490    0.0000 C   0  0  0  0  0  0  0  0  0  0  0  0
   13.9871    6.4365    0.0000 C   0  0  0  0  0  0  0  0  0  0  0  0
   14.7016    6.8490    0.0000 C   0  0  0  0  0  0  0  0  0  0  0  0
   15.4161    6.4365    0.0000 C   0  0  0  0  0  0  0  0  0  0  0  0
   16.1305    6.8490    0.0000 C   0  0  0  0  0  0  0  0  0  0  0  0
   16.8450    6.4365    0.0000 C   0  0  0  0  0  0  0  0  0  0  0  0
   17.5595    6.8490    0.0000 C   0  0  0  0  0  0  0  0  0  0  0  0
   18.2739    6.4365    0.0000 C   0  0  0  0  0  0  0  0  0  0  0  0
   18.9884    6.8490    0.0000 C   0  0  0  0  0  0  0  0  0  0  0  0
   19.7029    6.4365    0.0000 C   0  0  0  0  0  0  0  0  0  0  0  0
   20.4174    6.8490    0.0000 C   0  0  0  0  0  0  0  0  0  0  0  0
   21.1318    6.4365    0.0000 C   0  0  0  0  0  0  0  0  0  0  0  0
   21.8463    6.8490    0.0000 C   0  0  0  0  0  0  0  0  0  0  0  0
   22.5608    6.4365    0.0000 C   0  0  0  0  0  0  0  0  0  0  0  0
   22.5608    5.6115    0.0000 O   0  0  0  0  0  0  0  0  0  0  0  0
   23.2752    6.8490    0.0000 O   0  0  0  0  0  0  0  0  0  0  0  0
   23.9897    6.4365    0.0000 C   0  0  0  0  0  0  0  0  0  0  0  0
   24.7042    6.8490    0.0000 C   0  0  0  0  0  0  0  0  0  0  0  0
   23.9897    5.6115    0.0000 C   0  0  0  0  0  0  0  0  0  0  0  0
   10.8273    7.5635    0.0000 H   0  0  0  0  0  0  0  0  0  0  0  0
    9.7003    7.2615    0.0000 H   0  0  0  0  0  0  0  0  0  0  0  0
   10.0023    6.1346    0.0000 H   0  0  0  0  0  0  0  0  0  0  0  0
   10.7590    5.6993    0.0000 H   0  0  0  0  0  0  0  0  0  0  0  0
   11.4995    5.6993    0.0000 H   0  0  0  0  0  0  0  0  0  0  0  0
   12.2140    7.5863    0.0000 H   0  0  0  0  0  0  0  0  0  0  0  0
   11.4734    7.5863    0.0000 H   0  0  0  0  0  0  0  0  0  0  0  0
   12.1879    5.6993    0.0000 H   0  0  0  0  0  0  0  0  0  0  0  0
   12.9284    5.6993    0.0000 H   0  0  0  0  0  0  0  0  0  0  0  0
   13.6429    7.5863    0.0000 H   0  0  0  0  0  0  0  0  0  0  0  0
   12.9024    7.5863    0.0000 H   0  0  0  0  0  0  0  0  0  0  0  0
   13.6169    5.6993    0.0000 H   0  0  0  0  0  0  0  0  0  0  0  0
   14.3574    5.6993    0.0000 H   0  0  0  0  0  0  0  0  0  0  0  0
   15.0718    7.5863    0.0000 H   0  0  0  0  0  0  0  0  0  0  0  0
   14.3313    7.5863    0.0000 H   0  0  0  0  0  0  0  0  0  0  0  0
   15.0458    5.6993    0.0000 H   0  0  0  0  0  0  0  0  0  0  0  0
   15.7863    5.6993    0.0000 H   0  0  0  0  0  0  0  0  0  0  0  0
   16.5008    7.5863    0.0000 H   0  0  0  0  0  0  0  0  0  0  0  0
   15.7603    7.5863    0.0000 H   0  0  0  0  0  0  0  0  0  0  0  0
   16.4747    5.6993    0.0000 H   0  0  0  0  0  0  0  0  0  0  0  0
   17.2153    5.6993    0.0000 H   0  0  0  0  0  0  0  0  0  0  0  0
   17.9297    7.5863    0.0000 H   0  0  0  0  0  0  0  0  0  0  0  0
   17.1892    7.5863    0.0000 H   0  0  0  0  0  0  0  0  0  0  0  0
   17.9037    5.6993    0.0000 H   0  0  0  0  0  0  0  0  0  0  0  0
   18.6442    5.6993    0.0000 H   0  0  0  0  0  0  0  0  0  0  0  0
   19.3587    7.5863    0.0000 H   0  0  0  0  0  0  0  0  0  0  0  0
   18.6182    7.5863    0.0000 H   0  0  0  0  0  0  0  0  0  0  0  0
   19.3326    5.6993    0.0000 H   0  0  0  0  0  0  0  0  0  0  0  0
   20.0731    5.6993    0.0000 H   0  0  0  0  0  0  0  0  0  0  0  0
   20.7876    7.5863    0.0000 H   0  0  0  0  0  0  0  0  0  0  0  0
   20.0471    7.5863    0.0000 H   0  0  0  0  0  0  0  0  0  0  0  0
   20.7616    5.6993    0.0000 H   0  0  0  0  0  0  0  0  0  0  0  0
   21.5021    5.6993    0.0000 H   0  0  0  0  0  0  0  0  0  0  0  0
   22.2166    7.5863    0.0000 H   0  0  0  0  0  0  0  0  0  0  0  0
   21.4760    7.5863    0.0000 H   0  0  0  0  0  0  0  0  0  0  0  0
   23.9897    7.2615    0.0000 H   0  0  0  0  0  0  0  0  0  0  0  0
   24.9177    6.0522    0.0000 H   0  0  0  0  0  0  0  0  0  0  0  0
   25.5292    6.8490    0.0000 H   0  0  0  0  0  0  0  0  0  0  0  0
   24.9177    7.6459    0.0000 H   0  0  0  0  0  0  0  0  0  0  0  0
   23.1647    5.6115    0.0000 H   0  0  0  0  0  0  0  0  0  0  0  0
   23.9897    4.7865    0.0000 H   0  0  0  0  0  0  0  0  0  0  0  0
   24.8147    5.6115    0.0000 H   0  0  0  0  0  0  0  0  0  0  0  0
  1  2  1  0  0  0  0
  2  3  1  0  0  0  0
  3  4  1  0  0  0  0
  4  5  1  0  0  0  0
  5  6  1  0  0  0  0
  6  7  1  0  0  0  0
  7  8  1  0  0  0  0
  8  9  1  0  0  0  0
  9 10  1  0  0  0  0
 10 11  1  0  0  0  0
 11 12  1  0  0  0  0
 12 13  1  0  0  0  0
 13 14  1  0  0  0  0
 14 15  1  0  0  0  0
 15 16  1  0  0  0  0
 16 17  1  0  0  0  0
 17 18  1  0  0  0  0
 18 19  2  0  0  0  0
 18 20  1  0  0  0  0
 20 21  1  0  0  0  0
 21 22  1  0  0  0  0
 21 23  1  0  0  0  0
  1 24  1  0  0  0  0
  1 25  1  0  0  0  0
  1 26  1  0  0  0  0
  2 27  1  0  0  0  0
  2 28  1  0  0  0  0
  3 29  1  0  0  0  0
  3 30  1  0  0  0  0
  4 31  1  0  0  0  0
  4 32  1  0  0  0  0
  5 33  1  0  0  0  0
  5 34  1  0  0  0  0
  6 35  1  0  0  0  0
  6 36  1  0  0  0  0
  7 37  1  0  0  0  0
  7 38  1  0  0  0  0
  8 39  1  0  0  0  0
  8 40  1  0  0  0  0
  9 41  1  0  0  0  0
  9 42  1  0  0  0  0
 10 43  1  0  0  0  0
 10 44  1  0  0  0  0
 11 45  1  0  0  0  0
 11 46  1  0  0  0  0
 12 47  1  0  0  0  0
 12 48  1  0  0  0  0
 13 49  1  0  0  0  0
 13 50  1  0  0  0  0
 14 51  1  0  0  0  0
 14 52  1  0  0  0  0
 15 53  1  0  0  0  0
 15 54  1  0  0  0  0
 16 55  1  0  0  0  0
 16 56  1  0  0  0  0
 17 57  1  0  0  0  0
 17 58  1  0  0  0  0
 21 59  1  0  0  0  0
 22 60  1  0  0  0  0
 22 61  1  0  0  0  0
 22 62  1  0  0  0  0
 23 63  1  0  0  0  0
 23 64  1  0  0  0  0
 23 65  1  0  0  0  0
M  END
>  <InChIKey>
InChI=1S/C21H42O2/c1-4-5-6-7-8-9-10-11-12-13-14-15-16-17-18-19-21(22)23-20(2)3/h20H,4-19H2,1-3H3

>  <CASRN>
112-10-7

> <Outcome>
0

>  <Index>
3504

>  <StandardizerResult>
Clear Stereo (ID: ClearStereo)
Wedge Clean (ID: WedgeClean)
Mesomerize (ID: Mesomerize)
Tautomerize (ID: Tautomerize)
Add Explicit Hydrogens (ID: AddExplicitH)
Neutralize (ID: Neutralize)
Clean 2D (ID: Clean2D)

> <knn Distance>
2.64575123786926

> <CpId>
3504

$$$$
10
  Mrv1532301301811342D          

 19 18  0  0  0  0            999 V2000
    1.7605    1.8423    0.0000 O   0  0  0  0  0  0  0  0  0  0  0  0
    2.4750    1.4298    0.0000 C   0  0  0  0  0  0  0  0  0  0  0  0
    3.1895    1.8423    0.0000 C   0  0  0  0  0  0  0  0  0  0  0  0
    3.9039    1.4298    0.0000 C   0  0  0  0  0  0  0  0  0  0  0  0
    4.6184    1.8423    0.0000 C   0  0  0  0  0  0  0  0  0  0  0  0
    5.3329    1.4298    0.0000 C   0  0  0  0  0  0  0  0  0  0  0  0
    6.0474    1.8423    0.0000 O   0  0  0  0  0  0  0  0  0  0  0  0
    1.7605    2.6673    0.0000 H   0  0  0  0  0  0  0  0  0  0  0  0
    2.1047    0.6926    0.0000 H   0  0  0  0  0  0  0  0  0  0  0  0
    2.8453    0.6926    0.0000 H   0  0  0  0  0  0  0  0  0  0  0  0
    3.5597    2.5796    0.0000 H   0  0  0  0  0  0  0  0  0  0  0  0
    2.8192    2.5796    0.0000 H   0  0  0  0  0  0  0  0  0  0  0  0
    3.5337    0.6926    0.0000 H   0  0  0  0  0  0  0  0  0  0  0  0
    4.2742    0.6926    0.0000 H   0  0  0  0  0  0  0  0  0  0  0  0
    4.9887    2.5796    0.0000 H   0  0  0  0  0  0  0  0  0  0  0  0
    4.2482    2.5796    0.0000 H   0  0  0  0  0  0  0  0  0  0  0  0
    4.9626    0.6926    0.0000 H   0  0  0  0  0  0  0  0  0  0  0  0
    5.7031    0.6926    0.0000 H   0  0  0  0  0  0  0  0  0  0  0  0
    6.7618    1.4298    0.0000 H   0  0  0  0  0  0  0  0  0  0  0  0
  1  2  1  0  0  0  0
  2  3  1  0  0  0  0
  3  4  1  0  0  0  0
  4  5  1  0  0  0  0
  5  6  1  0  0  0  0
  6  7  1  0  0  0  0
  1  8  1  0  0  0  0
  2  9  1  0  0  0  0
  2 10  1  0  0  0  0
  3 11  1  0  0  0  0
  3 12  1  0  0  0  0
  4 13  1  0  0  0  0
  4 14  1  0  0  0  0
  5 15  1  0  0  0  0
  5 16  1  0  0  0  0
  6 17  1  0  0  0  0
  6 18  1  0  0  0  0
  7 19  1  0  0  0  0
M  END
>  <InChIKey>
ALQSHHUCVQOPAS-UHFFFAOYSA-N

>  <UN GHS>
Non-irritant

>  <CASRN>
111-29-5

> <Outcome>
0

>  <Index>
10

>  <StandardizerResult>
Clear Stereo (ID: ClearStereo)
Wedge Clean (ID: WedgeClean)
Mesomerize (ID: Mesomerize)
Tautomerize (ID: Tautomerize)
Add Explicit Hydrogens (ID: AddExplicitH)
Neutralize (ID: Neutralize)
Clean 2D (ID: Clean2D)

> <knn Distance>
2.82842707633972

> <CpId>
10

$$$$
30
  Mrv1532301301811342D          

 39 40  0  0  0  0            999 V2000
    2.2076   -0.4282    0.0000 C   0  0  0  0  0  0  0  0  0  0  0  0
    2.2076   -1.2532    0.0000 C   0  0  0  0  0  0  0  0  0  0  0  0
    2.9221   -1.6657    0.0000 C   0  0  0  0  0  0  0  0  0  0  0  0
    2.9221   -2.4907    0.0000 C   0  0  0  0  0  0  0  0  0  0  0  0
    3.6365   -2.9032    0.0000 C   0  0  0  0  0  0  0  0  0  0  0  0
    3.6365   -3.7282    0.0000 C   0  0  0  0  0  0  0  0  0  0  0  0
    4.3510   -4.1407    0.0000 C   0  0  0  0  0  0  0  0  0  0  0  0
    4.3510   -4.9657    0.0000 C   0  0  0  0  0  0  0  0  0  0  0  0
    5.0655   -5.3782    0.0000 C   0  0  0  0  0  0  0  0  0  0  0  0
    3.6365   -5.3782    0.0000 C   0  0  0  0  0  0  0  0  0  0  0  0
    3.6365   -6.2032    0.0000 O   0  0  0  0  0  0  0  0  0  0  0  0
    2.9221   -4.9657    0.0000 C   0  0  0  0  0  0  0  0  0  0  0  0
    2.2076   -5.3782    0.0000 C   0  0  0  0  0  0  0  0  0  0  0  0
    2.9221   -4.1407    0.0000 C   0  0  0  0  0  0  0  0  0  0  0  0
    2.2076   -2.9032    0.0000 C   0  0  0  0  0  0  0  0  0  0  0  0
    1.4931   -2.4907    0.0000 C   0  0  0  0  0  0  0  0  0  0  0  0
    0.7787   -2.9032    0.0000 C   0  0  0  0  0  0  0  0  0  0  0  0
    1.4931   -1.6657    0.0000 C   0  0  0  0  0  0  0  0  0  0  0  0
    0.7787   -1.2532    0.0000 O   0  0  0  0  0  0  0  0  0  0  0  0
    3.0326   -0.4282    0.0000 H   0  0  0  0  0  0  0  0  0  0  0  0
    2.2076    0.3968    0.0000 H   0  0  0  0  0  0  0  0  0  0  0  0
    1.3826   -0.4282    0.0000 H   0  0  0  0  0  0  0  0  0  0  0  0
    3.6365   -1.2532    0.0000 H   0  0  0  0  0  0  0  0  0  0  0  0
    4.4601   -2.8552    0.0000 H   0  0  0  0  0  0  0  0  0  0  0  0
    4.0899   -2.2139    0.0000 H   0  0  0  0  0  0  0  0  0  0  0  0
    5.0655   -3.7282    0.0000 H   0  0  0  0  0  0  0  0  0  0  0  0
    4.6530   -6.0926    0.0000 H   0  0  0  0  0  0  0  0  0  0  0  0
    5.7800   -5.7907    0.0000 H   0  0  0  0  0  0  0  0  0  0  0  0
    5.4780   -4.6637    0.0000 H   0  0  0  0  0  0  0  0  0  0  0  0
    2.9221   -6.6157    0.0000 H   0  0  0  0  0  0  0  0  0  0  0  0
    1.7951   -4.6637    0.0000 H   0  0  0  0  0  0  0  0  0  0  0  0
    1.4931   -5.7907    0.0000 H   0  0  0  0  0  0  0  0  0  0  0  0
    2.6201   -6.0926    0.0000 H   0  0  0  0  0  0  0  0  0  0  0  0
    2.2076   -3.7282    0.0000 H   0  0  0  0  0  0  0  0  0  0  0  0
    1.4931   -3.3157    0.0000 H   0  0  0  0  0  0  0  0  0  0  0  0
    0.5651   -2.1063    0.0000 H   0  0  0  0  0  0  0  0  0  0  0  0
   -0.0463   -2.9032    0.0000 H   0  0  0  0  0  0  0  0  0  0  0  0
    0.5651   -3.7001    0.0000 H   0  0  0  0  0  0  0  0  0  0  0  0
    0.4566   -0.4936    0.0000 H   0  0  0  0  0  0  0  0  0  0  0  0
  1  2  1  0  0  0  0
  2  3  4  0  0  0  0
  3  4  4  0  0  0  0
  4  5  1  0  0  0  0
  5  6  1  0  0  0  0
  6  7  4  0  0  0  0
  7  8  4  0  0  0  0
  8  9  1  0  0  0  0
  8 10  4  0  0  0  0
 10 11  1  0  0  0  0
 10 12  4  0  0  0  0
 12 13  1  0  0  0  0
 12 14  4  0  0  0  0
  6 14  4  0  0  0  0
  4 15  4  0  0  0  0
 15 16  4  0  0  0  0
 16 17  1  0  0  0  0
 16 18  4  0  0  0  0
  2 18  4  0  0  0  0
 18 19  1  0  0  0  0
  1 20  1  0  0  0  0
  1 21  1  0  0  0  0
  1 22  1  0  0  0  0
  3 23  1  0  0  0  0
  5 24  1  0  0  0  0
  5 25  1  0  0  0  0
  7 26  1  0  0  0  0
  9 27  1  0  0  0  0
  9 28  1  0  0  0  0
  9 29  1  0  0  0  0
 11 30  1  0  0  0  0
 13 31  1  0  0  0  0
 13 32  1  0  0  0  0
 13 33  1  0  0  0  0
 14 34  1  0  0  0  0
 15 35  1  0  0  0  0
 17 36  1  0  0  0  0
 17 37  1  0  0  0  0
 17 38  1  0  0  0  0
 19 39  1  0  0  0  0
M  END
>  <InChIKey>
AZZWZMUXHALBCQ-UHFFFAOYSA-N

>  <UN GHS>
Non-irritant

>  <CASRN>
5384-21-4

> <Outcome>
0

>  <Index>
30

>  <StandardizerResult>
Dearomatize (ID: Dearomatize)
Clear Stereo (ID: ClearStereo)
Wedge Clean (ID: WedgeClean)
Mesomerize (ID: Mesomerize)
Tautomerize (ID: Tautomerize)
Aromatize (ID: Aromatize)
Add Explicit Hydrogens (ID: AddExplicitH)
Neutralize (ID: Neutralize)
Clean 2D (ID: Clean2D)

> <knn Distance>
2.82842707633972

> <CpId>
30

$$$$
50
  Mrv1532301301811342D          

 10  9  0  0  0  0            999 V2000
    1.2375    0.7145    0.0000 F   0  0  0  0  0  0  0  0  0  0  0  0
    0.8250    0.0000    0.0000 C   0  0  0  0  0  0  0  0  0  0  0  0
    1.2375   -0.7145    0.0000 F   0  0  0  0  0  0  0  0  0  0  0  0
   -0.0000    0.0000    0.0000 C   0  0  0  0  0  0  0  0  0  0  0  0
   -0.4125    0.7145    0.0000 F   0  0  0  0  0  0  0  0  0  0  0  0
   -0.4125   -0.7145    0.0000 O   0  0  0  0  0  0  0  0  0  0  0  0
    0.0000   -1.4289    0.0000 C   0  0  0  0  0  0  0  0  0  0  0  0
    0.4125   -2.1434    0.0000 F   0  0  0  0  0  0  0  0  0  0  0  0
   -0.7145   -1.8414    0.0000 F   0  0  0  0  0  0  0  0  0  0  0  0
    0.7145   -1.0164    0.0000 F   0  0  0  0  0  0  0  0  0  0  0  0
  1  2  1  0  0  0  0
  2  3  1  0  0  0  0
  2  4  2  0  0  0  0
  4  5  1  0  0  0  0
  4  6  1  0  0  0  0
  6  7  1  0  0  0  0
  7  8  1  0  0  0  0
  7  9  1  0  0  0  0
  7 10  1  0  0  0  0
M  END
>  <InChIKey>
BLTXWCKMNMYXEA-UHFFFAOYSA-N

>  <UN GHS>
Non-irritant

>  <CASRN>
1187-93-5

> <Outcome>
0

>  <Index>
50

>  <StandardizerResult>
Clear Stereo (ID: ClearStereo)
Wedge Clean (ID: WedgeClean)
Mesomerize (ID: Mesomerize)
Tautomerize (ID: Tautomerize)
Clean 2D (ID: Clean2D)

> <knn Distance>
2.82842707633972

> <CpId>
50

$$$$
78
  Mrv1532301301811342D          

 28 29  0  0  0  0            999 V2000
    1.4289   -1.6500    0.0000 Br  0  0  0  0  0  0  0  0  0  0  0  0
    1.4289   -2.4750    0.0000 C   0  0  0  0  0  0  0  0  0  0  0  0
    2.1434   -2.8875    0.0000 C   0  0  0  0  0  0  0  0  0  0  0  0
    2.8579   -2.4750    0.0000 Br  0  0  0  0  0  0  0  0  0  0  0  0
    2.1434   -3.7125    0.0000 C   0  0  0  0  0  0  0  0  0  0  0  0
    2.8579   -4.1250    0.0000 Br  0  0  0  0  0  0  0  0  0  0  0  0
    1.4289   -4.1250    0.0000 C   0  0  0  0  0  0  0  0  0  0  0  0
    1.4289   -4.9500    0.0000 C   0  0  0  0  0  0  0  0  0  0  0  0
    2.1434   -5.3625    0.0000 C   0  0  0  0  0  0  0  0  0  0  0  0
    2.1434   -6.1875    0.0000 C   0  0  0  0  0  0  0  0  0  0  0  0
    2.8579   -6.6000    0.0000 C   0  0  0  0  0  0  0  0  0  0  0  0
    3.5723   -6.1875    0.0000 Br  0  0  0  0  0  0  0  0  0  0  0  0
    2.8579   -7.4250    0.0000 C   0  0  0  0  0  0  0  0  0  0  0  0
    3.5723   -7.8375    0.0000 Br  0  0  0  0  0  0  0  0  0  0  0  0
    2.1434   -7.8375    0.0000 C   0  0  0  0  0  0  0  0  0  0  0  0
    2.1434   -8.6625    0.0000 Br  0  0  0  0  0  0  0  0  0  0  0  0
    1.4289   -7.4250    0.0000 C   0  0  0  0  0  0  0  0  0  0  0  0
    0.7145   -7.8375    0.0000 Br  0  0  0  0  0  0  0  0  0  0  0  0
    1.4289   -6.6000    0.0000 C   0  0  0  0  0  0  0  0  0  0  0  0
    0.7145   -6.1875    0.0000 Br  0  0  0  0  0  0  0  0  0  0  0  0
    0.7145   -3.7125    0.0000 C   0  0  0  0  0  0  0  0  0  0  0  0
   -0.0000   -4.1250    0.0000 Br  0  0  0  0  0  0  0  0  0  0  0  0
    0.7145   -2.8875    0.0000 C   0  0  0  0  0  0  0  0  0  0  0  0
   -0.0000   -2.4750    0.0000 Br  0  0  0  0  0  0  0  0  0  0  0  0
    0.6053   -4.9980    0.0000 H   0  0  0  0  0  0  0  0  0  0  0  0
    0.9756   -5.6393    0.0000 H   0  0  0  0  0  0  0  0  0  0  0  0
    2.9670   -5.3145    0.0000 H   0  0  0  0  0  0  0  0  0  0  0  0
    2.5968   -4.6732    0.0000 H   0  0  0  0  0  0  0  0  0  0  0  0
  1  2  1  0  0  0  0
  2  3  4  0  0  0  0
  3  4  1  0  0  0  0
  3  5  4  0  0  0  0
  5  6  1  0  0  0  0
  5  7  4  0  0  0  0
  7  8  1  0  0  0  0
  8  9  1  0  0  0  0
  9 10  1  0  0  0  0
 10 11  4  0  0  0  0
 11 12  1  0  0  0  0
 11 13  4  0  0  0  0
 13 14  1  0  0  0  0
 13 15  4  0  0  0  0
 15 16  1  0  0  0  0
 15 17  4  0  0  0  0
 17 18  1  0  0  0  0
 17 19  4  0  0  0  0
 10 19  4  0  0  0  0
 19 20  1  0  0  0  0
  7 21  4  0  0  0  0
 21 22  1  0  0  0  0
 21 23  4  0  0  0  0
  2 23  4  0  0  0  0
 23 24  1  0  0  0  0
  8 25  1  0  0  0  0
  8 26  1  0  0  0  0
  9 27  1  0  0  0  0
  9 28  1  0  0  0  0
M  END
>  <InChIKey>
BZQKBFHEWDPQHD-UHFFFAOYSA-N

>  <UN GHS>
Non-irritant

>  <CASRN>
84852-53-9

> <Outcome>
0

>  <Index>
78

>  <StandardizerResult>
Dearomatize (ID: Dearomatize)
Clear Stereo (ID: ClearStereo)
Wedge Clean (ID: WedgeClean)
Mesomerize (ID: Mesomerize)
Tautomerize (ID: Tautomerize)
Aromatize (ID: Aromatize)
Add Explicit Hydrogens (ID: AddExplicitH)
Neutralize (ID: Neutralize)
Clean 2D (ID: Clean2D)

> <knn Distance>
2.82842707633972

> <CpId>
78

$$$$
117
  Mrv1532301301811342D          

 94 93  0  0  0  0            999 V2000
   17.1336   10.7171    0.0000 C   0  0  0  0  0  0  0  0  0  0  0  0
   17.8480   11.1296    0.0000 C   0  0  0  0  0  0  0  0  0  0  0  0
   18.5625   10.7171    0.0000 C   0  0  0  0  0  0  0  0  0  0  0  0
   19.2770   11.1296    0.0000 C   0  0  0  0  0  0  0  0  0  0  0  0
   19.9914   10.7171    0.0000 C   0  0  0  0  0  0  0  0  0  0  0  0
   20.7059   11.1296    0.0000 C   0  0  0  0  0  0  0  0  0  0  0  0
   21.4204   10.7171    0.0000 C   0  0  0  0  0  0  0  0  0  0  0  0
   22.1349   11.1296    0.0000 C   0  0  0  0  0  0  0  0  0  0  0  0
   22.8493   10.7171    0.0000 C   0  0  0  0  0  0  0  0  0  0  0  0
   23.5638   11.1296    0.0000 C   0  0  0  0  0  0  0  0  0  0  0  0
   24.2783   10.7171    0.0000 C   0  0  0  0  0  0  0  0  0  0  0  0
   24.9927   11.1296    0.0000 C   0  0  0  0  0  0  0  0  0  0  0  0
   25.7072   10.7171    0.0000 C   0  0  0  0  0  0  0  0  0  0  0  0
   26.4217   11.1296    0.0000 C   0  0  0  0  0  0  0  0  0  0  0  0
   27.1362   10.7171    0.0000 O   0  0  0  0  0  0  0  0  0  0  0  0
   27.8506   11.1296    0.0000 C   0  0  0  0  0  0  0  0  0  0  0  0
   27.8506   11.9546    0.0000 O   0  0  0  0  0  0  0  0  0  0  0  0
   28.5651   10.7171    0.0000 O   0  0  0  0  0  0  0  0  0  0  0  0
   29.2796   11.1296    0.0000 O   0  0  0  0  0  0  0  0  0  0  0  0
   29.9940   10.7171    0.0000 C   0  0  0  0  0  0  0  0  0  0  0  0
   29.9940    9.8921    0.0000 O   0  0  0  0  0  0  0  0  0  0  0  0
   30.7085   11.1296    0.0000 O   0  0  0  0  0  0  0  0  0  0  0  0
   31.4230   10.7171    0.0000 C   0  0  0  0  0  0  0  0  0  0  0  0
   32.1374   11.1296    0.0000 C   0  0  0  0  0  0  0  0  0  0  0  0
   32.8519   10.7171    0.0000 C   0  0  0  0  0  0  0  0  0  0  0  0
   33.5664   11.1296    0.0000 C   0  0  0  0  0  0  0  0  0  0  0  0
   34.2809   10.7171    0.0000 C   0  0  0  0  0  0  0  0  0  0  0  0
   34.9953   11.1296    0.0000 C   0  0  0  0  0  0  0  0  0  0  0  0
   35.7098   10.7171    0.0000 C   0  0  0  0  0  0  0  0  0  0  0  0
   36.4243   11.1296    0.0000 C   0  0  0  0  0  0  0  0  0  0  0  0
   37.1387   10.7171    0.0000 C   0  0  0  0  0  0  0  0  0  0  0  0
   37.8532   11.1296    0.0000 C   0  0  0  0  0  0  0  0  0  0  0  0
   38.5677   10.7171    0.0000 C   0  0  0  0  0  0  0  0  0  0  0  0
   39.2822   11.1296    0.0000 C   0  0  0  0  0  0  0  0  0  0  0  0
   39.9966   10.7171    0.0000 C   0  0  0  0  0  0  0  0  0  0  0  0
   40.7111   11.1296    0.0000 C   0  0  0  0  0  0  0  0  0  0  0  0
   16.7211   11.4316    0.0000 H   0  0  0  0  0  0  0  0  0  0  0  0
   16.4191   10.3046    0.0000 H   0  0  0  0  0  0  0  0  0  0  0  0
   17.5461   10.0026    0.0000 H   0  0  0  0  0  0  0  0  0  0  0  0
   18.2183   11.8668    0.0000 H   0  0  0  0  0  0  0  0  0  0  0  0
   17.4778   11.8668    0.0000 H   0  0  0  0  0  0  0  0  0  0  0  0
   18.1922    9.9799    0.0000 H   0  0  0  0  0  0  0  0  0  0  0  0
   18.9328    9.9799    0.0000 H   0  0  0  0  0  0  0  0  0  0  0  0
   19.6472   11.8668    0.0000 H   0  0  0  0  0  0  0  0  0  0  0  0
   18.9067   11.8668    0.0000 H   0  0  0  0  0  0  0  0  0  0  0  0
   19.6212    9.9799    0.0000 H   0  0  0  0  0  0  0  0  0  0  0  0
   20.3617    9.9799    0.0000 H   0  0  0  0  0  0  0  0  0  0  0  0
   21.0762   11.8668    0.0000 H   0  0  0  0  0  0  0  0  0  0  0  0
   20.3357   11.8668    0.0000 H   0  0  0  0  0  0  0  0  0  0  0  0
   21.0501    9.9799    0.0000 H   0  0  0  0  0  0  0  0  0  0  0  0
   21.7906    9.9799    0.0000 H   0  0  0  0  0  0  0  0  0  0  0  0
   22.5051   11.8668    0.0000 H   0  0  0  0  0  0  0  0  0  0  0  0
   21.7646   11.8668    0.0000 H   0  0  0  0  0  0  0  0  0  0  0  0
   22.4791    9.9799    0.0000 H   0  0  0  0  0  0  0  0  0  0  0  0
   23.2196    9.9799    0.0000 H   0  0  0  0  0  0  0  0  0  0  0  0
   23.9341   11.8668    0.0000 H   0  0  0  0  0  0  0  0  0  0  0  0
   23.1935   11.8668    0.0000 H   0  0  0  0  0  0  0  0  0  0  0  0
   23.9080    9.9799    0.0000 H   0  0  0  0  0  0  0  0  0  0  0  0
   24.6485    9.9799    0.0000 H   0  0  0  0  0  0  0  0  0  0  0  0
   25.3630   11.8668    0.0000 H   0  0  0  0  0  0  0  0  0  0  0  0
   24.6225   11.8668    0.0000 H   0  0  0  0  0  0  0  0  0  0  0  0
   25.3369    9.9799    0.0000 H   0  0  0  0  0  0  0  0  0  0  0  0
   26.0775    9.9799    0.0000 H   0  0  0  0  0  0  0  0  0  0  0  0
   26.7919   11.8668    0.0000 H   0  0  0  0  0  0  0  0  0  0  0  0
   26.0514   11.8668    0.0000 H   0  0  0  0  0  0  0  0  0  0  0  0
   31.0527    9.9799    0.0000 H   0  0  0  0  0  0  0  0  0  0  0  0
   31.7932    9.9799    0.0000 H   0  0  0  0  0  0  0  0  0  0  0  0
   32.5077   11.8668    0.0000 H   0  0  0  0  0  0  0  0  0  0  0  0
   31.7672   11.8668    0.0000 H   0  0  0  0  0  0  0  0  0  0  0  0
   32.4817    9.9799    0.0000 H   0  0  0  0  0  0  0  0  0  0  0  0
   33.2222    9.9799    0.0000 H   0  0  0  0  0  0  0  0  0  0  0  0
   33.9366   11.8668    0.0000 H   0  0  0  0  0  0  0  0  0  0  0  0
   33.1961   11.8668    0.0000 H   0  0  0  0  0  0  0  0  0  0  0  0
   33.9106    9.9799    0.0000 H   0  0  0  0  0  0  0  0  0  0  0  0
   34.6511    9.9799    0.0000 H   0  0  0  0  0  0  0  0  0  0  0  0
   35.3656   11.8668    0.0000 H   0  0  0  0  0  0  0  0  0  0  0  0
   34.6251   11.8668    0.0000 H   0  0  0  0  0  0  0  0  0  0  0  0
   35.3395    9.9799    0.0000 H   0  0  0  0  0  0  0  0  0  0  0  0
   36.0801    9.9799    0.0000 H   0  0  0  0  0  0  0  0  0  0  0  0
   36.7945   11.8668    0.0000 H   0  0  0  0  0  0  0  0  0  0  0  0
   36.0540   11.8668    0.0000 H   0  0  0  0  0  0  0  0  0  0  0  0
   36.7685    9.9799    0.0000 H   0  0  0  0  0  0  0  0  0  0  0  0
   37.5090    9.9799    0.0000 H   0  0  0  0  0  0  0  0  0  0  0  0
   38.2235   11.8668    0.0000 H   0  0  0  0  0  0  0  0  0  0  0  0
   37.4830   11.8668    0.0000 H   0  0  0  0  0  0  0  0  0  0  0  0
   38.1974    9.9799    0.0000 H   0  0  0  0  0  0  0  0  0  0  0  0
   38.9379    9.9799    0.0000 H   0  0  0  0  0  0  0  0  0  0  0  0
   39.6524   11.8668    0.0000 H   0  0  0  0  0  0  0  0  0  0  0  0
   38.9119   11.8668    0.0000 H   0  0  0  0  0  0  0  0  0  0  0  0
   39.6264    9.9799    0.0000 H   0  0  0  0  0  0  0  0  0  0  0  0
   40.3669    9.9799    0.0000 H   0  0  0  0  0  0  0  0  0  0  0  0
   41.1236   10.4151    0.0000 H   0  0  0  0  0  0  0  0  0  0  0  0
   41.4256   11.5421    0.0000 H   0  0  0  0  0  0  0  0  0  0  0  0
   40.2986   11.8441    0.0000 H   0  0  0  0  0  0  0  0  0  0  0  0
  1  2  1  0  0  0  0
  2  3  1  0  0  0  0
  3  4  1  0  0  0  0
  4  5  1  0  0  0  0
  5  6  1  0  0  0  0
  6  7  1  0  0  0  0
  7  8  1  0  0  0  0
  8  9  1  0  0  0  0
  9 10  1  0  0  0  0
 10 11  1  0  0  0  0
 11 12  1  0  0  0  0
 12 13  1  0  0  0  0
 13 14  1  0  0  0  0
 14 15  1  0  0  0  0
 15 16  1  0  0  0  0
 16 17  2  0  0  0  0
 16 18  1  0  0  0  0
 18 19  1  0  0  0  0
 19 20  1  0  0  0  0
 20 21  2  0  0  0  0
 20 22  1  0  0  0  0
 22 23  1  0  0  0  0
 23 24  1  0  0  0  0
 24 25  1  0  0  0  0
 25 26  1  0  0  0  0
 26 27  1  0  0  0  0
 27 28  1  0  0  0  0
 28 29  1  0  0  0  0
 29 30  1  0  0  0  0
 30 31  1  0  0  0  0
 31 32  1  0  0  0  0
 32 33  1  0  0  0  0
 33 34  1  0  0  0  0
 34 35  1  0  0  0  0
 35 36  1  0  0  0  0
  1 37  1  0  0  0  0
  1 38  1  0  0  0  0
  1 39  1  0  0  0  0
  2 40  1  0  0  0  0
  2 41  1  0  0  0  0
  3 42  1  0  0  0  0
  3 43  1  0  0  0  0
  4 44  1  0  0  0  0
  4 45  1  0  0  0  0
  5 46  1  0  0  0  0
  5 47  1  0  0  0  0
  6 48  1  0  0  0  0
  6 49  1  0  0  0  0
  7 50  1  0  0  0  0
  7 51  1  0  0  0  0
  8 52  1  0  0  0  0
  8 53  1  0  0  0  0
  9 54  1  0  0  0  0
  9 55  1  0  0  0  0
 10 56  1  0  0  0  0
 10 57  1  0  0  0  0
 11 58  1  0  0  0  0
 11 59  1  0  0  0  0
 12 60  1  0  0  0  0
 12 61  1  0  0  0  0
 13 62  1  0  0  0  0
 13 63  1  0  0  0  0
 14 64  1  0  0  0  0
 14 65  1  0  0  0  0
 23 66  1  0  0  0  0
 23 67  1  0  0  0  0
 24 68  1  0  0  0  0
 24 69  1  0  0  0  0
 25 70  1  0  0  0  0
 25 71  1  0  0  0  0
 26 72  1  0  0  0  0
 26 73  1  0  0  0  0
 27 74  1  0  0  0  0
 27 75  1  0  0  0  0
 28 76  1  0  0  0  0
 28 77  1  0  0  0  0
 29 78  1  0  0  0  0
 29 79  1  0  0  0  0
 30 80  1  0  0  0  0
 30 81  1  0  0  0  0
 31 82  1  0  0  0  0
 31 83  1  0  0  0  0
 32 84  1  0  0  0  0
 32 85  1  0  0  0  0
 33 86  1  0  0  0  0
 33 87  1  0  0  0  0
 34 88  1  0  0  0  0
 34 89  1  0  0  0  0
 35 90  1  0  0  0  0
 35 91  1  0  0  0  0
 36 92  1  0  0  0  0
 36 93  1  0  0  0  0
 36 94  1  0  0  0  0
M  END
>  <InChIKey>
CSKKAINPUYTTRW-UHFFFAOYSA-N

>  <UN GHS>
Non-irritant

>  <CASRN>
53220-22-7

> <Outcome>
0

>  <Index>
117

>  <StandardizerResult>
Clear Stereo (ID: ClearStereo)
Wedge Clean (ID: WedgeClean)
Mesomerize (ID: Mesomerize)
Tautomerize (ID: Tautomerize)
Add Explicit Hydrogens (ID: AddExplicitH)
Neutralize (ID: Neutralize)
Clean 2D (ID: Clean2D)

> <knn Distance>
2.82842707633972

> <CpId>
117

$$$$
119
  Mrv1532301301811342D          

 35 34  0  0  0  0            999 V2000
    4.2037    3.3332    0.0000 C   0  0  0  0  0  0  0  0  0  0  0  0
    4.9182    2.9207    0.0000 C   0  0  0  0  0  0  0  0  0  0  0  0
    5.6326    3.3332    0.0000 C   0  0  0  0  0  0  0  0  0  0  0  0
    6.3471    2.9207    0.0000 C   0  0  0  0  0  0  0  0  0  0  0  0
    7.0616    3.3332    0.0000 O   0  0  0  0  0  0  0  0  0  0  0  0
    7.7760    2.9207    0.0000 C   0  0  0  0  0  0  0  0  0  0  0  0
    8.4905    3.3332    0.0000 C   0  0  0  0  0  0  0  0  0  0  0  0
    8.4905    4.1582    0.0000 C   0  0  0  0  0  0  0  0  0  0  0  0
    9.2050    2.9207    0.0000 O   0  0  0  0  0  0  0  0  0  0  0  0
    9.9195    3.3332    0.0000 C   0  0  0  0  0  0  0  0  0  0  0  0
   10.6339    2.9207    0.0000 C   0  0  0  0  0  0  0  0  0  0  0  0
   11.3484    3.3332    0.0000 C   0  0  0  0  0  0  0  0  0  0  0  0
   10.6339    2.0957    0.0000 O   0  0  0  0  0  0  0  0  0  0  0  0
    4.6162    4.0477    0.0000 H   0  0  0  0  0  0  0  0  0  0  0  0
    3.4892    3.7457    0.0000 H   0  0  0  0  0  0  0  0  0  0  0  0
    3.7912    2.6187    0.0000 H   0  0  0  0  0  0  0  0  0  0  0  0
    4.5479    2.1834    0.0000 H   0  0  0  0  0  0  0  0  0  0  0  0
    5.2884    2.1834    0.0000 H   0  0  0  0  0  0  0  0  0  0  0  0
    6.0029    4.0704    0.0000 H   0  0  0  0  0  0  0  0  0  0  0  0
    5.2624    4.0704    0.0000 H   0  0  0  0  0  0  0  0  0  0  0  0
    5.9768    2.1834    0.0000 H   0  0  0  0  0  0  0  0  0  0  0  0
    6.7174    2.1834    0.0000 H   0  0  0  0  0  0  0  0  0  0  0  0
    7.4058    2.1834    0.0000 H   0  0  0  0  0  0  0  0  0  0  0  0
    8.1463    2.1834    0.0000 H   0  0  0  0  0  0  0  0  0  0  0  0
    7.7760    3.7457    0.0000 H   0  0  0  0  0  0  0  0  0  0  0  0
    9.2874    3.9447    0.0000 H   0  0  0  0  0  0  0  0  0  0  0  0
    8.9030    4.8727    0.0000 H   0  0  0  0  0  0  0  0  0  0  0  0
    7.9072    4.7416    0.0000 H   0  0  0  0  0  0  0  0  0  0  0  0
   10.4163    3.9918    0.0000 H   0  0  0  0  0  0  0  0  0  0  0  0
    9.9195    2.5082    0.0000 H   0  0  0  0  0  0  0  0  0  0  0  0
   10.6339    3.7457    0.0000 H   0  0  0  0  0  0  0  0  0  0  0  0
   11.5619    2.5363    0.0000 H   0  0  0  0  0  0  0  0  0  0  0  0
   12.1734    3.3332    0.0000 H   0  0  0  0  0  0  0  0  0  0  0  0
   11.5619    4.1301    0.0000 H   0  0  0  0  0  0  0  0  0  0  0  0
   11.0464    1.3812    0.0000 H   0  0  0  0  0  0  0  0  0  0  0  0
  1  2  1  0  0  0  0
  2  3  1  0  0  0  0
  3  4  1  0  0  0  0
  4  5  1  0  0  0  0
  5  6  1  0  0  0  0
  6  7  1  0  0  0  0
  7  8  1  0  0  0  0
  7  9  1  0  0  0  0
  9 10  1  0  0  0  0
 10 11  1  0  0  0  0
 11 12  1  0  0  0  0
 11 13  1  0  0  0  0
  1 14  1  0  0  0  0
  1 15  1  0  0  0  0
  1 16  1  0  0  0  0
  2 17  1  0  0  0  0
  2 18  1  0  0  0  0
  3 19  1  0  0  0  0
  3 20  1  0  0  0  0
  4 21  1  0  0  0  0
  4 22  1  0  0  0  0
  6 23  1  0  0  0  0
  6 24  1  0  0  0  0
  7 25  1  0  0  0  0
  8 26  1  0  0  0  0
  8 27  1  0  0  0  0
  8 28  1  0  0  0  0
 10 29  1  0  0  0  0
 10 30  1  0  0  0  0
 11 31  1  0  0  0  0
 12 32  1  0  0  0  0
 12 33  1  0  0  0  0
 12 34  1  0  0  0  0
 13 35  1  0  0  0  0
M  END
>  <InChIKey>
CUVLMZNMSPJDON-UHFFFAOYSA-N

>  <UN GHS>
Non-irritant

>  <CASRN>
29911-28-2

> <Outcome>
0

>  <Index>
119

>  <StandardizerResult>
Clear Stereo (ID: ClearStereo)
Wedge Clean (ID: WedgeClean)
Mesomerize (ID: Mesomerize)
Tautomerize (ID: Tautomerize)
Add Explicit Hydrogens (ID: AddExplicitH)
Neutralize (ID: Neutralize)
Clean 2D (ID: Clean2D)

> <knn Distance>
2.82842707633972

> <CpId>
119

$$$$
123
  Mrv1532301301811342D          

 32 31  0  0  0  0            999 V2000
    4.7586    3.5724    0.0000 C   0  0  0  0  0  0  0  0  0  0  0  0
    5.4730    3.9849    0.0000 C   0  0  0  0  0  0  0  0  0  0  0  0
    6.1875    3.5724    0.0000 O   0  0  0  0  0  0  0  0  0  0  0  0
    6.9020    3.9849    0.0000 C   0  0  0  0  0  0  0  0  0  0  0  0
    7.6165    3.5724    0.0000 C   0  0  0  0  0  0  0  0  0  0  0  0
    8.3309    3.9849    0.0000 O   0  0  0  0  0  0  0  0  0  0  0  0
    9.0454    3.5724    0.0000 C   0  0  0  0  0  0  0  0  0  0  0  0
    9.7599    3.9849    0.0000 C   0  0  0  0  0  0  0  0  0  0  0  0
   10.4743    3.5724    0.0000 O   0  0  0  0  0  0  0  0  0  0  0  0
   11.1888    3.9849    0.0000 C   0  0  0  0  0  0  0  0  0  0  0  0
   11.9033    3.5724    0.0000 C   0  0  0  0  0  0  0  0  0  0  0  0
   12.6178    3.9849    0.0000 O   0  0  0  0  0  0  0  0  0  0  0  0
   13.3322    3.5724    0.0000 C   0  0  0  0  0  0  0  0  0  0  0  0
   14.0467    3.9849    0.0000 C   0  0  0  0  0  0  0  0  0  0  0  0
    4.0441    3.9849    0.0000 H   0  0  0  0  0  0  0  0  0  0  0  0
    4.7586    2.7474    0.0000 H   0  0  0  0  0  0  0  0  0  0  0  0
    5.4730    4.8099    0.0000 H   0  0  0  0  0  0  0  0  0  0  0  0
    7.2722    4.7221    0.0000 H   0  0  0  0  0  0  0  0  0  0  0  0
    6.5317    4.7221    0.0000 H   0  0  0  0  0  0  0  0  0  0  0  0
    7.2462    2.8352    0.0000 H   0  0  0  0  0  0  0  0  0  0  0  0
    7.9867    2.8352    0.0000 H   0  0  0  0  0  0  0  0  0  0  0  0
    8.6751    2.8352    0.0000 H   0  0  0  0  0  0  0  0  0  0  0  0
    9.4157    2.8352    0.0000 H   0  0  0  0  0  0  0  0  0  0  0  0
   10.1301    4.7221    0.0000 H   0  0  0  0  0  0  0  0  0  0  0  0
    9.3896    4.7221    0.0000 H   0  0  0  0  0  0  0  0  0  0  0  0
   11.5591    4.7221    0.0000 H   0  0  0  0  0  0  0  0  0  0  0  0
   10.8185    4.7221    0.0000 H   0  0  0  0  0  0  0  0  0  0  0  0
   11.5330    2.8352    0.0000 H   0  0  0  0  0  0  0  0  0  0  0  0
   12.2735    2.8352    0.0000 H   0  0  0  0  0  0  0  0  0  0  0  0
   13.3322    2.7474    0.0000 H   0  0  0  0  0  0  0  0  0  0  0  0
   14.7612    3.5724    0.0000 H   0  0  0  0  0  0  0  0  0  0  0  0
   14.0467    4.8099    0.0000 H   0  0  0  0  0  0  0  0  0  0  0  0
  1  2  2  0  0  0  0
  2  3  1  0  0  0  0
  3  4  1  0  0  0  0
  4  5  1  0  0  0  0
  5  6  1  0  0  0  0
  6  7  1  0  0  0  0
  7  8  1  0  0  0  0
  8  9  1  0  0  0  0
  9 10  1  0  0  0  0
 10 11  1  0  0  0  0
 11 12  1  0  0  0  0
 12 13  1  0  0  0  0
 13 14  2  0  0  0  0
  1 15  1  0  0  0  0
  1 16  1  0  0  0  0
  2 17  1  0  0  0  0
  4 18  1  0  0  0  0
  4 19  1  0  0  0  0
  5 20  1  0  0  0  0
  5 21  1  0  0  0  0
  7 22  1  0  0  0  0
  7 23  1  0  0  0  0
  8 24  1  0  0  0  0
  8 25  1  0  0  0  0
 10 26  1  0  0  0  0
 10 27  1  0  0  0  0
 11 28  1  0  0  0  0
 11 29  1  0  0  0  0
 13 30  1  0  0  0  0
 14 31  1  0  0  0  0
 14 32  1  0  0  0  0
M  END
>  <InChIKey>
CYIGRWUIQAVBFG-UHFFFAOYSA-N

>  <UN GHS>
Non-irritant

>  <CASRN>
765-12-8

> <Outcome>
0

>  <Index>
123

>  <StandardizerResult>
Clear Stereo (ID: ClearStereo)
Wedge Clean (ID: WedgeClean)
Mesomerize (ID: Mesomerize)
Tautomerize (ID: Tautomerize)
Add Explicit Hydrogens (ID: AddExplicitH)
Neutralize (ID: Neutralize)
Clean 2D (ID: Clean2D)

> <knn Distance>
2.82842707633972

> <CpId>
123

$$$$
142
  Mrv1532301301811342D          

 51 51  0  0  0  0            999 V2000
    4.2868   -9.0753    0.0000 C   0  0  0  0  0  0  0  0  0  0  0  0
    5.0013   -8.6628    0.0000 C   0  0  0  0  0  0  0  0  0  0  0  0
    5.7158   -9.0753    0.0000 C   0  0  0  0  0  0  0  0  0  0  0  0
    6.4302   -8.6628    0.0000 C   0  0  0  0  0  0  0  0  0  0  0  0
    7.1447   -9.0753    0.0000 C   0  0  0  0  0  0  0  0  0  0  0  0
    7.8592   -8.6628    0.0000 C   0  0  0  0  0  0  0  0  0  0  0  0
    8.5737   -9.0753    0.0000 C   0  0  0  0  0  0  0  0  0  0  0  0
    9.2881   -8.6628    0.0000 C   0  0  0  0  0  0  0  0  0  0  0  0
   10.0026   -9.0753    0.0000 C   0  0  0  0  0  0  0  0  0  0  0  0
   10.7171   -8.6628    0.0000 C   0  0  0  0  0  0  0  0  0  0  0  0
   11.4315   -9.0753    0.0000 C   0  0  0  0  0  0  0  0  0  0  0  0
   12.1460   -8.6628    0.0000 C   0  0  0  0  0  0  0  0  0  0  0  0
   12.8605   -9.0753    0.0000 O   0  0  0  0  0  0  0  0  0  0  0  0
   13.5749   -8.6628    0.0000 C   0  0  0  0  0  0  0  0  0  0  0  0
   13.5749   -7.8378    0.0000 O   0  0  0  0  0  0  0  0  0  0  0  0
   14.2894   -9.0753    0.0000 C   0  0  0  0  0  0  0  0  0  0  0  0
   15.0039   -8.6628    0.0000 C   0  0  0  0  0  0  0  0  0  0  0  0
   15.7184   -9.0753    0.0000 C   0  0  0  0  0  0  0  0  0  0  0  0
   15.7184   -9.9003    0.0000 C   0  0  0  0  0  0  0  0  0  0  0  0
   15.0039  -10.3128    0.0000 C   0  0  0  0  0  0  0  0  0  0  0  0
   14.2894   -9.9003    0.0000 C   0  0  0  0  0  0  0  0  0  0  0  0
    3.8743   -8.3609    0.0000 H   0  0  0  0  0  0  0  0  0  0  0  0
    3.5724   -9.4878    0.0000 H   0  0  0  0  0  0  0  0  0  0  0  0
    4.6993   -9.7898    0.0000 H   0  0  0  0  0  0  0  0  0  0  0  0
    5.3716   -7.9256    0.0000 H   0  0  0  0  0  0  0  0  0  0  0  0
    4.6310   -7.9256    0.0000 H   0  0  0  0  0  0  0  0  0  0  0  0
    5.3455   -9.8126    0.0000 H   0  0  0  0  0  0  0  0  0  0  0  0
    6.0860   -9.8126    0.0000 H   0  0  0  0  0  0  0  0  0  0  0  0
    6.8005   -7.9256    0.0000 H   0  0  0  0  0  0  0  0  0  0  0  0
    6.0600   -7.9256    0.0000 H   0  0  0  0  0  0  0  0  0  0  0  0
    6.7745   -9.8126    0.0000 H   0  0  0  0  0  0  0  0  0  0  0  0
    7.5150   -9.8126    0.0000 H   0  0  0  0  0  0  0  0  0  0  0  0
    8.2294   -7.9256    0.0000 H   0  0  0  0  0  0  0  0  0  0  0  0
    7.4889   -7.9256    0.0000 H   0  0  0  0  0  0  0  0  0  0  0  0
    8.2034   -9.8126    0.0000 H   0  0  0  0  0  0  0  0  0  0  0  0
    8.9439   -9.8126    0.0000 H   0  0  0  0  0  0  0  0  0  0  0  0
    9.6584   -7.9256    0.0000 H   0  0  0  0  0  0  0  0  0  0  0  0
    8.9179   -7.9256    0.0000 H   0  0  0  0  0  0  0  0  0  0  0  0
    9.6323   -9.8126    0.0000 H   0  0  0  0  0  0  0  0  0  0  0  0
   10.3729   -9.8126    0.0000 H   0  0  0  0  0  0  0  0  0  0  0  0
   11.0873   -7.9256    0.0000 H   0  0  0  0  0  0  0  0  0  0  0  0
   10.3468   -7.9256    0.0000 H   0  0  0  0  0  0  0  0  0  0  0  0
   11.0613   -9.8126    0.0000 H   0  0  0  0  0  0  0  0  0  0  0  0
   11.8018   -9.8126    0.0000 H   0  0  0  0  0  0  0  0  0  0  0  0
   12.5163   -7.9256    0.0000 H   0  0  0  0  0  0  0  0  0  0  0  0
   11.7757   -7.9256    0.0000 H   0  0  0  0  0  0  0  0  0  0  0  0
   15.0039   -7.8378    0.0000 H   0  0  0  0  0  0  0  0  0  0  0  0
   16.4328   -8.6628    0.0000 H   0  0  0  0  0  0  0  0  0  0  0  0
   16.4328  -10.3128    0.0000 H   0  0  0  0  0  0  0  0  0  0  0  0
   15.0039  -11.1378    0.0000 H   0  0  0  0  0  0  0  0  0  0  0  0
   13.5749  -10.3128    0.0000 H   0  0  0  0  0  0  0  0  0  0  0  0
  1  2  1  0  0  0  0
  2  3  1  0  0  0  0
  3  4  1  0  0  0  0
  4  5  1  0  0  0  0
  5  6  1  0  0  0  0
  6  7  1  0  0  0  0
  7  8  1  0  0  0  0
  8  9  1  0  0  0  0
  9 10  1  0  0  0  0
 10 11  1  0  0  0  0
 11 12  1  0  0  0  0
 12 13  1  0  0  0  0
 13 14  1  0  0  0  0
 14 15  2  0  0  0  0
 14 16  1  0  0  0  0
 16 17  4  0  0  0  0
 17 18  4  0  0  0  0
 18 19  4  0  0  0  0
 19 20  4  0  0  0  0
 20 21  4  0  0  0  0
 16 21  4  0  0  0  0
  1 22  1  0  0  0  0
  1 23  1  0  0  0  0
  1 24  1  0  0  0  0
  2 25  1  0  0  0  0
  2 26  1  0  0  0  0
  3 27  1  0  0  0  0
  3 28  1  0  0  0  0
  4 29  1  0  0  0  0
  4 30  1  0  0  0  0
  5 31  1  0  0  0  0
  5 32  1  0  0  0  0
  6 33  1  0  0  0  0
  6 34  1  0  0  0  0
  7 35  1  0  0  0  0
  7 36  1  0  0  0  0
  8 37  1  0  0  0  0
  8 38  1  0  0  0  0
  9 39  1  0  0  0  0
  9 40  1  0  0  0  0
 10 41  1  0  0  0  0
 10 42  1  0  0  0  0
 11 43  1  0  0  0  0
 11 44  1  0  0  0  0
 12 45  1  0  0  0  0
 12 46  1  0  0  0  0
 17 47  1  0  0  0  0
 18 48  1  0  0  0  0
 19 49  1  0  0  0  0
 20 50  1  0  0  0  0
 21 51  1  0  0  0  0
M  END
>  <InChIKey>
DLAHAXOYRFRPFQ-UHFFFAOYSA-N

>  <UN GHS>
Non-irritant

>  <CASRN>
68411-27-8

> <Outcome>
0

>  <Index>
142

>  <StandardizerResult>
Dearomatize (ID: Dearomatize)
Clear Stereo (ID: ClearStereo)
Wedge Clean (ID: WedgeClean)
Mesomerize (ID: Mesomerize)
Tautomerize (ID: Tautomerize)
Aromatize (ID: Aromatize)
Add Explicit Hydrogens (ID: AddExplicitH)
Neutralize (ID: Neutralize)
Clean 2D (ID: Clean2D)

> <knn Distance>
2.82842707633972

> <CpId>
142

$$$$
154
  Mrv1532301301811342D          

  8  7  0  0  0  0            999 V2000
    0.1105   -1.2375    0.0000 O   0  0  0  0  0  0  0  0  0  0  0  0
    0.8250   -0.8250    0.0000 C   0  0  0  0  0  0  0  0  0  0  0  0
    1.5395   -1.2375    0.0000 O   0  0  0  0  0  0  0  0  0  0  0  0
    0.8250    0.0000    0.0000 C   0  0  0  0  0  0  0  0  0  0  0  0
    0.8250    0.8250    0.0000 F   0  0  0  0  0  0  0  0  0  0  0  0
    1.6500    0.0000    0.0000 F   0  0  0  0  0  0  0  0  0  0  0  0
   -0.0000    0.0000    0.0000 F   0  0  0  0  0  0  0  0  0  0  0  0
   -0.6039   -0.8250    0.0000 H   0  0  0  0  0  0  0  0  0  0  0  0
  1  2  1  0  0  0  0
  2  3  2  0  0  0  0
  2  4  1  0  0  0  0
  4  5  1  0  0  0  0
  4  6  1  0  0  0  0
  4  7  1  0  0  0  0
  1  8  1  0  0  0  0
M  END
>  <InChIKey>
DTQVDTLACAAQTR-UHFFFAOYSA-M

>  <UN GHS>
Non-irritant

>  <CASRN>
2923-16-2

> <Outcome>
0

>  <Index>
154

>  <StandardizerResult>
Clear Stereo (ID: ClearStereo)
Wedge Clean (ID: WedgeClean)
Mesomerize (ID: Mesomerize)
Tautomerize (ID: Tautomerize)
Add Explicit Hydrogens (ID: AddExplicitH)
Neutralize (ID: Neutralize)
Clean 2D (ID: Clean2D)

> <knn Distance>
2.82842707633972

> <CpId>
154

$$$$
205
  Mrv1532301301811342D          

 24 23  0  0  0  0            999 V2000
    0.0625   -2.0160    0.0000 C   0  0  0  0  0  0  0  0  0  0  0  0
    0.0625   -1.1910    0.0000 C   0  0  0  0  0  0  0  0  0  0  0  0
   -0.6520   -0.7785    0.0000 C   0  0  0  0  0  0  0  0  0  0  0  0
    0.7770   -0.7785    0.0000 C   0  0  0  0  0  0  0  0  0  0  0  0
    0.7770    0.0465    0.0000 C   0  0  0  0  0  0  0  0  0  0  0  0
    0.7770    0.8715    0.0000 C   0  0  0  0  0  0  0  0  0  0  0  0
    1.6020    0.0465    0.0000 C   0  0  0  0  0  0  0  0  0  0  0  0
   -0.0480    0.0465    0.0000 C   0  0  0  0  0  0  0  0  0  0  0  0
   -0.7625   -2.0160    0.0000 H   0  0  0  0  0  0  0  0  0  0  0  0
    0.0625   -2.8410    0.0000 H   0  0  0  0  0  0  0  0  0  0  0  0
    0.8875   -2.0160    0.0000 H   0  0  0  0  0  0  0  0  0  0  0  0
   -0.6520    0.0465    0.0000 H   0  0  0  0  0  0  0  0  0  0  0  0
   -1.3664   -1.1910    0.0000 H   0  0  0  0  0  0  0  0  0  0  0  0
    1.2303   -1.4678    0.0000 H   0  0  0  0  0  0  0  0  0  0  0  0
    1.6006   -0.8265    0.0000 H   0  0  0  0  0  0  0  0  0  0  0  0
    1.6020    0.8715    0.0000 H   0  0  0  0  0  0  0  0  0  0  0  0
    0.7770    1.6965    0.0000 H   0  0  0  0  0  0  0  0  0  0  0  0
   -0.0480    0.8715    0.0000 H   0  0  0  0  0  0  0  0  0  0  0  0
    2.1846   -0.5376    0.0000 H   0  0  0  0  0  0  0  0  0  0  0  0
    2.4270    0.0458    0.0000 H   0  0  0  0  0  0  0  0  0  0  0  0
    2.1856    0.6296    0.0000 H   0  0  0  0  0  0  0  0  0  0  0  0
   -0.3302   -0.7288    0.0000 H   0  0  0  0  0  0  0  0  0  0  0  0
    0.2341   -0.7288    0.0000 H   0  0  0  0  0  0  0  0  0  0  0  0
   -0.6314    0.6298    0.0000 H   0  0  0  0  0  0  0  0  0  0  0  0
  1  2  1  0  0  0  0
  2  3  2  0  0  0  0
  2  4  1  0  0  0  0
  4  5  1  0  0  0  0
  5  6  1  0  0  0  0
  5  7  1  0  0  0  0
  5  8  1  0  0  0  0
  1  9  1  0  0  0  0
  1 10  1  0  0  0  0
  1 11  1  0  0  0  0
  3 12  1  0  0  0  0
  3 13  1  0  0  0  0
  4 14  1  0  0  0  0
  4 15  1  0  0  0  0
  6 16  1  0  0  0  0
  6 17  1  0  0  0  0
  6 18  1  0  0  0  0
  7 19  1  0  0  0  0
  7 20  1  0  0  0  0
  7 21  1  0  0  0  0
  8 22  1  0  0  0  0
  8 23  1  0  0  0  0
  8 24  1  0  0  0  0
M  END
>  <InChIKey>
FXNDIJDIPNCZQJ-UHFFFAOYSA-N

>  <UN GHS>
Non-irritant

>  <CASRN>
25167-70-8

> <Outcome>
0

>  <Index>
205

>  <StandardizerResult>
Clear Stereo (ID: ClearStereo)
Wedge Clean (ID: WedgeClean)
Mesomerize (ID: Mesomerize)
Tautomerize (ID: Tautomerize)
Add Explicit Hydrogens (ID: AddExplicitH)
Neutralize (ID: Neutralize)
Clean 2D (ID: Clean2D)

> <knn Distance>
2.82842707633972

> <CpId>
205

$$$$
216
  Mrv1532301301811342D          

 29 28  0  0  0  0            999 V2000
    2.2447    2.1324    0.0000 C   0  0  0  0  0  0  0  0  0  0  0  0
    2.9592    2.5449    0.0000 C   0  0  0  0  0  0  0  0  0  0  0  0
    3.6736    2.1324    0.0000 O   0  0  0  0  0  0  0  0  0  0  0  0
    4.3881    2.5449    0.0000 C   0  0  0  0  0  0  0  0  0  0  0  0
    5.1026    2.1324    0.0000 C   0  0  0  0  0  0  0  0  0  0  0  0
    5.8171    2.5449    0.0000 C   0  0  0  0  0  0  0  0  0  0  0  0
    6.5315    2.1324    0.0000 O   0  0  0  0  0  0  0  0  0  0  0  0
    7.2460    2.5449    0.0000 C   0  0  0  0  0  0  0  0  0  0  0  0
    7.2460    3.3699    0.0000 O   0  0  0  0  0  0  0  0  0  0  0  0
    7.9605    2.1324    0.0000 C   0  0  0  0  0  0  0  0  0  0  0  0
    8.6749    2.5449    0.0000 C   0  0  0  0  0  0  0  0  0  0  0  0
    1.8322    2.8468    0.0000 H   0  0  0  0  0  0  0  0  0  0  0  0
    1.5302    1.7199    0.0000 H   0  0  0  0  0  0  0  0  0  0  0  0
    2.6572    1.4179    0.0000 H   0  0  0  0  0  0  0  0  0  0  0  0
    3.3294    3.2821    0.0000 H   0  0  0  0  0  0  0  0  0  0  0  0
    2.5889    3.2821    0.0000 H   0  0  0  0  0  0  0  0  0  0  0  0
    4.7584    3.2821    0.0000 H   0  0  0  0  0  0  0  0  0  0  0  0
    4.0179    3.2821    0.0000 H   0  0  0  0  0  0  0  0  0  0  0  0
    4.7323    1.3951    0.0000 H   0  0  0  0  0  0  0  0  0  0  0  0
    5.4728    1.3951    0.0000 H   0  0  0  0  0  0  0  0  0  0  0  0
    6.1873    3.2821    0.0000 H   0  0  0  0  0  0  0  0  0  0  0  0
    5.4468    3.2821    0.0000 H   0  0  0  0  0  0  0  0  0  0  0  0
    6.5315    2.9574    0.0000 H   0  0  0  0  0  0  0  0  0  0  0  0
    7.6585    4.0843    0.0000 H   0  0  0  0  0  0  0  0  0  0  0  0
    7.5902    1.3951    0.0000 H   0  0  0  0  0  0  0  0  0  0  0  0
    8.3307    1.3951    0.0000 H   0  0  0  0  0  0  0  0  0  0  0  0
    9.0874    1.8304    0.0000 H   0  0  0  0  0  0  0  0  0  0  0  0
    9.3894    2.9574    0.0000 H   0  0  0  0  0  0  0  0  0  0  0  0
    8.2624    3.2593    0.0000 H   0  0  0  0  0  0  0  0  0  0  0  0
  1  2  1  0  0  0  0
  2  3  1  0  0  0  0
  3  4  1  0  0  0  0
  4  5  1  0  0  0  0
  5  6  1  0  0  0  0
  6  7  1  0  0  0  0
  7  8  1  0  0  0  0
  8  9  1  0  0  0  0
  8 10  1  0  0  0  0
 10 11  1  0  0  0  0
  1 12  1  0  0  0  0
  1 13  1  0  0  0  0
  1 14  1  0  0  0  0
  2 15  1  0  0  0  0
  2 16  1  0  0  0  0
  4 17  1  0  0  0  0
  4 18  1  0  0  0  0
  5 19  1  0  0  0  0
  5 20  1  0  0  0  0
  6 21  1  0  0  0  0
  6 22  1  0  0  0  0
  8 23  1  0  0  0  0
  9 24  1  0  0  0  0
 10 25  1  0  0  0  0
 10 26  1  0  0  0  0
 11 27  1  0  0  0  0
 11 28  1  0  0  0  0
 11 29  1  0  0  0  0
M  END
>  <InChIKey>
GEZOSPWWMQDYMS-UHFFFAOYSA-N

>  <UN GHS>
Non-irritant

>  <CASRN>
30025-38-8

> <Outcome>
0

>  <Index>
216

>  <StandardizerResult>
Clear Stereo (ID: ClearStereo)
Wedge Clean (ID: WedgeClean)
Mesomerize (ID: Mesomerize)
Tautomerize (ID: Tautomerize)
Add Explicit Hydrogens (ID: AddExplicitH)
Neutralize (ID: Neutralize)
Clean 2D (ID: Clean2D)

> <knn Distance>
2.82842707633972

> <CpId>
216

$$$$
226
  Mrv1532301301811342D          

 20 19  0  0  0  0            999 V2000
   -0.2227    0.7024    0.0000 C   0  0  0  0  0  0  0  0  0  0  0  0
    0.4917    1.1149    0.0000 C   0  0  0  0  0  0  0  0  0  0  0  0
    0.4917    1.9399    0.0000 C   0  0  0  0  0  0  0  0  0  0  0  0
    1.2062    0.7024    0.0000 C   0  0  0  0  0  0  0  0  0  0  0  0
    1.9207    1.1149    0.0000 O   0  0  0  0  0  0  0  0  0  0  0  0
    2.6351    0.7024    0.0000 C   0  0  0  0  0  0  0  0  0  0  0  0
    3.3496    1.1149    0.0000 C   0  0  0  0  0  0  0  0  0  0  0  0
    2.6351   -0.1226    0.0000 O   0  0  0  0  0  0  0  0  0  0  0  0
   -0.6352    1.4169    0.0000 H   0  0  0  0  0  0  0  0  0  0  0  0
   -0.9372    0.2899    0.0000 H   0  0  0  0  0  0  0  0  0  0  0  0
    0.1898   -0.0121    0.0000 H   0  0  0  0  0  0  0  0  0  0  0  0
   -0.2227    1.5274    0.0000 H   0  0  0  0  0  0  0  0  0  0  0  0
    1.2886    1.7264    0.0000 H   0  0  0  0  0  0  0  0  0  0  0  0
    0.9042    2.6544    0.0000 H   0  0  0  0  0  0  0  0  0  0  0  0
   -0.0916    2.5233    0.0000 H   0  0  0  0  0  0  0  0  0  0  0  0
    0.8359   -0.0348    0.0000 H   0  0  0  0  0  0  0  0  0  0  0  0
    1.5765   -0.0348    0.0000 H   0  0  0  0  0  0  0  0  0  0  0  0
    3.7621    0.4004    0.0000 H   0  0  0  0  0  0  0  0  0  0  0  0
    4.0641    1.5274    0.0000 H   0  0  0  0  0  0  0  0  0  0  0  0
    2.9371    1.8294    0.0000 H   0  0  0  0  0  0  0  0  0  0  0  0
  1  2  1  0  0  0  0
  2  3  1  0  0  0  0
  2  4  1  0  0  0  0
  4  5  1  0  0  0  0
  5  6  1  0  0  0  0
  6  7  1  0  0  0  0
  6  8  2  0  0  0  0
  1  9  1  0  0  0  0
  1 10  1  0  0  0  0
  1 11  1  0  0  0  0
  2 12  1  0  0  0  0
  3 13  1  0  0  0  0
  3 14  1  0  0  0  0
  3 15  1  0  0  0  0
  4 16  1  0  0  0  0
  4 17  1  0  0  0  0
  7 18  1  0  0  0  0
  7 19  1  0  0  0  0
  7 20  1  0  0  0  0
M  END
>  <InChIKey>
GJRQTCIYDGXPES-UHFFFAOYSA-N

>  <UN GHS>
Non-irritant

>  <CASRN>
110-19-0

> <Outcome>
0

>  <Index>
226

>  <StandardizerResult>
Clear Stereo (ID: ClearStereo)
Wedge Clean (ID: WedgeClean)
Mesomerize (ID: Mesomerize)
Tautomerize (ID: Tautomerize)
Add Explicit Hydrogens (ID: AddExplicitH)
Neutralize (ID: Neutralize)
Clean 2D (ID: Clean2D)

> <knn Distance>
2.82842707633972

> <CpId>
226

$$$$
231
  Mrv1532301301811342D          

 65 64  0  0  0  0            999 V2000
   -4.6019   -5.0225    0.0000 C   0  0  0  0  0  0  0  0  0  0  0  0
   -4.1894   -4.3081    0.0000 C   0  0  0  0  0  0  0  0  0  0  0  0
   -3.3644   -4.3081    0.0000 C   0  0  0  0  0  0  0  0  0  0  0  0
   -2.9519   -3.5936    0.0000 C   0  0  0  0  0  0  0  0  0  0  0  0
   -2.1269   -3.5936    0.0000 C   0  0  0  0  0  0  0  0  0  0  0  0
   -1.7144   -4.3081    0.0000 C   0  0  0  0  0  0  0  0  0  0  0  0
   -0.8894   -4.3081    0.0000 C   0  0  0  0  0  0  0  0  0  0  0  0
   -1.7144   -2.8791    0.0000 C   0  0  0  0  0  0  0  0  0  0  0  0
   -2.1269   -2.1646    0.0000 O   0  0  0  0  0  0  0  0  0  0  0  0
   -0.8894   -2.8791    0.0000 O   0  0  0  0  0  0  0  0  0  0  0  0
   -0.4769   -2.1646    0.0000 C   0  0  0  0  0  0  0  0  0  0  0  0
    0.3481   -2.1646    0.0000 C   0  0  0  0  0  0  0  0  0  0  0  0
    0.3481   -2.9896    0.0000 C   0  0  0  0  0  0  0  0  0  0  0  0
    0.3481   -1.3396    0.0000 C   0  0  0  0  0  0  0  0  0  0  0  0
    1.1731   -2.1646    0.0000 C   0  0  0  0  0  0  0  0  0  0  0  0
    1.5856   -1.4502    0.0000 O   0  0  0  0  0  0  0  0  0  0  0  0
    2.4106   -1.4502    0.0000 C   0  0  0  0  0  0  0  0  0  0  0  0
    2.8231   -2.1646    0.0000 O   0  0  0  0  0  0  0  0  0  0  0  0
    2.8231   -0.7357    0.0000 C   0  0  0  0  0  0  0  0  0  0  0  0
    2.4106   -0.0212    0.0000 C   0  0  0  0  0  0  0  0  0  0  0  0
    2.8231    0.6932    0.0000 C   0  0  0  0  0  0  0  0  0  0  0  0
    3.6481   -0.7357    0.0000 C   0  0  0  0  0  0  0  0  0  0  0  0
    4.0606   -0.0212    0.0000 C   0  0  0  0  0  0  0  0  0  0  0  0
    4.8856   -0.0212    0.0000 C   0  0  0  0  0  0  0  0  0  0  0  0
    5.2981    0.6932    0.0000 C   0  0  0  0  0  0  0  0  0  0  0  0
   -5.3163   -4.6100    0.0000 H   0  0  0  0  0  0  0  0  0  0  0  0
   -5.0144   -5.7370    0.0000 H   0  0  0  0  0  0  0  0  0  0  0  0
   -3.8874   -5.4350    0.0000 H   0  0  0  0  0  0  0  0  0  0  0  0
   -4.2373   -3.4845    0.0000 H   0  0  0  0  0  0  0  0  0  0  0  0
   -4.8786   -3.8547    0.0000 H   0  0  0  0  0  0  0  0  0  0  0  0
   -3.3164   -5.1317    0.0000 H   0  0  0  0  0  0  0  0  0  0  0  0
   -2.6751   -4.7614    0.0000 H   0  0  0  0  0  0  0  0  0  0  0  0
   -2.9998   -2.7700    0.0000 H   0  0  0  0  0  0  0  0  0  0  0  0
   -3.6411   -3.1402    0.0000 H   0  0  0  0  0  0  0  0  0  0  0  0
   -2.5394   -4.3081    0.0000 H   0  0  0  0  0  0  0  0  0  0  0  0
   -1.9965   -5.0833    0.0000 H   0  0  0  0  0  0  0  0  0  0  0  0
   -1.4322   -5.0833    0.0000 H   0  0  0  0  0  0  0  0  0  0  0  0
   -0.3454   -4.9283    0.0000 H   0  0  0  0  0  0  0  0  0  0  0  0
   -0.1576   -3.9271    0.0000 H   0  0  0  0  0  0  0  0  0  0  0  0
   -1.0855   -3.5067    0.0000 H   0  0  0  0  0  0  0  0  0  0  0  0
   -0.5248   -1.3410    0.0000 H   0  0  0  0  0  0  0  0  0  0  0  0
   -1.1661   -1.7113    0.0000 H   0  0  0  0  0  0  0  0  0  0  0  0
   -0.4769   -2.9896    0.0000 H   0  0  0  0  0  0  0  0  0  0  0  0
    0.3481   -3.8146    0.0000 H   0  0  0  0  0  0  0  0  0  0  0  0
    1.1731   -2.9896    0.0000 H   0  0  0  0  0  0  0  0  0  0  0  0
    1.1105   -1.6551    0.0000 H   0  0  0  0  0  0  0  0  0  0  0  0
    0.9310   -0.7558    0.0000 H   0  0  0  0  0  0  0  0  0  0  0  0
    0.0315   -0.5778    0.0000 H   0  0  0  0  0  0  0  0  0  0  0  0
    1.8051   -2.6949    0.0000 H   0  0  0  0  0  0  0  0  0  0  0  0
    1.9856   -2.0214    0.0000 H   0  0  0  0  0  0  0  0  0  0  0  0
    1.9981   -0.7357    0.0000 H   0  0  0  0  0  0  0  0  0  0  0  0
    1.8803    0.6108    0.0000 H   0  0  0  0  0  0  0  0  0  0  0  0
    1.5982    0.1220    0.0000 H   0  0  0  0  0  0  0  0  0  0  0  0
    3.4191    0.1227    0.0000 H   0  0  0  0  0  0  0  0  0  0  0  0
    3.5189    1.1365    0.0000 H   0  0  0  0  0  0  0  0  0  0  0  0
    2.5579    1.4745    0.0000 H   0  0  0  0  0  0  0  0  0  0  0  0
    3.6961   -1.5593    0.0000 H   0  0  0  0  0  0  0  0  0  0  0  0
    4.3374   -1.1891    0.0000 H   0  0  0  0  0  0  0  0  0  0  0  0
    4.1515    0.7987    0.0000 H   0  0  0  0  0  0  0  0  0  0  0  0
    4.4731   -0.7357    0.0000 H   0  0  0  0  0  0  0  0  0  0  0  0
    5.4159   -0.6532    0.0000 H   0  0  0  0  0  0  0  0  0  0  0  0
    5.6981   -0.1645    0.0000 H   0  0  0  0  0  0  0  0  0  0  0  0
    6.1073    0.8542    0.0000 H   0  0  0  0  0  0  0  0  0  0  0  0
    5.3341    1.5175    0.0000 H   0  0  0  0  0  0  0  0  0  0  0  0
    4.5061    0.9241    0.0000 H   0  0  0  0  0  0  0  0  0  0  0  0
  1  2  1  0  0  0  0
  2  3  1  0  0  0  0
  3  4  1  0  0  0  0
  4  5  1  0  0  0  0
  5  6  1  0  0  0  0
  6  7  1  0  0  0  0
  5  8  1  0  0  0  0
  8  9  2  0  0  0  0
  8 10  1  0  0  0  0
 10 11  1  0  0  0  0
 11 12  1  0  0  0  0
 12 13  1  0  0  0  0
 12 14  1  0  0  0  0
 12 15  1  0  0  0  0
 15 16  1  0  0  0  0
 16 17  1  0  0  0  0
 17 18  2  0  0  0  0
 17 19  1  0  0  0  0
 19 20  1  0  0  0  0
 20 21  1  0  0  0  0
 19 22  1  0  0  0  0
 22 23  1  0  0  0  0
 23 24  1  0  0  0  0
 24 25  1  0  0  0  0
  1 26  1  0  0  0  0
  1 27  1  0  0  0  0
  1 28  1  0  0  0  0
  2 29  1  0  0  0  0
  2 30  1  0  0  0  0
  3 31  1  0  0  0  0
  3 32  1  0  0  0  0
  4 33  1  0  0  0  0
  4 34  1  0  0  0  0
  5 35  1  0  0  0  0
  6 36  1  0  0  0  0
  6 37  1  0  0  0  0
  7 38  1  0  0  0  0
  7 39  1  0  0  0  0
  7 40  1  0  0  0  0
 11 41  1  0  0  0  0
 11 42  1  0  0  0  0
 13 43  1  0  0  0  0
 13 44  1  0  0  0  0
 13 45  1  0  0  0  0
 14 46  1  0  0  0  0
 14 47  1  0  0  0  0
 14 48  1  0  0  0  0
 15 49  1  0  0  0  0
 15 50  1  0  0  0  0
 19 51  1  0  0  0  0
 20 52  1  0  0  0  0
 20 53  1  0  0  0  0
 21 54  1  0  0  0  0
 21 55  1  0  0  0  0
 21 56  1  0  0  0  0
 22 57  1  0  0  0  0
 22 58  1  0  0  0  0
 23 59  1  0  0  0  0
 23 60  1  0  0  0  0
 24 61  1  0  0  0  0
 24 62  1  0  0  0  0
 25 63  1  0  0  0  0
 25 64  1  0  0  0  0
 25 65  1  0  0  0  0
M  END
>  <InChIKey>
GORMSINSWZJIKL-UHFFFAOYSA-N

>  <UN GHS>
Non-irritant

>  <CASRN>
28510-23-8

> <Outcome>
0

>  <Index>
231

>  <StandardizerResult>
Clear Stereo (ID: ClearStereo)
Wedge Clean (ID: WedgeClean)
Mesomerize (ID: Mesomerize)
Tautomerize (ID: Tautomerize)
Add Explicit Hydrogens (ID: AddExplicitH)
Neutralize (ID: Neutralize)
Clean 2D (ID: Clean2D)

> <knn Distance>
2.82842707633972

> <CpId>
231

$$$$
248
  Mrv1532301301811342D          

 15 14  0  0  0  0            999 V2000
    1.2375    2.1434    0.0000 C   0  0  0  0  0  0  0  0  0  0  0  0
    0.8250    1.4289    0.0000 C   0  0  0  0  0  0  0  0  0  0  0  0
   -0.0000    1.4289    0.0000 C   0  0  0  0  0  0  0  0  0  0  0  0
    1.2375    0.7145    0.0000 O   0  0  0  0  0  0  0  0  0  0  0  0
    0.8250   -0.0000    0.0000 C   0  0  0  0  0  0  0  0  0  0  0  0
    1.2375   -0.7145    0.0000 C   0  0  0  0  0  0  0  0  0  0  0  0
   -0.0000   -0.0000    0.0000 O   0  0  0  0  0  0  0  0  0  0  0  0
    1.9520    1.7309    0.0000 H   0  0  0  0  0  0  0  0  0  0  0  0
    1.6500    2.8579    0.0000 H   0  0  0  0  0  0  0  0  0  0  0  0
    0.5230    2.5559    0.0000 H   0  0  0  0  0  0  0  0  0  0  0  0
   -0.4125    2.1434    0.0000 H   0  0  0  0  0  0  0  0  0  0  0  0
   -0.4125    0.7145    0.0000 H   0  0  0  0  0  0  0  0  0  0  0  0
    0.5230   -1.1270    0.0000 H   0  0  0  0  0  0  0  0  0  0  0  0
    1.6500   -1.4290    0.0000 H   0  0  0  0  0  0  0  0  0  0  0  0
    1.9520   -0.3020    0.0000 H   0  0  0  0  0  0  0  0  0  0  0  0
  1  2  1  0  0  0  0
  2  3  2  0  0  0  0
  2  4  1  0  0  0  0
  4  5  1  0  0  0  0
  5  6  1  0  0  0  0
  5  7  2  0  0  0  0
  1  8  1  0  0  0  0
  1  9  1  0  0  0  0
  1 10  1  0  0  0  0
  3 11  1  0  0  0  0
  3 12  1  0  0  0  0
  6 13  1  0  0  0  0
  6 14  1  0  0  0  0
  6 15  1  0  0  0  0
M  END
>  <InChIKey>
HETCEOQFVDFGSY-UHFFFAOYSA-N

>  <UN GHS>
Non-irritant

>  <CASRN>
108-22-5

> <Outcome>
0

>  <Index>
248

>  <StandardizerResult>
Clear Stereo (ID: ClearStereo)
Wedge Clean (ID: WedgeClean)
Mesomerize (ID: Mesomerize)
Tautomerize (ID: Tautomerize)
Add Explicit Hydrogens (ID: AddExplicitH)
Neutralize (ID: Neutralize)
Clean 2D (ID: Clean2D)

> <knn Distance>
2.82842707633972

> <CpId>
248

$$$$
308
  Mrv1532301301811342D          

 27 26  0  0  0  0            999 V2000
    1.7605    1.8421    0.0000 C   0  0  0  0  0  0  0  0  0  0  0  0
    2.4750    1.4296    0.0000 C   0  0  0  0  0  0  0  0  0  0  0  0
    3.1895    1.8421    0.0000 C   0  0  0  0  0  0  0  0  0  0  0  0
    3.9039    1.4296    0.0000 C   0  0  0  0  0  0  0  0  0  0  0  0
    4.6184    1.8421    0.0000 C   0  0  0  0  0  0  0  0  0  0  0  0
    5.3329    1.4296    0.0000 C   0  0  0  0  0  0  0  0  0  0  0  0
    6.0474    1.8421    0.0000 C   0  0  0  0  0  0  0  0  0  0  0  0
    6.7618    1.4296    0.0000 C   0  0  0  0  0  0  0  0  0  0  0  0
    7.4763    1.8421    0.0000 C   0  0  0  0  0  0  0  0  0  0  0  0
    2.1730    2.5565    0.0000 H   0  0  0  0  0  0  0  0  0  0  0  0
    1.0461    2.2546    0.0000 H   0  0  0  0  0  0  0  0  0  0  0  0
    1.3480    1.1276    0.0000 H   0  0  0  0  0  0  0  0  0  0  0  0
    2.1047    0.6923    0.0000 H   0  0  0  0  0  0  0  0  0  0  0  0
    2.8453    0.6923    0.0000 H   0  0  0  0  0  0  0  0  0  0  0  0
    3.5597    2.5793    0.0000 H   0  0  0  0  0  0  0  0  0  0  0  0
    2.8192    2.5793    0.0000 H   0  0  0  0  0  0  0  0  0  0  0  0
    3.5337    0.6923    0.0000 H   0  0  0  0  0  0  0  0  0  0  0  0
    4.2742    0.6923    0.0000 H   0  0  0  0  0  0  0  0  0  0  0  0
    4.9887    2.5793    0.0000 H   0  0  0  0  0  0  0  0  0  0  0  0
    4.2482    2.5793    0.0000 H   0  0  0  0  0  0  0  0  0  0  0  0
    4.9626    0.6923    0.0000 H   0  0  0  0  0  0  0  0  0  0  0  0
    5.7031    0.6923    0.0000 H   0  0  0  0  0  0  0  0  0  0  0  0
    6.0474    2.6671    0.0000 H   0  0  0  0  0  0  0  0  0  0  0  0
    6.7618    0.6046    0.0000 H   0  0  0  0  0  0  0  0  0  0  0  0
    7.8888    1.1276    0.0000 H   0  0  0  0  0  0  0  0  0  0  0  0
    8.1908    2.2546    0.0000 H   0  0  0  0  0  0  0  0  0  0  0  0
    7.0638    2.5565    0.0000 H   0  0  0  0  0  0  0  0  0  0  0  0
  1  2  1  0  0  0  0
  2  3  1  0  0  0  0
  3  4  1  0  0  0  0
  4  5  1  0  0  0  0
  5  6  1  0  0  0  0
  6  7  1  0  0  0  0
  7  8  2  0  0  0  0
  8  9  1  4  0  0  0
  1 10  1  0  0  0  0
  1 11  1  0  0  0  0
  1 12  1  0  0  0  0
  2 13  1  0  0  0  0
  2 14  1  0  0  0  0
  3 15  1  0  0  0  0
  3 16  1  0  0  0  0
  4 17  1  0  0  0  0
  4 18  1  0  0  0  0
  5 19  1  0  0  0  0
  5 20  1  0  0  0  0
  6 21  1  0  0  0  0
  6 22  1  0  0  0  0
  7 23  1  0  0  0  0
  8 24  1  0  0  0  0
  9 25  1  0  0  0  0
  9 26  1  0  0  0  0
  9 27  1  0  0  0  0
M  END
>  <InChIKey>
IICQZTQZQSBHBY-HWKANZROSA-N

>  <UN GHS>
Non-irritant

>  <CASRN>
27215-95-8

> <Outcome>
0

>  <Index>
308

>  <StandardizerResult>
Clear Stereo (ID: ClearStereo)
Wedge Clean (ID: WedgeClean)
Mesomerize (ID: Mesomerize)
Tautomerize (ID: Tautomerize)
Add Explicit Hydrogens (ID: AddExplicitH)
Neutralize (ID: Neutralize)
Clean 2D (ID: Clean2D)

> <knn Distance>
2.82842707633972

> <CpId>
308

$$$$
318
  Mrv1532301301811342D          

 21 22  0  0  0  0            999 V2000
   -0.6381    1.7630    0.0000 C   0  0  0  0  0  0  0  0  0  0  0  0
   -0.6381    0.9380    0.0000 C   0  0  0  0  0  0  0  0  0  0  0  0
    0.0763    0.5255    0.0000 C   0  0  0  0  0  0  0  0  0  0  0  0
    0.0763   -0.2995    0.0000 C   0  0  0  0  0  0  0  0  0  0  0  0
    0.7908   -0.7120    0.0000 C   0  0  0  0  0  0  0  0  0  0  0  0
    0.5845    0.1130    0.0000 C   0  0  0  0  0  0  0  0  0  0  0  0
    0.7908    0.9380    0.0000 C   0  0  0  0  0  0  0  0  0  0  0  0
    1.5053    0.5255    0.0000 C   0  0  0  0  0  0  0  0  0  0  0  0
    1.5053   -0.2995    0.0000 C   0  0  0  0  0  0  0  0  0  0  0  0
    0.0763    2.1755    0.0000 H   0  0  0  0  0  0  0  0  0  0  0  0
   -1.3526    2.1755    0.0000 H   0  0  0  0  0  0  0  0  0  0  0  0
   -1.3526    0.5255    0.0000 H   0  0  0  0  0  0  0  0  0  0  0  0
    0.0763    1.3505    0.0000 H   0  0  0  0  0  0  0  0  0  0  0  0
   -0.7473   -0.3475    0.0000 H   0  0  0  0  0  0  0  0  0  0  0  0
   -0.3770   -0.9888    0.0000 H   0  0  0  0  0  0  0  0  0  0  0  0
    0.7908   -1.5370    0.0000 H   0  0  0  0  0  0  0  0  0  0  0  0
    1.3303   -0.2399    0.0000 H   0  0  0  0  0  0  0  0  0  0  0  0
    1.3303    0.4658    0.0000 H   0  0  0  0  0  0  0  0  0  0  0  0
    1.2033    1.6525    0.0000 H   0  0  0  0  0  0  0  0  0  0  0  0
    2.2197    0.9380    0.0000 H   0  0  0  0  0  0  0  0  0  0  0  0
    2.2197   -0.7120    0.0000 H   0  0  0  0  0  0  0  0  0  0  0  0
  1  2  2  0  0  0  0
  2  3  1  0  0  0  0
  3  4  1  0  0  0  0
  4  5  1  0  0  0  0
  5  6  1  0  0  0  0
  6  7  1  0  0  0  0
  3  7  1  0  0  0  0
  7  8  1  0  0  0  0
  8  9  2  0  0  0  0
  5  9  1  0  0  0  0
  1 10  1  4  0  0  0
  1 11  1  0  0  0  0
  2 12  1  0  0  0  0
  3 13  1  0  0  0  0
  4 14  1  0  0  0  0
  4 15  1  0  0  0  0
  5 16  1  0  0  0  0
  6 17  1  0  0  0  0
  6 18  1  0  0  0  0
  7 19  1  0  0  0  0
  8 20  1  0  0  0  0
  9 21  1  0  0  0  0
M  END
>  <InChIKey>
INYHZQLKOKTDAI-UHFFFAOYSA-N

>  <UN GHS>
Non-irritant

>  <CASRN>
3048-64-4

> <Outcome>
0

>  <Index>
318

>  <StandardizerResult>
Clear Stereo (ID: ClearStereo)
Wedge Clean (ID: WedgeClean)
Mesomerize (ID: Mesomerize)
Tautomerize (ID: Tautomerize)
Add Explicit Hydrogens (ID: AddExplicitH)
Neutralize (ID: Neutralize)
Clean 2D (ID: Clean2D)

> <knn Distance>
2.82842707633972

> <CpId>
318

$$$$
336
  Mrv1532301301811342D          

 36 35  0  0  0  0            999 V2000
   -0.3825    6.3796    0.0000 C   0  0  0  0  0  0  0  0  0  0  0  0
   -0.3825    5.5546    0.0000 C   0  0  0  0  0  0  0  0  0  0  0  0
    0.3320    5.1421    0.0000 C   0  0  0  0  0  0  0  0  0  0  0  0
    0.3320    4.3171    0.0000 C   0  0  0  0  0  0  0  0  0  0  0  0
    1.0465    3.9046    0.0000 O   0  0  0  0  0  0  0  0  0  0  0  0
    1.0465    3.0796    0.0000 C   0  0  0  0  0  0  0  0  0  0  0  0
    0.3320    2.6671    0.0000 O   0  0  0  0  0  0  0  0  0  0  0  0
    1.7610    2.6671    0.0000 C   0  0  0  0  0  0  0  0  0  0  0  0
    1.7610    1.8421    0.0000 C   0  0  0  0  0  0  0  0  0  0  0  0
    2.4754    1.4296    0.0000 C   0  0  0  0  0  0  0  0  0  0  0  0
    2.4754    0.6046    0.0000 O   0  0  0  0  0  0  0  0  0  0  0  0
    3.1899    1.8421    0.0000 O   0  0  0  0  0  0  0  0  0  0  0  0
    3.9044    1.4296    0.0000 C   0  0  0  0  0  0  0  0  0  0  0  0
    4.6188    1.8421    0.0000 C   0  0  0  0  0  0  0  0  0  0  0  0
    5.3333    1.4296    0.0000 C   0  0  0  0  0  0  0  0  0  0  0  0
    6.0478    1.8421    0.0000 C   0  0  0  0  0  0  0  0  0  0  0  0
    0.4425    6.3796    0.0000 H   0  0  0  0  0  0  0  0  0  0  0  0
   -0.3825    7.2046    0.0000 H   0  0  0  0  0  0  0  0  0  0  0  0
   -1.2075    6.3796    0.0000 H   0  0  0  0  0  0  0  0  0  0  0  0
   -1.2061    5.5067    0.0000 H   0  0  0  0  0  0  0  0  0  0  0  0
   -0.8358    4.8654    0.0000 H   0  0  0  0  0  0  0  0  0  0  0  0
    1.1556    5.1901    0.0000 H   0  0  0  0  0  0  0  0  0  0  0  0
    0.7854    5.8314    0.0000 H   0  0  0  0  0  0  0  0  0  0  0  0
   -0.4916    4.2692    0.0000 H   0  0  0  0  0  0  0  0  0  0  0  0
   -0.1213    3.6279    0.0000 H   0  0  0  0  0  0  0  0  0  0  0  0
    2.4754    3.0796    0.0000 H   0  0  0  0  0  0  0  0  0  0  0  0
    1.0465    1.4296    0.0000 H   0  0  0  0  0  0  0  0  0  0  0  0
    3.5341    0.6924    0.0000 H   0  0  0  0  0  0  0  0  0  0  0  0
    4.2746    0.6924    0.0000 H   0  0  0  0  0  0  0  0  0  0  0  0
    4.9891    2.5794    0.0000 H   0  0  0  0  0  0  0  0  0  0  0  0
    4.2486    2.5794    0.0000 H   0  0  0  0  0  0  0  0  0  0  0  0
    4.9630    0.6924    0.0000 H   0  0  0  0  0  0  0  0  0  0  0  0
    5.7036    0.6924    0.0000 H   0  0  0  0  0  0  0  0  0  0  0  0
    6.4603    1.1277    0.0000 H   0  0  0  0  0  0  0  0  0  0  0  0
    6.7623    2.2546    0.0000 H   0  0  0  0  0  0  0  0  0  0  0  0
    5.6353    2.5566    0.0000 H   0  0  0  0  0  0  0  0  0  0  0  0
  1  2  1  0  0  0  0
  2  3  1  0  0  0  0
  3  4  1  0  0  0  0
  4  5  1  0  0  0  0
  5  6  1  0  0  0  0
  6  7  2  0  0  0  0
  8  6  1  4  0  0  0
  8  9  2  0  0  0  0
  9 10  1  0  0  0  0
 10 11  2  0  0  0  0
 10 12  1  0  0  0  0
 12 13  1  0  0  0  0
 13 14  1  0  0  0  0
 14 15  1  0  0  0  0
 15 16  1  0  0  0  0
  1 17  1  0  0  0  0
  1 18  1  0  0  0  0
  1 19  1  0  0  0  0
  2 20  1  0  0  0  0
  2 21  1  0  0  0  0
  3 22  1  0  0  0  0
  3 23  1  0  0  0  0
  4 24  1  0  0  0  0
  4 25  1  0  0  0  0
  8 26  1  0  0  0  0
  9 27  1  0  0  0  0
 13 28  1  0  0  0  0
 13 29  1  0  0  0  0
 14 30  1  0  0  0  0
 14 31  1  0  0  0  0
 15 32  1  0  0  0  0
 15 33  1  0  0  0  0
 16 34  1  0  0  0  0
 16 35  1  0  0  0  0
 16 36  1  0  0  0  0
M  END
>  <InChIKey>
JBSLOWBPDRZSMB-BQYQJAHWSA-N

>  <UN GHS>
Non-irritant

>  <CASRN>
105-75-9

> <Outcome>
0

>  <Index>
336

>  <StandardizerResult>
Clear Stereo (ID: ClearStereo)
Wedge Clean (ID: WedgeClean)
Mesomerize (ID: Mesomerize)
Tautomerize (ID: Tautomerize)
Add Explicit Hydrogens (ID: AddExplicitH)
Neutralize (ID: Neutralize)
Clean 2D (ID: Clean2D)

> <knn Distance>
2.82842707633972

> <CpId>
336

$$$$
347
  Mrv1532301301811342D          

 64 64  0  0  0  0            999 V2000
   -8.5741    3.3055    0.0000 C   0  0  0  0  0  0  0  0  0  0  0  0
   -7.8597    3.7180    0.0000 C   0  0  0  0  0  0  0  0  0  0  0  0
   -7.1452    3.3055    0.0000 O   0  0  0  0  0  0  0  0  0  0  0  0
   -6.4307    3.7180    0.0000 C   0  0  0  0  0  0  0  0  0  0  0  0
   -5.7163    3.3055    0.0000 C   0  0  0  0  0  0  0  0  0  0  0  0
   -5.0018    3.7180    0.0000 O   0  0  0  0  0  0  0  0  0  0  0  0
   -4.2873    3.3055    0.0000 C   0  0  0  0  0  0  0  0  0  0  0  0
   -3.5728    3.7180    0.0000 C   0  0  0  0  0  0  0  0  0  0  0  0
   -2.8584    3.3055    0.0000 O   0  0  0  0  0  0  0  0  0  0  0  0
   -2.1439    3.7180    0.0000 C   0  0  0  0  0  0  0  0  0  0  0  0
   -2.1439    4.5430    0.0000 O   0  0  0  0  0  0  0  0  0  0  0  0
   -1.4294    3.3055    0.0000 C   0  0  0  0  0  0  0  0  0  0  0  0
   -0.7150    3.7180    0.0000 C   0  0  0  0  0  0  0  0  0  0  0  0
   -0.0005    3.3055    0.0000 C   0  0  0  0  0  0  0  0  0  0  0  0
   -0.0005    2.4805    0.0000 C   0  0  0  0  0  0  0  0  0  0  0  0
   -0.7150    2.0680    0.0000 C   0  0  0  0  0  0  0  0  0  0  0  0
   -1.4294    2.4805    0.0000 C   0  0  0  0  0  0  0  0  0  0  0  0
    0.7140    2.0680    0.0000 C   0  0  0  0  0  0  0  0  0  0  0  0
    0.7140    1.2430    0.0000 O   0  0  0  0  0  0  0  0  0  0  0  0
    1.4285    2.4805    0.0000 O   0  0  0  0  0  0  0  0  0  0  0  0
    2.1429    2.0680    0.0000 C   0  0  0  0  0  0  0  0  0  0  0  0
    2.8574    2.4805    0.0000 C   0  0  0  0  0  0  0  0  0  0  0  0
    3.5719    2.0680    0.0000 O   0  0  0  0  0  0  0  0  0  0  0  0
    4.2863    2.4805    0.0000 C   0  0  0  0  0  0  0  0  0  0  0  0
    5.0008    2.0680    0.0000 C   0  0  0  0  0  0  0  0  0  0  0  0
    5.7153    2.4805    0.0000 O   0  0  0  0  0  0  0  0  0  0  0  0
    6.4298    2.0680    0.0000 C   0  0  0  0  0  0  0  0  0  0  0  0
    7.1442    2.4805    0.0000 C   0  0  0  0  0  0  0  0  0  0  0  0
   -8.9866    4.0200    0.0000 H   0  0  0  0  0  0  0  0  0  0  0  0
   -9.2886    2.8930    0.0000 H   0  0  0  0  0  0  0  0  0  0  0  0
   -8.1616    2.5910    0.0000 H   0  0  0  0  0  0  0  0  0  0  0  0
   -7.4894    4.4552    0.0000 H   0  0  0  0  0  0  0  0  0  0  0  0
   -8.2299    4.4552    0.0000 H   0  0  0  0  0  0  0  0  0  0  0  0
   -6.0605    4.4552    0.0000 H   0  0  0  0  0  0  0  0  0  0  0  0
   -6.8010    4.4552    0.0000 H   0  0  0  0  0  0  0  0  0  0  0  0
   -6.0865    2.5682    0.0000 H   0  0  0  0  0  0  0  0  0  0  0  0
   -5.3460    2.5682    0.0000 H   0  0  0  0  0  0  0  0  0  0  0  0
   -4.6576    2.5682    0.0000 H   0  0  0  0  0  0  0  0  0  0  0  0
   -3.9171    2.5682    0.0000 H   0  0  0  0  0  0  0  0  0  0  0  0
   -3.2026    4.4552    0.0000 H   0  0  0  0  0  0  0  0  0  0  0  0
   -3.9431    4.4552    0.0000 H   0  0  0  0  0  0  0  0  0  0  0  0
   -2.1439    2.8930    0.0000 H   0  0  0  0  0  0  0  0  0  0  0  0
   -0.3447    4.4552    0.0000 H   0  0  0  0  0  0  0  0  0  0  0  0
   -1.0852    4.4552    0.0000 H   0  0  0  0  0  0  0  0  0  0  0  0
    0.8231    3.3535    0.0000 H   0  0  0  0  0  0  0  0  0  0  0  0
    0.4529    3.9948    0.0000 H   0  0  0  0  0  0  0  0  0  0  0  0
   -0.0005    1.6555    0.0000 H   0  0  0  0  0  0  0  0  0  0  0  0
   -1.3469    1.5377    0.0000 H   0  0  0  0  0  0  0  0  0  0  0  0
   -0.8582    1.2555    0.0000 H   0  0  0  0  0  0  0  0  0  0  0  0
   -2.1252    2.0372    0.0000 H   0  0  0  0  0  0  0  0  0  0  0  0
   -0.7150    2.8930    0.0000 H   0  0  0  0  0  0  0  0  0  0  0  0
    1.7727    1.3307    0.0000 H   0  0  0  0  0  0  0  0  0  0  0  0
    2.5132    1.3307    0.0000 H   0  0  0  0  0  0  0  0  0  0  0  0
    3.2277    3.2177    0.0000 H   0  0  0  0  0  0  0  0  0  0  0  0
    2.4871    3.2177    0.0000 H   0  0  0  0  0  0  0  0  0  0  0  0
    4.6566    3.2177    0.0000 H   0  0  0  0  0  0  0  0  0  0  0  0
    3.9161    3.2177    0.0000 H   0  0  0  0  0  0  0  0  0  0  0  0
    4.6306    1.3307    0.0000 H   0  0  0  0  0  0  0  0  0  0  0  0
    5.3711    1.3307    0.0000 H   0  0  0  0  0  0  0  0  0  0  0  0
    6.0595    1.3307    0.0000 H   0  0  0  0  0  0  0  0  0  0  0  0
    6.8000    1.3307    0.0000 H   0  0  0  0  0  0  0  0  0  0  0  0
    7.5567    1.7660    0.0000 H   0  0  0  0  0  0  0  0  0  0  0  0
    7.8587    2.8930    0.0000 H   0  0  0  0  0  0  0  0  0  0  0  0
    6.7317    3.1950    0.0000 H   0  0  0  0  0  0  0  0  0  0  0  0
  1  2  1  0  0  0  0
  2  3  1  0  0  0  0
  3  4  1  0  0  0  0
  4  5  1  0  0  0  0
  5  6  1  0  0  0  0
  6  7  1  0  0  0  0
  7  8  1  0  0  0  0
  8  9  1  0  0  0  0
  9 10  1  0  0  0  0
 10 11  2  0  0  0  0
 10 12  1  0  0  0  0
 12 13  1  0  0  0  0
 13 14  1  0  0  0  0
 14 15  1  0  0  0  0
 15 16  1  0  0  0  0
 16 17  1  0  0  0  0
 12 17  1  0  0  0  0
 15 18  1  0  0  0  0
 18 19  2  0  0  0  0
 18 20  1  0  0  0  0
 20 21  1  0  0  0  0
 21 22  1  0  0  0  0
 22 23  1  0  0  0  0
 23 24  1  0  0  0  0
 24 25  1  0  0  0  0
 25 26  1  0  0  0  0
 26 27  1  0  0  0  0
 27 28  1  0  0  0  0
  1 29  1  0  0  0  0
  1 30  1  0  0  0  0
  1 31  1  0  0  0  0
  2 32  1  0  0  0  0
  2 33  1  0  0  0  0
  4 34  1  0  0  0  0
  4 35  1  0  0  0  0
  5 36  1  0  0  0  0
  5 37  1  0  0  0  0
  7 38  1  0  0  0  0
  7 39  1  0  0  0  0
  8 40  1  0  0  0  0
  8 41  1  0  0  0  0
 12 42  1  0  0  0  0
 13 43  1  0  0  0  0
 13 44  1  0  0  0  0
 14 45  1  0  0  0  0
 14 46  1  0  0  0  0
 15 47  1  0  0  0  0
 16 48  1  0  0  0  0
 16 49  1  0  0  0  0
 17 50  1  0  0  0  0
 17 51  1  0  0  0  0
 21 52  1  0  0  0  0
 21 53  1  0  0  0  0
 22 54  1  0  0  0  0
 22 55  1  0  0  0  0
 24 56  1  0  0  0  0
 24 57  1  0  0  0  0
 25 58  1  0  0  0  0
 25 59  1  0  0  0  0
 27 60  1  0  0  0  0
 27 61  1  0  0  0  0
 28 62  1  0  0  0  0
 28 63  1  0  0  0  0
 28 64  1  0  0  0  0
M  END
>  <InChIKey>
JNFDQAYPZCYWLD-UHFFFAOYSA-N

>  <UN GHS>
Non-irritant

>  <CASRN>
922165-31-9

> <Outcome>
0

>  <Index>
347

>  <StandardizerResult>
Clear Stereo (ID: ClearStereo)
Wedge Clean (ID: WedgeClean)
Mesomerize (ID: Mesomerize)
Tautomerize (ID: Tautomerize)
Add Explicit Hydrogens (ID: AddExplicitH)
Neutralize (ID: Neutralize)
Clean 2D (ID: Clean2D)

> <knn Distance>
2.82842707633972

> <CpId>
347

$$$$
398
  Mrv1532301301811342D          

 47 46  0  0  0  0            999 V2000
    7.9480    5.4142    0.0000 C   0  0  0  0  0  0  0  0  0  0  0  0
    8.6625    5.0017    0.0000 C   0  0  0  0  0  0  0  0  0  0  0  0
    9.3770    5.4142    0.0000 C   0  0  0  0  0  0  0  0  0  0  0  0
   10.0914    5.0017    0.0000 C   0  0  0  0  0  0  0  0  0  0  0  0
   10.8059    5.4142    0.0000 C   0  0  0  0  0  0  0  0  0  0  0  0
   11.5204    5.0017    0.0000 C   0  0  0  0  0  0  0  0  0  0  0  0
   12.2349    5.4142    0.0000 C   0  0  0  0  0  0  0  0  0  0  0  0
   12.9493    5.0017    0.0000 C   0  0  0  0  0  0  0  0  0  0  0  0
   13.6638    5.4142    0.0000 C   0  0  0  0  0  0  0  0  0  0  0  0
   14.3783    5.0017    0.0000 C   0  0  0  0  0  0  0  0  0  0  0  0
   15.0927    5.4142    0.0000 C   0  0  0  0  0  0  0  0  0  0  0  0
   15.8072    5.0017    0.0000 C   0  0  0  0  0  0  0  0  0  0  0  0
   16.5217    5.4142    0.0000 C   0  0  0  0  0  0  0  0  0  0  0  0
   17.2362    5.0017    0.0000 C   0  0  0  0  0  0  0  0  0  0  0  0
   17.9506    5.4142    0.0000 O   0  0  0  0  0  0  0  0  0  0  0  0
   18.6651    5.0017    0.0000 C   0  0  0  0  0  0  0  0  0  0  0  0
   19.3796    5.4142    0.0000 Cl  0  0  0  0  0  0  0  0  0  0  0  0
   18.6651    4.1767    0.0000 O   0  0  0  0  0  0  0  0  0  0  0  0
    8.3605    6.1286    0.0000 H   0  0  0  0  0  0  0  0  0  0  0  0
    7.2336    5.8267    0.0000 H   0  0  0  0  0  0  0  0  0  0  0  0
    7.5355    4.6997    0.0000 H   0  0  0  0  0  0  0  0  0  0  0  0
    8.2922    4.2644    0.0000 H   0  0  0  0  0  0  0  0  0  0  0  0
    9.0328    4.2644    0.0000 H   0  0  0  0  0  0  0  0  0  0  0  0
    9.7472    6.1514    0.0000 H   0  0  0  0  0  0  0  0  0  0  0  0
    9.0067    6.1514    0.0000 H   0  0  0  0  0  0  0  0  0  0  0  0
    9.7212    4.2644    0.0000 H   0  0  0  0  0  0  0  0  0  0  0  0
   10.4617    4.2644    0.0000 H   0  0  0  0  0  0  0  0  0  0  0  0
   11.1762    6.1514    0.0000 H   0  0  0  0  0  0  0  0  0  0  0  0
   10.4357    6.1514    0.0000 H   0  0  0  0  0  0  0  0  0  0  0  0
   11.1501    4.2644    0.0000 H   0  0  0  0  0  0  0  0  0  0  0  0
   11.8906    4.2644    0.0000 H   0  0  0  0  0  0  0  0  0  0  0  0
   12.6051    6.1514    0.0000 H   0  0  0  0  0  0  0  0  0  0  0  0
   11.8646    6.1514    0.0000 H   0  0  0  0  0  0  0  0  0  0  0  0
   12.5791    4.2644    0.0000 H   0  0  0  0  0  0  0  0  0  0  0  0
   13.3196    4.2644    0.0000 H   0  0  0  0  0  0  0  0  0  0  0  0
   14.0341    6.1514    0.0000 H   0  0  0  0  0  0  0  0  0  0  0  0
   13.2935    6.1514    0.0000 H   0  0  0  0  0  0  0  0  0  0  0  0
   14.0080    4.2644    0.0000 H   0  0  0  0  0  0  0  0  0  0  0  0
   14.7485    4.2644    0.0000 H   0  0  0  0  0  0  0  0  0  0  0  0
   15.4630    6.1514    0.0000 H   0  0  0  0  0  0  0  0  0  0  0  0
   14.7225    6.1514    0.0000 H   0  0  0  0  0  0  0  0  0  0  0  0
   15.4370    4.2644    0.0000 H   0  0  0  0  0  0  0  0  0  0  0  0
   16.1775    4.2644    0.0000 H   0  0  0  0  0  0  0  0  0  0  0  0
   16.8919    6.1514    0.0000 H   0  0  0  0  0  0  0  0  0  0  0  0
   16.1514    6.1514    0.0000 H   0  0  0  0  0  0  0  0  0  0  0  0
   16.8659    4.2644    0.0000 H   0  0  0  0  0  0  0  0  0  0  0  0
   17.6064    4.2644    0.0000 H   0  0  0  0  0  0  0  0  0  0  0  0
  1  2  1  0  0  0  0
  2  3  1  0  0  0  0
  3  4  1  0  0  0  0
  4  5  1  0  0  0  0
  5  6  1  0  0  0  0
  6  7  1  0  0  0  0
  7  8  1  0  0  0  0
  8  9  1  0  0  0  0
  9 10  1  0  0  0  0
 10 11  1  0  0  0  0
 11 12  1  0  0  0  0
 12 13  1  0  0  0  0
 13 14  1  0  0  0  0
 14 15  1  0  0  0  0
 15 16  1  0  0  0  0
 16 17  1  0  0  0  0
 16 18  2  0  0  0  0
  1 19  1  0  0  0  0
  1 20  1  0  0  0  0
  1 21  1  0  0  0  0
  2 22  1  0  0  0  0
  2 23  1  0  0  0  0
  3 24  1  0  0  0  0
  3 25  1  0  0  0  0
  4 26  1  0  0  0  0
  4 27  1  0  0  0  0
  5 28  1  0  0  0  0
  5 29  1  0  0  0  0
  6 30  1  0  0  0  0
  6 31  1  0  0  0  0
  7 32  1  0  0  0  0
  7 33  1  0  0  0  0
  8 34  1  0  0  0  0
  8 35  1  0  0  0  0
  9 36  1  0  0  0  0
  9 37  1  0  0  0  0
 10 38  1  0  0  0  0
 10 39  1  0  0  0  0
 11 40  1  0  0  0  0
 11 41  1  0  0  0  0
 12 42  1  0  0  0  0
 12 43  1  0  0  0  0
 13 44  1  0  0  0  0
 13 45  1  0  0  0  0
 14 46  1  0  0  0  0
 14 47  1  0  0  0  0
M  END
>  <InChIKey>
KQHBSKZGPQPRIT-UHFFFAOYSA-N

>  <UN GHS>
Non-irritant

>  <CASRN>
56677-60-2

> <Outcome>
0

>  <Index>
398

>  <StandardizerResult>
Clear Stereo (ID: ClearStereo)
Wedge Clean (ID: WedgeClean)
Mesomerize (ID: Mesomerize)
Tautomerize (ID: Tautomerize)
Add Explicit Hydrogens (ID: AddExplicitH)
Neutralize (ID: Neutralize)
Clean 2D (ID: Clean2D)

> <knn Distance>
2.82842707633972

> <CpId>
398

$$$$
417
  Mrv1532301301811342D          

 63 62  0  0  0  0            999 V2000
    9.1397    6.1402    0.0000 C   0  0  0  0  0  0  0  0  0  0  0  0
    9.8542    5.7277    0.0000 C   0  0  0  0  0  0  0  0  0  0  0  0
   10.5687    6.1402    0.0000 C   0  0  0  0  0  0  0  0  0  0  0  0
   11.2831    5.7277    0.0000 C   0  0  0  0  0  0  0  0  0  0  0  0
   11.9976    6.1402    0.0000 C   0  0  0  0  0  0  0  0  0  0  0  0
   11.9976    6.9652    0.0000 C   0  0  0  0  0  0  0  0  0  0  0  0
   12.7121    7.3777    0.0000 C   0  0  0  0  0  0  0  0  0  0  0  0
   12.7121    5.7277    0.0000 C   0  0  0  0  0  0  0  0  0  0  0  0
   13.4265    6.1402    0.0000 O   0  0  0  0  0  0  0  0  0  0  0  0
   14.1410    5.7277    0.0000 C   0  0  0  0  0  0  0  0  0  0  0  0
   14.1410    4.9027    0.0000 O   0  0  0  0  0  0  0  0  0  0  0  0
   14.8555    6.1402    0.0000 C   0  0  0  0  0  0  0  0  0  0  0  0
   15.5700    5.7277    0.0000 S   0  0  0  0  0  0  0  0  0  0  0  0
   16.2844    6.1402    0.0000 C   0  0  0  0  0  0  0  0  0  0  0  0
   16.9989    5.7277    0.0000 C   0  0  0  0  0  0  0  0  0  0  0  0
   16.9989    4.9027    0.0000 O   0  0  0  0  0  0  0  0  0  0  0  0
   17.7134    6.1402    0.0000 O   0  0  0  0  0  0  0  0  0  0  0  0
   18.4278    5.7277    0.0000 C   0  0  0  0  0  0  0  0  0  0  0  0
   19.1423    6.1402    0.0000 C   0  0  0  0  0  0  0  0  0  0  0  0
   19.1423    6.9652    0.0000 C   0  0  0  0  0  0  0  0  0  0  0  0
   19.8568    7.3777    0.0000 C   0  0  0  0  0  0  0  0  0  0  0  0
   19.8568    5.7277    0.0000 C   0  0  0  0  0  0  0  0  0  0  0  0
   20.5713    6.1402    0.0000 C   0  0  0  0  0  0  0  0  0  0  0  0
   21.2857    5.7277    0.0000 C   0  0  0  0  0  0  0  0  0  0  0  0
   22.0002    6.1402    0.0000 C   0  0  0  0  0  0  0  0  0  0  0  0
    9.5522    6.8547    0.0000 H   0  0  0  0  0  0  0  0  0  0  0  0
    8.4252    6.5527    0.0000 H   0  0  0  0  0  0  0  0  0  0  0  0
    8.7272    5.4258    0.0000 H   0  0  0  0  0  0  0  0  0  0  0  0
    9.4839    4.9905    0.0000 H   0  0  0  0  0  0  0  0  0  0  0  0
   10.2244    4.9905    0.0000 H   0  0  0  0  0  0  0  0  0  0  0  0
   10.9389    6.8775    0.0000 H   0  0  0  0  0  0  0  0  0  0  0  0
   10.1984    6.8775    0.0000 H   0  0  0  0  0  0  0  0  0  0  0  0
   10.9129    4.9905    0.0000 H   0  0  0  0  0  0  0  0  0  0  0  0
   11.6534    4.9905    0.0000 H   0  0  0  0  0  0  0  0  0  0  0  0
   11.2831    6.5527    0.0000 H   0  0  0  0  0  0  0  0  0  0  0  0
   11.8543    7.7777    0.0000 H   0  0  0  0  0  0  0  0  0  0  0  0
   11.3656    7.4955    0.0000 H   0  0  0  0  0  0  0  0  0  0  0  0
   12.9429    6.5857    0.0000 H   0  0  0  0  0  0  0  0  0  0  0  0
   13.5363    7.4137    0.0000 H   0  0  0  0  0  0  0  0  0  0  0  0
   12.8730    8.1869    0.0000 H   0  0  0  0  0  0  0  0  0  0  0  0
   12.3418    4.9905    0.0000 H   0  0  0  0  0  0  0  0  0  0  0  0
   13.0823    4.9905    0.0000 H   0  0  0  0  0  0  0  0  0  0  0  0
   15.2257    6.8775    0.0000 H   0  0  0  0  0  0  0  0  0  0  0  0
   14.4852    6.8775    0.0000 H   0  0  0  0  0  0  0  0  0  0  0  0
   16.6547    6.8775    0.0000 H   0  0  0  0  0  0  0  0  0  0  0  0
   15.9142    6.8775    0.0000 H   0  0  0  0  0  0  0  0  0  0  0  0
   18.0576    4.9905    0.0000 H   0  0  0  0  0  0  0  0  0  0  0  0
   18.7981    4.9905    0.0000 H   0  0  0  0  0  0  0  0  0  0  0  0
   18.4278    6.5527    0.0000 H   0  0  0  0  0  0  0  0  0  0  0  0
   18.9990    7.7777    0.0000 H   0  0  0  0  0  0  0  0  0  0  0  0
   18.5103    7.4955    0.0000 H   0  0  0  0  0  0  0  0  0  0  0  0
   20.0876    6.5857    0.0000 H   0  0  0  0  0  0  0  0  0  0  0  0
   20.6810    7.4137    0.0000 H   0  0  0  0  0  0  0  0  0  0  0  0
   20.0177    8.1869    0.0000 H   0  0  0  0  0  0  0  0  0  0  0  0
   19.4865    4.9905    0.0000 H   0  0  0  0  0  0  0  0  0  0  0  0
   20.2270    4.9905    0.0000 H   0  0  0  0  0  0  0  0  0  0  0  0
   21.0599    6.8049    0.0000 H   0  0  0  0  0  0  0  0  0  0  0  0
   20.5713    5.3152    0.0000 H   0  0  0  0  0  0  0  0  0  0  0  0
   21.4290    4.9153    0.0000 H   0  0  0  0  0  0  0  0  0  0  0  0
   21.9177    5.1974    0.0000 H   0  0  0  0  0  0  0  0  0  0  0  0
   22.7814    5.8750    0.0000 H   0  0  0  0  0  0  0  0  0  0  0  0
   22.4435    6.8360    0.0000 H   0  0  0  0  0  0  0  0  0  0  0  0
   21.4297    6.7362    0.0000 H   0  0  0  0  0  0  0  0  0  0  0  0
  1  2  1  0  0  0  0
  2  3  1  0  0  0  0
  3  4  1  0  0  0  0
  4  5  1  0  0  0  0
  5  6  1  0  0  0  0
  6  7  1  0  0  0  0
  5  8  1  0  0  0  0
  8  9  1  0  0  0  0
  9 10  1  0  0  0  0
 10 11  2  0  0  0  0
 10 12  1  0  0  0  0
 12 13  1  0  0  0  0
 13 14  1  0  0  0  0
 14 15  1  0  0  0  0
 15 16  2  0  0  0  0
 15 17  1  0  0  0  0
 17 18  1  0  0  0  0
 18 19  1  0  0  0  0
 19 20  1  0  0  0  0
 20 21  1  0  0  0  0
 19 22  1  0  0  0  0
 22 23  1  0  0  0  0
 23 24  1  0  0  0  0
 24 25  1  0  0  0  0
  1 26  1  0  0  0  0
  1 27  1  0  0  0  0
  1 28  1  0  0  0  0
  2 29  1  0  0  0  0
  2 30  1  0  0  0  0
  3 31  1  0  0  0  0
  3 32  1  0  0  0  0
  4 33  1  0  0  0  0
  4 34  1  0  0  0  0
  5 35  1  0  0  0  0
  6 36  1  0  0  0  0
  6 37  1  0  0  0  0
  7 38  1  0  0  0  0
  7 39  1  0  0  0  0
  7 40  1  0  0  0  0
  8 41  1  0  0  0  0
  8 42  1  0  0  0  0
 12 43  1  0  0  0  0
 12 44  1  0  0  0  0
 14 45  1  0  0  0  0
 14 46  1  0  0  0  0
 18 47  1  0  0  0  0
 18 48  1  0  0  0  0
 19 49  1  0  0  0  0
 20 50  1  0  0  0  0
 20 51  1  0  0  0  0
 21 52  1  0  0  0  0
 21 53  1  0  0  0  0
 21 54  1  0  0  0  0
 22 55  1  0  0  0  0
 22 56  1  0  0  0  0
 23 57  1  0  0  0  0
 23 58  1  0  0  0  0
 24 59  1  0  0  0  0
 24 60  1  0  0  0  0
 25 61  1  0  0  0  0
 25 62  1  0  0  0  0
 25 63  1  0  0  0  0
M  END
>  <InChIKey>
KYWZILPIDASSGE-UHFFFAOYSA-N

>  <UN GHS>
Non-irritant

>  <CASRN>
24293-43-4

> <Outcome>
0

>  <Index>
417

>  <StandardizerResult>
Clear Stereo (ID: ClearStereo)
Wedge Clean (ID: WedgeClean)
Mesomerize (ID: Mesomerize)
Tautomerize (ID: Tautomerize)
Add Explicit Hydrogens (ID: AddExplicitH)
Neutralize (ID: Neutralize)
Clean 2D (ID: Clean2D)

> <knn Distance>
2.82842707633972

> <CpId>
417

$$$$
432
  Mrv1532301301811342D          

 24 23  0  0  0  0            999 V2000
    1.0200    1.4382    0.0000 C   0  0  0  0  0  0  0  0  0  0  0  0
    1.7345    1.8507    0.0000 C   0  0  0  0  0  0  0  0  0  0  0  0
    2.4489    1.4382    0.0000 O   0  0  0  0  0  0  0  0  0  0  0  0
    3.1634    1.8507    0.0000 C   0  0  0  0  0  0  0  0  0  0  0  0
    3.8779    1.4382    0.0000 C   0  0  0  0  0  0  0  0  0  0  0  0
    3.8779    0.6132    0.0000 C   0  0  0  0  0  0  0  0  0  0  0  0
    4.5923    1.8507    0.0000 O   0  0  0  0  0  0  0  0  0  0  0  0
    5.3068    1.4382    0.0000 C   0  0  0  0  0  0  0  0  0  0  0  0
    6.0213    1.8507    0.0000 C   0  0  0  0  0  0  0  0  0  0  0  0
    5.3068    0.6132    0.0000 O   0  0  0  0  0  0  0  0  0  0  0  0
    0.6075    2.1527    0.0000 H   0  0  0  0  0  0  0  0  0  0  0  0
    0.3055    1.0257    0.0000 H   0  0  0  0  0  0  0  0  0  0  0  0
    1.4325    0.7238    0.0000 H   0  0  0  0  0  0  0  0  0  0  0  0
    2.1047    2.5880    0.0000 H   0  0  0  0  0  0  0  0  0  0  0  0
    1.3642    2.5880    0.0000 H   0  0  0  0  0  0  0  0  0  0  0  0
    3.5337    2.5880    0.0000 H   0  0  0  0  0  0  0  0  0  0  0  0
    2.7931    2.5880    0.0000 H   0  0  0  0  0  0  0  0  0  0  0  0
    3.1634    1.0257    0.0000 H   0  0  0  0  0  0  0  0  0  0  0  0
    3.2945    0.0299    0.0000 H   0  0  0  0  0  0  0  0  0  0  0  0
    4.2904   -0.1012    0.0000 H   0  0  0  0  0  0  0  0  0  0  0  0
    4.6748    0.8268    0.0000 H   0  0  0  0  0  0  0  0  0  0  0  0
    6.4338    1.1363    0.0000 H   0  0  0  0  0  0  0  0  0  0  0  0
    6.7357    2.2632    0.0000 H   0  0  0  0  0  0  0  0  0  0  0  0
    5.6088    2.5652    0.0000 H   0  0  0  0  0  0  0  0  0  0  0  0
  1  2  1  0  0  0  0
  2  3  1  0  0  0  0
  3  4  1  0  0  0  0
  4  5  1  0  0  0  0
  5  6  1  0  0  0  0
  5  7  1  0  0  0  0
  7  8  1  0  0  0  0
  8  9  1  0  0  0  0
  8 10  2  0  0  0  0
  1 11  1  0  0  0  0
  1 12  1  0  0  0  0
  1 13  1  0  0  0  0
  2 14  1  0  0  0  0
  2 15  1  0  0  0  0
  4 16  1  0  0  0  0
  4 17  1  0  0  0  0
  5 18  1  0  0  0  0
  6 19  1  0  0  0  0
  6 20  1  0  0  0  0
  6 21  1  0  0  0  0
  9 22  1  0  0  0  0
  9 23  1  0  0  0  0
  9 24  1  0  0  0  0
M  END
>  <InChIKey>
LIPRQQHINVWJCH-UHFFFAOYSA-N

>  <UN GHS>
Non-irritant

>  <CASRN>
54839-24-6

> <Outcome>
0

>  <Index>
432

>  <StandardizerResult>
Clear Stereo (ID: ClearStereo)
Wedge Clean (ID: WedgeClean)
Mesomerize (ID: Mesomerize)
Tautomerize (ID: Tautomerize)
Add Explicit Hydrogens (ID: AddExplicitH)
Neutralize (ID: Neutralize)
Clean 2D (ID: Clean2D)

> <knn Distance>
2.82842707633972

> <CpId>
432

$$$$
433
  Mrv1532301301811342D          

 29 28  0  0  0  0            999 V2000
    1.0466    3.9036    0.0000 C   0  0  0  0  0  0  0  0  0  0  0  0
    1.0466    3.0786    0.0000 C   0  0  0  0  0  0  0  0  0  0  0  0
    1.7611    2.6661    0.0000 C   0  0  0  0  0  0  0  0  0  0  0  0
    1.7611    1.8411    0.0000 C   0  0  0  0  0  0  0  0  0  0  0  0
    2.4755    1.4286    0.0000 C   0  0  0  0  0  0  0  0  0  0  0  0
    3.1900    1.8411    0.0000 C   0  0  0  0  0  0  0  0  0  0  0  0
    3.9045    1.4286    0.0000 O   0  0  0  0  0  0  0  0  0  0  0  0
    4.6190    1.8411    0.0000 C   0  0  0  0  0  0  0  0  0  0  0  0
    5.3334    1.4286    0.0000 C   0  0  0  0  0  0  0  0  0  0  0  0
    6.0479    1.8411    0.0000 C   0  0  0  0  0  0  0  0  0  0  0  0
    5.3334    0.6036    0.0000 C   0  0  0  0  0  0  0  0  0  0  0  0
    1.8716    3.9036    0.0000 H   0  0  0  0  0  0  0  0  0  0  0  0
    1.0466    4.7286    0.0000 H   0  0  0  0  0  0  0  0  0  0  0  0
    0.2216    3.9036    0.0000 H   0  0  0  0  0  0  0  0  0  0  0  0
    0.2230    3.0306    0.0000 H   0  0  0  0  0  0  0  0  0  0  0  0
    0.5933    2.3893    0.0000 H   0  0  0  0  0  0  0  0  0  0  0  0
    2.4755    3.0786    0.0000 H   0  0  0  0  0  0  0  0  0  0  0  0
    1.0466    1.4286    0.0000 H   0  0  0  0  0  0  0  0  0  0  0  0
    2.1053    0.6913    0.0000 H   0  0  0  0  0  0  0  0  0  0  0  0
    2.8458    0.6913    0.0000 H   0  0  0  0  0  0  0  0  0  0  0  0
    3.5603    2.5783    0.0000 H   0  0  0  0  0  0  0  0  0  0  0  0
    2.8198    2.5783    0.0000 H   0  0  0  0  0  0  0  0  0  0  0  0
    4.9892    2.5783    0.0000 H   0  0  0  0  0  0  0  0  0  0  0  0
    4.2487    2.5783    0.0000 H   0  0  0  0  0  0  0  0  0  0  0  0
    6.4604    1.1266    0.0000 H   0  0  0  0  0  0  0  0  0  0  0  0
    6.7624    2.2536    0.0000 H   0  0  0  0  0  0  0  0  0  0  0  0
    5.6354    2.5556    0.0000 H   0  0  0  0  0  0  0  0  0  0  0  0
    4.6190    0.1911    0.0000 H   0  0  0  0  0  0  0  0  0  0  0  0
    6.0479    0.1911    0.0000 H   0  0  0  0  0  0  0  0  0  0  0  0
  1  2  1  0  0  0  0
  3  2  1  4  0  0  0
  3  4  2  0  0  0  0
  4  5  1  0  0  0  0
  5  6  1  0  0  0  0
  6  7  1  0  0  0  0
  7  8  1  0  0  0  0
  8  9  1  0  0  0  0
  9 10  1  0  0  0  0
  9 11  2  0  0  0  0
  1 12  1  0  0  0  0
  1 13  1  0  0  0  0
  1 14  1  0  0  0  0
  2 15  1  0  0  0  0
  2 16  1  0  0  0  0
  3 17  1  0  0  0  0
  4 18  1  0  0  0  0
  5 19  1  0  0  0  0
  5 20  1  0  0  0  0
  6 21  1  0  0  0  0
  6 22  1  0  0  0  0
  8 23  1  0  0  0  0
  8 24  1  0  0  0  0
 10 25  1  0  0  0  0
 10 26  1  0  0  0  0
 10 27  1  0  0  0  0
 11 28  1  0  0  0  0
 11 29  1  0  0  0  0
M  END
>  <InChIKey>
LIWYPQFTKLABSJ-WAYWQWQTSA-N

>  <UN GHS>
Non-irritant

>  <CASRN>
292605-05-1

> <Outcome>
0

>  <Index>
433

>  <StandardizerResult>
Clear Stereo (ID: ClearStereo)
Wedge Clean (ID: WedgeClean)
Mesomerize (ID: Mesomerize)
Tautomerize (ID: Tautomerize)
Add Explicit Hydrogens (ID: AddExplicitH)
Neutralize (ID: Neutralize)
Clean 2D (ID: Clean2D)

> <knn Distance>
2.82842707633972

> <CpId>
433

$$$$
444
  Mrv1532301301811342D          

233232  0  0  0  0            999 V2000
   -5.5007    0.2263    0.0000 C   0  0  0  0  0  0  0  0  0  0  0  0
   -4.6757    0.2263    0.0000 C   0  0  0  0  0  0  0  0  0  0  0  0
   -4.2632    0.9408    0.0000 C   0  0  0  0  0  0  0  0  0  0  0  0
   -4.2632   -0.4882    0.0000 C   0  0  0  0  0  0  0  0  0  0  0  0
   -3.4382   -0.4882    0.0000 C   0  0  0  0  0  0  0  0  0  0  0  0
   -3.0257   -1.2027    0.0000 C   0  0  0  0  0  0  0  0  0  0  0  0
   -2.2007   -1.2027    0.0000 C   0  0  0  0  0  0  0  0  0  0  0  0
   -1.7882   -1.9171    0.0000 C   0  0  0  0  0  0  0  0  0  0  0  0
   -0.9632   -1.9171    0.0000 C   0  0  0  0  0  0  0  0  0  0  0  0
   -0.5507   -2.6316    0.0000 C   0  0  0  0  0  0  0  0  0  0  0  0
    0.2743   -2.6316    0.0000 C   0  0  0  0  0  0  0  0  0  0  0  0
    0.6868   -3.3461    0.0000 C   0  0  0  0  0  0  0  0  0  0  0  0
    1.5118   -3.3461    0.0000 C   0  0  0  0  0  0  0  0  0  0  0  0
    1.9243   -4.0605    0.0000 C   0  0  0  0  0  0  0  0  0  0  0  0
    2.7493   -4.0605    0.0000 C   0  0  0  0  0  0  0  0  0  0  0  0
    3.1618   -4.7750    0.0000 C   0  0  0  0  0  0  0  0  0  0  0  0
    3.9868   -4.7750    0.0000 C   0  0  0  0  0  0  0  0  0  0  0  0
    4.3993   -5.4895    0.0000 C   0  0  0  0  0  0  0  0  0  0  0  0
    3.9868   -6.2040    0.0000 O   0  0  0  0  0  0  0  0  0  0  0  0
    5.2243   -5.4895    0.0000 O   0  0  0  0  0  0  0  0  0  0  0  0
    5.6368   -6.2040    0.0000 C   0  0  0  0  0  0  0  0  0  0  0  0
    6.4618   -6.2040    0.0000 C   0  0  0  0  0  0  0  0  0  0  0  0
    7.2868   -6.2040    0.0000 C   0  0  0  0  0  0  0  0  0  0  0  0
    7.6993   -6.9184    0.0000 O   0  0  0  0  0  0  0  0  0  0  0  0
    8.5243   -6.9184    0.0000 C   0  0  0  0  0  0  0  0  0  0  0  0
    8.9368   -6.2040    0.0000 O   0  0  0  0  0  0  0  0  0  0  0  0
    8.9368   -7.6329    0.0000 C   0  0  0  0  0  0  0  0  0  0  0  0
    9.7618   -7.6329    0.0000 C   0  0  0  0  0  0  0  0  0  0  0  0
   10.1743   -8.3474    0.0000 C   0  0  0  0  0  0  0  0  0  0  0  0
   10.9993   -8.3474    0.0000 C   0  0  0  0  0  0  0  0  0  0  0  0
   11.4118   -9.0618    0.0000 C   0  0  0  0  0  0  0  0  0  0  0  0
   12.2368   -9.0618    0.0000 C   0  0  0  0  0  0  0  0  0  0  0  0
   12.6493   -9.7763    0.0000 C   0  0  0  0  0  0  0  0  0  0  0  0
   13.4743   -9.7763    0.0000 C   0  0  0  0  0  0  0  0  0  0  0  0
   13.8868  -10.4908    0.0000 C   0  0  0  0  0  0  0  0  0  0  0  0
   14.7118  -10.4908    0.0000 C   0  0  0  0  0  0  0  0  0  0  0  0
   15.1243  -11.2052    0.0000 C   0  0  0  0  0  0  0  0  0  0  0  0
   15.9493  -11.2052    0.0000 C   0  0  0  0  0  0  0  0  0  0  0  0
   16.3618  -11.9197    0.0000 C   0  0  0  0  0  0  0  0  0  0  0  0
   17.1868  -11.9197    0.0000 C   0  0  0  0  0  0  0  0  0  0  0  0
   17.5993  -12.6342    0.0000 C   0  0  0  0  0  0  0  0  0  0  0  0
   18.4243  -12.6342    0.0000 C   0  0  0  0  0  0  0  0  0  0  0  0
   17.1868  -13.3487    0.0000 C   0  0  0  0  0  0  0  0  0  0  0  0
    6.4618   -7.0290    0.0000 C   0  0  0  0  0  0  0  0  0  0  0  0
    7.1762   -7.4415    0.0000 O   0  0  0  0  0  0  0  0  0  0  0  0
    7.1762   -8.2665    0.0000 C   0  0  0  0  0  0  0  0  0  0  0  0
    6.4618   -8.6790    0.0000 O   0  0  0  0  0  0  0  0  0  0  0  0
    7.8907   -8.6790    0.0000 C   0  0  0  0  0  0  0  0  0  0  0  0
    7.8907   -9.5040    0.0000 C   0  0  0  0  0  0  0  0  0  0  0  0
    8.6052   -9.9165    0.0000 C   0  0  0  0  0  0  0  0  0  0  0  0
    8.6052  -10.7415    0.0000 C   0  0  0  0  0  0  0  0  0  0  0  0
    9.3196  -11.1540    0.0000 C   0  0  0  0  0  0  0  0  0  0  0  0
    9.3196  -11.9790    0.0000 C   0  0  0  0  0  0  0  0  0  0  0  0
   10.0341  -12.3915    0.0000 C   0  0  0  0  0  0  0  0  0  0  0  0
   10.0341  -13.2165    0.0000 C   0  0  0  0  0  0  0  0  0  0  0  0
   10.7486  -13.6290    0.0000 C   0  0  0  0  0  0  0  0  0  0  0  0
   10.7486  -14.4540    0.0000 C   0  0  0  0  0  0  0  0  0  0  0  0
   11.4631  -14.8665    0.0000 C   0  0  0  0  0  0  0  0  0  0  0  0
   11.4631  -15.6915    0.0000 C   0  0  0  0  0  0  0  0  0  0  0  0
   12.1775  -16.1040    0.0000 C   0  0  0  0  0  0  0  0  0  0  0  0
   12.1775  -16.9290    0.0000 C   0  0  0  0  0  0  0  0  0  0  0  0
   12.8920  -17.3415    0.0000 C   0  0  0  0  0  0  0  0  0  0  0  0
   13.6065  -16.9290    0.0000 C   0  0  0  0  0  0  0  0  0  0  0  0
   12.8920  -18.1665    0.0000 C   0  0  0  0  0  0  0  0  0  0  0  0
    6.4618   -5.3790    0.0000 C   0  0  0  0  0  0  0  0  0  0  0  0
    7.1762   -4.9665    0.0000 O   0  0  0  0  0  0  0  0  0  0  0  0
    7.8907   -5.3790    0.0000 C   0  0  0  0  0  0  0  0  0  0  0  0
    7.8907   -6.2040    0.0000 O   0  0  0  0  0  0  0  0  0  0  0  0
    8.6052   -4.9665    0.0000 C   0  0  0  0  0  0  0  0  0  0  0  0
    9.3196   -5.3790    0.0000 C   0  0  0  0  0  0  0  0  0  0  0  0
   10.0341   -4.9665    0.0000 C   0  0  0  0  0  0  0  0  0  0  0  0
   10.7486   -5.3790    0.0000 C   0  0  0  0  0  0  0  0  0  0  0  0
   11.4631   -4.9665    0.0000 C   0  0  0  0  0  0  0  0  0  0  0  0
   12.1775   -5.3790    0.0000 C   0  0  0  0  0  0  0  0  0  0  0  0
   12.8920   -4.9665    0.0000 C   0  0  0  0  0  0  0  0  0  0  0  0
   13.6065   -5.3790    0.0000 C   0  0  0  0  0  0  0  0  0  0  0  0
   14.3209   -4.9665    0.0000 C   0  0  0  0  0  0  0  0  0  0  0  0
   15.0354   -5.3790    0.0000 C   0  0  0  0  0  0  0  0  0  0  0  0
   15.7499   -4.9665    0.0000 C   0  0  0  0  0  0  0  0  0  0  0  0
   16.4644   -5.3790    0.0000 C   0  0  0  0  0  0  0  0  0  0  0  0
   17.1788   -4.9665    0.0000 C   0  0  0  0  0  0  0  0  0  0  0  0
   17.8933   -5.3790    0.0000 C   0  0  0  0  0  0  0  0  0  0  0  0
   18.6078   -4.9665    0.0000 C   0  0  0  0  0  0  0  0  0  0  0  0
   18.6078   -4.1415    0.0000 C   0  0  0  0  0  0  0  0  0  0  0  0
   19.3222   -5.3790    0.0000 C   0  0  0  0  0  0  0  0  0  0  0  0
   -5.5007    1.0513    0.0000 H   0  0  0  0  0  0  0  0  0  0  0  0
   -6.3257    0.2263    0.0000 H   0  0  0  0  0  0  0  0  0  0  0  0
   -5.5007   -0.5987    0.0000 H   0  0  0  0  0  0  0  0  0  0  0  0
   -5.0882    0.9408    0.0000 H   0  0  0  0  0  0  0  0  0  0  0  0
   -3.6799    0.3574    0.0000 H   0  0  0  0  0  0  0  0  0  0  0  0
   -3.5488    1.3533    0.0000 H   0  0  0  0  0  0  0  0  0  0  0  0
   -4.4768    1.7376    0.0000 H   0  0  0  0  0  0  0  0  0  0  0  0
   -4.9525   -0.9415    0.0000 H   0  0  0  0  0  0  0  0  0  0  0  0
   -4.3112   -1.3118    0.0000 H   0  0  0  0  0  0  0  0  0  0  0  0
   -2.6787   -0.1662    0.0000 H   0  0  0  0  0  0  0  0  0  0  0  0
   -3.8507   -1.2027    0.0000 H   0  0  0  0  0  0  0  0  0  0  0  0
   -3.3079   -1.9779    0.0000 H   0  0  0  0  0  0  0  0  0  0  0  0
   -2.7436   -1.9779    0.0000 H   0  0  0  0  0  0  0  0  0  0  0  0
   -1.5115   -0.7493    0.0000 H   0  0  0  0  0  0  0  0  0  0  0  0
   -2.1528   -0.3791    0.0000 H   0  0  0  0  0  0  0  0  0  0  0  0
   -2.1701   -2.6484    0.0000 H   0  0  0  0  0  0  0  0  0  0  0  0
   -1.3607   -2.6227    0.0000 H   0  0  0  0  0  0  0  0  0  0  0  0
   -0.2740   -1.4638    0.0000 H   0  0  0  0  0  0  0  0  0  0  0  0
   -0.9153   -1.0935    0.0000 H   0  0  0  0  0  0  0  0  0  0  0  0
   -0.8381   -3.4049    0.0000 H   0  0  0  0  0  0  0  0  0  0  0  0
   -0.2719   -3.4080    0.0000 H   0  0  0  0  0  0  0  0  0  0  0  0
    0.9635   -2.1783    0.0000 H   0  0  0  0  0  0  0  0  0  0  0  0
    0.3222   -1.8080    0.0000 H   0  0  0  0  0  0  0  0  0  0  0  0
    0.3054   -4.0776    0.0000 H   0  0  0  0  0  0  0  0  0  0  0  0
    1.1145   -4.0515    0.0000 H   0  0  0  0  0  0  0  0  0  0  0  0
    2.2010   -2.8927    0.0000 H   0  0  0  0  0  0  0  0  0  0  0  0
    1.5597   -2.5225    0.0000 H   0  0  0  0  0  0  0  0  0  0  0  0
    1.6368   -4.8338    0.0000 H   0  0  0  0  0  0  0  0  0  0  0  0
    2.2031   -4.8370    0.0000 H   0  0  0  0  0  0  0  0  0  0  0  0
    3.4385   -3.6072    0.0000 H   0  0  0  0  0  0  0  0  0  0  0  0
    2.7972   -3.2369    0.0000 H   0  0  0  0  0  0  0  0  0  0  0  0
    2.7804   -5.5066    0.0000 H   0  0  0  0  0  0  0  0  0  0  0  0
    3.5895   -5.4804    0.0000 H   0  0  0  0  0  0  0  0  0  0  0  0
    4.6760   -4.3217    0.0000 H   0  0  0  0  0  0  0  0  0  0  0  0
    4.0347   -3.9514    0.0000 H   0  0  0  0  0  0  0  0  0  0  0  0
    4.9475   -6.6573    0.0000 H   0  0  0  0  0  0  0  0  0  0  0  0
    5.5888   -7.0276    0.0000 H   0  0  0  0  0  0  0  0  0  0  0  0
    7.5689   -5.4287    0.0000 H   0  0  0  0  0  0  0  0  0  0  0  0
    7.0046   -5.4287    0.0000 H   0  0  0  0  0  0  0  0  0  0  0  0
    8.2475   -8.0862    0.0000 H   0  0  0  0  0  0  0  0  0  0  0  0
    8.8888   -8.4565    0.0000 H   0  0  0  0  0  0  0  0  0  0  0  0
   10.4510   -7.1795    0.0000 H   0  0  0  0  0  0  0  0  0  0  0  0
    9.8097   -6.8093    0.0000 H   0  0  0  0  0  0  0  0  0  0  0  0
    9.4850   -8.8007    0.0000 H   0  0  0  0  0  0  0  0  0  0  0  0
   10.1263   -9.1710    0.0000 H   0  0  0  0  0  0  0  0  0  0  0  0
   11.6885   -7.8940    0.0000 H   0  0  0  0  0  0  0  0  0  0  0  0
   11.0472   -7.5238    0.0000 H   0  0  0  0  0  0  0  0  0  0  0  0
   10.7225   -9.5152    0.0000 H   0  0  0  0  0  0  0  0  0  0  0  0
   11.3638   -9.8854    0.0000 H   0  0  0  0  0  0  0  0  0  0  0  0
   12.9260   -8.6085    0.0000 H   0  0  0  0  0  0  0  0  0  0  0  0
   12.2847   -8.2382    0.0000 H   0  0  0  0  0  0  0  0  0  0  0  0
   11.9600  -10.2297    0.0000 H   0  0  0  0  0  0  0  0  0  0  0  0
   12.6013  -10.5999    0.0000 H   0  0  0  0  0  0  0  0  0  0  0  0
   14.1635   -9.3230    0.0000 H   0  0  0  0  0  0  0  0  0  0  0  0
   13.5222   -8.9527    0.0000 H   0  0  0  0  0  0  0  0  0  0  0  0
   13.1975  -10.9441    0.0000 H   0  0  0  0  0  0  0  0  0  0  0  0
   13.8388  -11.3144    0.0000 H   0  0  0  0  0  0  0  0  0  0  0  0
   15.4010  -10.0374    0.0000 H   0  0  0  0  0  0  0  0  0  0  0  0
   14.7597   -9.6672    0.0000 H   0  0  0  0  0  0  0  0  0  0  0  0
   14.4350  -11.6586    0.0000 H   0  0  0  0  0  0  0  0  0  0  0  0
   15.0763  -12.0289    0.0000 H   0  0  0  0  0  0  0  0  0  0  0  0
   16.6385  -10.7519    0.0000 H   0  0  0  0  0  0  0  0  0  0  0  0
   15.9972  -10.3816    0.0000 H   0  0  0  0  0  0  0  0  0  0  0  0
   15.6725  -12.3731    0.0000 H   0  0  0  0  0  0  0  0  0  0  0  0
   16.3138  -12.7433    0.0000 H   0  0  0  0  0  0  0  0  0  0  0  0
   17.8760  -11.4664    0.0000 H   0  0  0  0  0  0  0  0  0  0  0  0
   17.2347  -11.0961    0.0000 H   0  0  0  0  0  0  0  0  0  0  0  0
   18.0118  -11.9197    0.0000 H   0  0  0  0  0  0  0  0  0  0  0  0
   18.2107  -13.4311    0.0000 H   0  0  0  0  0  0  0  0  0  0  0  0
   19.1387  -13.0467    0.0000 H   0  0  0  0  0  0  0  0  0  0  0  0
   19.0076  -12.0508    0.0000 H   0  0  0  0  0  0  0  0  0  0  0  0
   16.4723  -12.9362    0.0000 H   0  0  0  0  0  0  0  0  0  0  0  0
   16.7743  -14.0631    0.0000 H   0  0  0  0  0  0  0  0  0  0  0  0
   17.9012  -13.7612    0.0000 H   0  0  0  0  0  0  0  0  0  0  0  0
    6.2476   -7.8257    0.0000 H   0  0  0  0  0  0  0  0  0  0  0  0
    7.1762   -6.6165    0.0000 H   0  0  0  0  0  0  0  0  0  0  0  0
    8.6856   -8.8997    0.0000 H   0  0  0  0  0  0  0  0  0  0  0  0
    7.1762   -9.0915    0.0000 H   0  0  0  0  0  0  0  0  0  0  0  0
    7.2587  -10.0343    0.0000 H   0  0  0  0  0  0  0  0  0  0  0  0
    7.7474  -10.3164    0.0000 H   0  0  0  0  0  0  0  0  0  0  0  0
    9.4288   -9.8685    0.0000 H   0  0  0  0  0  0  0  0  0  0  0  0
    9.0585   -9.2272    0.0000 H   0  0  0  0  0  0  0  0  0  0  0  0
    7.9088  -11.1838    0.0000 H   0  0  0  0  0  0  0  0  0  0  0  0
    8.6226  -11.5663    0.0000 H   0  0  0  0  0  0  0  0  0  0  0  0
   10.1433  -11.1060    0.0000 H   0  0  0  0  0  0  0  0  0  0  0  0
    9.7730  -10.4647    0.0000 H   0  0  0  0  0  0  0  0  0  0  0  0
    8.6841  -12.5050    0.0000 H   0  0  0  0  0  0  0  0  0  0  0  0
    9.1729  -12.7908    0.0000 H   0  0  0  0  0  0  0  0  0  0  0  0
   10.8577  -12.3435    0.0000 H   0  0  0  0  0  0  0  0  0  0  0  0
   10.4875  -11.7022    0.0000 H   0  0  0  0  0  0  0  0  0  0  0  0
    9.3381  -13.6593    0.0000 H   0  0  0  0  0  0  0  0  0  0  0  0
   10.0519  -14.0413    0.0000 H   0  0  0  0  0  0  0  0  0  0  0  0
   11.5722  -13.5810    0.0000 H   0  0  0  0  0  0  0  0  0  0  0  0
   11.2019  -12.9397    0.0000 H   0  0  0  0  0  0  0  0  0  0  0  0
   10.1130  -14.9799    0.0000 H   0  0  0  0  0  0  0  0  0  0  0  0
   10.6018  -15.2658    0.0000 H   0  0  0  0  0  0  0  0  0  0  0  0
   12.2867  -14.8185    0.0000 H   0  0  0  0  0  0  0  0  0  0  0  0
   11.9164  -14.1772    0.0000 H   0  0  0  0  0  0  0  0  0  0  0  0
   10.7670  -16.1343    0.0000 H   0  0  0  0  0  0  0  0  0  0  0  0
   11.4808  -16.5163    0.0000 H   0  0  0  0  0  0  0  0  0  0  0  0
   13.0011  -16.0560    0.0000 H   0  0  0  0  0  0  0  0  0  0  0  0
   12.6309  -15.4147    0.0000 H   0  0  0  0  0  0  0  0  0  0  0  0
   11.5419  -17.4549    0.0000 H   0  0  0  0  0  0  0  0  0  0  0  0
   12.0307  -17.7408    0.0000 H   0  0  0  0  0  0  0  0  0  0  0  0
   12.8920  -16.5165    0.0000 H   0  0  0  0  0  0  0  0  0  0  0  0
   13.8200  -17.7258    0.0000 H   0  0  0  0  0  0  0  0  0  0  0  0
   14.4315  -16.9290    0.0000 H   0  0  0  0  0  0  0  0  0  0  0  0
   13.8200  -16.1321    0.0000 H   0  0  0  0  0  0  0  0  0  0  0  0
   12.3376  -18.7774    0.0000 H   0  0  0  0  0  0  0  0  0  0  0  0
   13.3274  -18.8672    0.0000 H   0  0  0  0  0  0  0  0  0  0  0  0
   13.6853  -17.9401    0.0000 H   0  0  0  0  0  0  0  0  0  0  0  0
    6.0084   -4.6897    0.0000 H   0  0  0  0  0  0  0  0  0  0  0  0
    5.6382   -5.3310    0.0000 H   0  0  0  0  0  0  0  0  0  0  0  0
    8.9754   -4.2292    0.0000 H   0  0  0  0  0  0  0  0  0  0  0  0
    8.2349   -4.2292    0.0000 H   0  0  0  0  0  0  0  0  0  0  0  0
    9.9284   -5.9358    0.0000 H   0  0  0  0  0  0  0  0  0  0  0  0
    9.3196   -4.5540    0.0000 H   0  0  0  0  0  0  0  0  0  0  0  0
   10.6661   -4.4362    0.0000 H   0  0  0  0  0  0  0  0  0  0  0  0
   10.1774   -4.1540    0.0000 H   0  0  0  0  0  0  0  0  0  0  0  0
   10.3783   -6.1162    0.0000 H   0  0  0  0  0  0  0  0  0  0  0  0
   11.1189   -6.1162    0.0000 H   0  0  0  0  0  0  0  0  0  0  0  0
   12.1861   -4.5692    0.0000 H   0  0  0  0  0  0  0  0  0  0  0  0
   11.4980   -4.1422    0.0000 H   0  0  0  0  0  0  0  0  0  0  0  0
   11.8073   -6.1162    0.0000 H   0  0  0  0  0  0  0  0  0  0  0  0
   12.5478   -6.1162    0.0000 H   0  0  0  0  0  0  0  0  0  0  0  0
   13.5217   -4.4335    0.0000 H   0  0  0  0  0  0  0  0  0  0  0  0
   13.0298   -4.1530    0.0000 H   0  0  0  0  0  0  0  0  0  0  0  0
   13.2362   -6.1162    0.0000 H   0  0  0  0  0  0  0  0  0  0  0  0
   13.9767   -6.1162    0.0000 H   0  0  0  0  0  0  0  0  0  0  0  0
   15.0441   -4.5694    0.0000 H   0  0  0  0  0  0  0  0  0  0  0  0
   14.3564   -4.1422    0.0000 H   0  0  0  0  0  0  0  0  0  0  0  0
   14.6652   -6.1162    0.0000 H   0  0  0  0  0  0  0  0  0  0  0  0
   15.4057   -6.1162    0.0000 H   0  0  0  0  0  0  0  0  0  0  0  0
   16.3796   -4.4334    0.0000 H   0  0  0  0  0  0  0  0  0  0  0  0
   15.8876   -4.1530    0.0000 H   0  0  0  0  0  0  0  0  0  0  0  0
   16.0941   -6.1162    0.0000 H   0  0  0  0  0  0  0  0  0  0  0  0
   16.8346   -6.1162    0.0000 H   0  0  0  0  0  0  0  0  0  0  0  0
   17.9020   -4.5694    0.0000 H   0  0  0  0  0  0  0  0  0  0  0  0
   17.2143   -4.1422    0.0000 H   0  0  0  0  0  0  0  0  0  0  0  0
   17.5230   -6.1162    0.0000 H   0  0  0  0  0  0  0  0  0  0  0  0
   18.2636   -6.1162    0.0000 H   0  0  0  0  0  0  0  0  0  0  0  0
   19.3222   -4.5540    0.0000 H   0  0  0  0  0  0  0  0  0  0  0  0
   19.3200   -3.7251    0.0000 H   0  0  0  0  0  0  0  0  0  0  0  0
   18.5989   -3.3165    0.0000 H   0  0  0  0  0  0  0  0  0  0  0  0
   17.8867   -3.7405    0.0000 H   0  0  0  0  0  0  0  0  0  0  0  0
   18.7389   -5.9623    0.0000 H   0  0  0  0  0  0  0  0  0  0  0  0
   19.7347   -6.0934    0.0000 H   0  0  0  0  0  0  0  0  0  0  0  0
   20.1191   -5.1654    0.0000 H   0  0  0  0  0  0  0  0  0  0  0  0
  1  2  1  0  0  0  0
  2  3  1  0  0  0  0
  2  4  1  0  0  0  0
  4  5  1  0  0  0  0
  5  6  1  0  0  0  0
  6  7  1  0  0  0  0
  7  8  1  0  0  0  0
  8  9  1  0  0  0  0
  9 10  1  0  0  0  0
 10 11  1  0  0  0  0
 11 12  1  0  0  0  0
 12 13  1  0  0  0  0
 13 14  1  0  0  0  0
 14 15  1  0  0  0  0
 15 16  1  0  0  0  0
 16 17  1  0  0  0  0
 17 18  1  0  0  0  0
 18 19  2  0  0  0  0
 18 20  1  0  0  0  0
 20 21  1  0  0  0  0
 21 22  1  0  0  0  0
 22 23  1  0  0  0  0
 23 24  1  0  0  0  0
 24 25  1  0  0  0  0
 25 26  2  0  0  0  0
 25 27  1  0  0  0  0
 27 28  1  0  0  0  0
 28 29  1  0  0  0  0
 29 30  1  0  0  0  0
 30 31  1  0  0  0  0
 31 32  1  0  0  0  0
 32 33  1  0  0  0  0
 33 34  1  0  0  0  0
 34 35  1  0  0  0  0
 35 36  1  0  0  0  0
 36 37  1  0  0  0  0
 37 38  1  0  0  0  0
 38 39  1  0  0  0  0
 39 40  1  0  0  0  0
 40 41  1  0  0  0  0
 41 42  1  0  0  0  0
 41 43  1  0  0  0  0
 22 44  1  0  0  0  0
 44 45  1  0  0  0  0
 45 46  1  0  0  0  0
 46 47  2  0  0  0  0
 46 48  1  0  0  0  0
 48 49  1  0  0  0  0
 49 50  1  0  0  0  0
 50 51  1  0  0  0  0
 51 52  1  0  0  0  0
 52 53  1  0  0  0  0
 53 54  1  0  0  0  0
 54 55  1  0  0  0  0
 55 56  1  0  0  0  0
 56 57  1  0  0  0  0
 57 58  1  0  0  0  0
 58 59  1  0  0  0  0
 59 60  1  0  0  0  0
 60 61  1  0  0  0  0
 61 62  1  0  0  0  0
 62 63  1  0  0  0  0
 62 64  1  0  0  0  0
 22 65  1  0  0  0  0
 65 66  1  0  0  0  0
 66 67  1  0  0  0  0
 67 68  2  0  0  0  0
 67 69  1  0  0  0  0
 69 70  1  0  0  0  0
 70 71  1  0  0  0  0
 71 72  1  0  0  0  0
 72 73  1  0  0  0  0
 73 74  1  0  0  0  0
 74 75  1  0  0  0  0
 75 76  1  0  0  0  0
 76 77  1  0  0  0  0
 77 78  1  0  0  0  0
 78 79  1  0  0  0  0
 79 80  1  0  0  0  0
 80 81  1  0  0  0  0
 81 82  1  0  0  0  0
 82 83  1  0  0  0  0
 83 84  1  0  0  0  0
 83 85  1  0  0  0  0
  1 86  1  0  0  0  0
  1 87  1  0  0  0  0
  1 88  1  0  0  0  0
  2 89  1  0  0  0  0
  3 90  1  0  0  0  0
  3 91  1  0  0  0  0
  3 92  1  0  0  0  0
  4 93  1  0  0  0  0
  4 94  1  0  0  0  0
  5 95  1  0  0  0  0
  5 96  1  0  0  0  0
  6 97  1  0  0  0  0
  6 98  1  0  0  0  0
  7 99  1  0  0  0  0
  7100  1  0  0  0  0
  8101  1  0  0  0  0
  8102  1  0  0  0  0
  9103  1  0  0  0  0
  9104  1  0  0  0  0
 10105  1  0  0  0  0
 10106  1  0  0  0  0
 11107  1  0  0  0  0
 11108  1  0  0  0  0
 12109  1  0  0  0  0
 12110  1  0  0  0  0
 13111  1  0  0  0  0
 13112  1  0  0  0  0
 14113  1  0  0  0  0
 14114  1  0  0  0  0
 15115  1  0  0  0  0
 15116  1  0  0  0  0
 16117  1  0  0  0  0
 16118  1  0  0  0  0
 17119  1  0  0  0  0
 17120  1  0  0  0  0
 21121  1  0  0  0  0
 21122  1  0  0  0  0
 23123  1  0  0  0  0
 23124  1  0  0  0  0
 27125  1  0  0  0  0
 27126  1  0  0  0  0
 28127  1  0  0  0  0
 28128  1  0  0  0  0
 29129  1  0  0  0  0
 29130  1  0  0  0  0
 30131  1  0  0  0  0
 30132  1  0  0  0  0
 31133  1  0  0  0  0
 31134  1  0  0  0  0
 32135  1  0  0  0  0
 32136  1  0  0  0  0
 33137  1  0  0  0  0
 33138  1  0  0  0  0
 34139  1  0  0  0  0
 34140  1  0  0  0  0
 35141  1  0  0  0  0
 35142  1  0  0  0  0
 36143  1  0  0  0  0
 36144  1  0  0  0  0
 37145  1  0  0  0  0
 37146  1  0  0  0  0
 38147  1  0  0  0  0
 38148  1  0  0  0  0
 39149  1  0  0  0  0
 39150  1  0  0  0  0
 40151  1  0  0  0  0
 40152  1  0  0  0  0
 41153  1  0  0  0  0
 42154  1  0  0  0  0
 42155  1  0  0  0  0
 42156  1  0  0  0  0
 43157  1  0  0  0  0
 43158  1  0  0  0  0
 43159  1  0  0  0  0
 44160  1  0  0  0  0
 44161  1  0  0  0  0
 48162  1  0  0  0  0
 48163  1  0  0  0  0
 49164  1  0  0  0  0
 49165  1  0  0  0  0
 50166  1  0  0  0  0
 50167  1  0  0  0  0
 51168  1  0  0  0  0
 51169  1  0  0  0  0
 52170  1  0  0  0  0
 52171  1  0  0  0  0
 53172  1  0  0  0  0
 53173  1  0  0  0  0
 54174  1  0  0  0  0
 54175  1  0  0  0  0
 55176  1  0  0  0  0
 55177  1  0  0  0  0
 56178  1  0  0  0  0
 56179  1  0  0  0  0
 57180  1  0  0  0  0
 57181  1  0  0  0  0
 58182  1  0  0  0  0
 58183  1  0  0  0  0
 59184  1  0  0  0  0
 59185  1  0  0  0  0
 60186  1  0  0  0  0
 60187  1  0  0  0  0
 61188  1  0  0  0  0
 61189  1  0  0  0  0
 62190  1  0  0  0  0
 63191  1  0  0  0  0
 63192  1  0  0  0  0
 63193  1  0  0  0  0
 64194  1  0  0  0  0
 64195  1  0  0  0  0
 64196  1  0  0  0  0
 65197  1  0  0  0  0
 65198  1  0  0  0  0
 69199  1  0  0  0  0
 69200  1  0  0  0  0
 70201  1  0  0  0  0
 70202  1  0  0  0  0
 71203  1  0  0  0  0
 71204  1  0  0  0  0
 72205  1  0  0  0  0
 72206  1  0  0  0  0
 73207  1  0  0  0  0
 73208  1  0  0  0  0
 74209  1  0  0  0  0
 74210  1  0  0  0  0
 75211  1  0  0  0  0
 75212  1  0  0  0  0
 76213  1  0  0  0  0
 76214  1  0  0  0  0
 77215  1  0  0  0  0
 77216  1  0  0  0  0
 78217  1  0  0  0  0
 78218  1  0  0  0  0
 79219  1  0  0  0  0
 79220  1  0  0  0  0
 80221  1  0  0  0  0
 80222  1  0  0  0  0
 81223  1  0  0  0  0
 81224  1  0  0  0  0
 82225  1  0  0  0  0
 82226  1  0  0  0  0
 83227  1  0  0  0  0
 84228  1  0  0  0  0
 84229  1  0  0  0  0
 84230  1  0  0  0  0
 85231  1  0  0  0  0
 85232  1  0  0  0  0
 85233  1  0  0  0  0
M  END
>  <InChIKey>
LPGFSDGXTDNTCB-UHFFFAOYSA-N

>  <UN GHS>
Non-irritant

>  <CASRN>
62125-22-8

> <Outcome>
0

>  <Index>
444

>  <StandardizerResult>
Clear Stereo (ID: ClearStereo)
Wedge Clean (ID: WedgeClean)
Mesomerize (ID: Mesomerize)
Tautomerize (ID: Tautomerize)
Add Explicit Hydrogens (ID: AddExplicitH)
Neutralize (ID: Neutralize)
Clean 2D (ID: Clean2D)

> <knn Distance>
2.82842707633972

> <CpId>
444

$$$$
470
  Mrv1532301301811342D          

 63 62  0  0  0  0            999 V2000
    1.9046   -7.9996    0.0000 C   0  0  0  0  0  0  0  0  0  0  0  0
    2.4767   -8.5941    0.0000 C   0  0  0  0  0  0  0  0  0  0  0  0
    3.2775   -8.3960    0.0000 C   0  0  0  0  0  0  0  0  0  0  0  0
    3.8496   -8.9904    0.0000 C   0  0  0  0  0  0  0  0  0  0  0  0
    4.6504   -8.7923    0.0000 C   0  0  0  0  0  0  0  0  0  0  0  0
    5.2224   -9.3868    0.0000 C   0  0  0  0  0  0  0  0  0  0  0  0
    6.0233   -9.1886    0.0000 C   0  0  0  0  0  0  0  0  0  0  0  0
    6.5953   -9.7831    0.0000 C   0  0  0  0  0  0  0  0  0  0  0  0
    7.3962   -9.5849    0.0000 C   0  0  0  0  0  0  0  0  0  0  0  0
    7.9682  -10.1794    0.0000 C   0  0  0  0  0  0  0  0  0  0  0  0
    8.7691   -9.9812    0.0000 C   0  0  0  0  0  0  0  0  0  0  0  0
    9.3411  -10.5757    0.0000 C   0  0  0  0  0  0  0  0  0  0  0  0
    9.1123  -11.3683    0.0000 O   0  0  0  0  0  0  0  0  0  0  0  0
   10.1419  -10.3775    0.0000 N   0  0  0  0  0  0  0  0  0  0  0  0
   10.7140  -10.9720    0.0000 C   0  0  0  0  0  0  0  0  0  0  0  0
   11.5148  -10.7739    0.0000 C   0  0  0  0  0  0  0  0  0  0  0  0
   12.0869  -11.3683    0.0000 C   0  0  0  0  0  0  0  0  0  0  0  0
   12.8877  -11.1702    0.0000 C   0  0  0  0  0  0  0  0  0  0  0  0
   10.3708   -9.5849    0.0000 C   0  0  0  0  0  0  0  0  0  0  0  0
   11.1716   -9.3868    0.0000 C   0  0  0  0  0  0  0  0  0  0  0  0
   11.4004   -8.5941    0.0000 C   0  0  0  0  0  0  0  0  0  0  0  0
   12.2013   -8.3960    0.0000 C   0  0  0  0  0  0  0  0  0  0  0  0
    2.4991   -7.4276    0.0000 H   0  0  0  0  0  0  0  0  0  0  0  0
    1.3326   -7.4052    0.0000 H   0  0  0  0  0  0  0  0  0  0  0  0
    1.3102   -8.5717    0.0000 H   0  0  0  0  0  0  0  0  0  0  0  0
    1.9165   -9.1998    0.0000 H   0  0  0  0  0  0  0  0  0  0  0  0
    2.6279   -9.4051    0.0000 H   0  0  0  0  0  0  0  0  0  0  0  0
    3.8377   -7.7903    0.0000 H   0  0  0  0  0  0  0  0  0  0  0  0
    3.1263   -7.5849    0.0000 H   0  0  0  0  0  0  0  0  0  0  0  0
    3.2894   -9.5961    0.0000 H   0  0  0  0  0  0  0  0  0  0  0  0
    4.0008   -9.8015    0.0000 H   0  0  0  0  0  0  0  0  0  0  0  0
    5.2106   -8.1866    0.0000 H   0  0  0  0  0  0  0  0  0  0  0  0
    4.4992   -7.9813    0.0000 H   0  0  0  0  0  0  0  0  0  0  0  0
    4.6622   -9.9924    0.0000 H   0  0  0  0  0  0  0  0  0  0  0  0
    5.3737  -10.1978    0.0000 H   0  0  0  0  0  0  0  0  0  0  0  0
    6.5835   -8.5830    0.0000 H   0  0  0  0  0  0  0  0  0  0  0  0
    5.8720   -8.3776    0.0000 H   0  0  0  0  0  0  0  0  0  0  0  0
    6.0351  -10.3887    0.0000 H   0  0  0  0  0  0  0  0  0  0  0  0
    6.7466  -10.5941    0.0000 H   0  0  0  0  0  0  0  0  0  0  0  0
    7.9564   -8.9793    0.0000 H   0  0  0  0  0  0  0  0  0  0  0  0
    7.2449   -8.7739    0.0000 H   0  0  0  0  0  0  0  0  0  0  0  0
    7.4080  -10.7850    0.0000 H   0  0  0  0  0  0  0  0  0  0  0  0
    8.1195  -10.9904    0.0000 H   0  0  0  0  0  0  0  0  0  0  0  0
    9.3293   -9.3756    0.0000 H   0  0  0  0  0  0  0  0  0  0  0  0
    8.6178   -9.1702    0.0000 H   0  0  0  0  0  0  0  0  0  0  0  0
   10.1538  -11.5777    0.0000 H   0  0  0  0  0  0  0  0  0  0  0  0
   10.8652  -11.7830    0.0000 H   0  0  0  0  0  0  0  0  0  0  0  0
   12.0750  -10.1682    0.0000 H   0  0  0  0  0  0  0  0  0  0  0  0
   11.3636   -9.9629    0.0000 H   0  0  0  0  0  0  0  0  0  0  0  0
   11.5267  -11.9740    0.0000 H   0  0  0  0  0  0  0  0  0  0  0  0
   12.2381  -12.1794    0.0000 H   0  0  0  0  0  0  0  0  0  0  0  0
   13.0859  -11.9710    0.0000 H   0  0  0  0  0  0  0  0  0  0  0  0
   13.6886  -10.9720    0.0000 H   0  0  0  0  0  0  0  0  0  0  0  0
   12.6895  -10.3693    0.0000 H   0  0  0  0  0  0  0  0  0  0  0  0
   10.1264   -8.7969    0.0000 H   0  0  0  0  0  0  0  0  0  0  0  0
    9.5928   -9.3104    0.0000 H   0  0  0  0  0  0  0  0  0  0  0  0
   11.9964   -9.3700    0.0000 H   0  0  0  0  0  0  0  0  0  0  0  0
   10.5996   -8.7923    0.0000 H   0  0  0  0  0  0  0  0  0  0  0  0
   11.4881   -7.7738    0.0000 H   0  0  0  0  0  0  0  0  0  0  0  0
   10.9403   -7.9093    0.0000 H   0  0  0  0  0  0  0  0  0  0  0  0
   12.2034   -9.2210    0.0000 H   0  0  0  0  0  0  0  0  0  0  0  0
   13.0031   -8.5900    0.0000 H   0  0  0  0  0  0  0  0  0  0  0  0
   12.5803   -7.6632    0.0000 H   0  0  0  0  0  0  0  0  0  0  0  0
  1  2  1  0  0  0  0
  2  3  1  0  0  0  0
  3  4  1  0  0  0  0
  4  5  1  0  0  0  0
  5  6  1  0  0  0  0
  6  7  1  0  0  0  0
  7  8  1  0  0  0  0
  8  9  1  0  0  0  0
  9 10  1  0  0  0  0
 10 11  1  0  0  0  0
 11 12  1  0  0  0  0
 12 13  2  0  0  0  0
 12 14  1  0  0  0  0
 14 15  1  0  0  0  0
 15 16  1  0  0  0  0
 16 17  1  0  0  0  0
 17 18  1  0  0  0  0
 14 19  1  0  0  0  0
 19 20  1  0  0  0  0
 20 21  1  0  0  0  0
 21 22  1  0  0  0  0
  1 23  1  0  0  0  0
  1 24  1  0  0  0  0
  1 25  1  0  0  0  0
  2 26  1  0  0  0  0
  2 27  1  0  0  0  0
  3 28  1  0  0  0  0
  3 29  1  0  0  0  0
  4 30  1  0  0  0  0
  4 31  1  0  0  0  0
  5 32  1  0  0  0  0
  5 33  1  0  0  0  0
  6 34  1  0  0  0  0
  6 35  1  0  0  0  0
  7 36  1  0  0  0  0
  7 37  1  0  0  0  0
  8 38  1  0  0  0  0
  8 39  1  0  0  0  0
  9 40  1  0  0  0  0
  9 41  1  0  0  0  0
 10 42  1  0  0  0  0
 10 43  1  0  0  0  0
 11 44  1  0  0  0  0
 11 45  1  0  0  0  0
 15 46  1  0  0  0  0
 15 47  1  0  0  0  0
 16 48  1  0  0  0  0
 16 49  1  0  0  0  0
 17 50  1  0  0  0  0
 17 51  1  0  0  0  0
 18 52  1  0  0  0  0
 18 53  1  0  0  0  0
 18 54  1  0  0  0  0
 19 55  1  0  0  0  0
 19 56  1  0  0  0  0
 20 57  1  0  0  0  0
 20 58  1  0  0  0  0
 21 59  1  0  0  0  0
 21 60  1  0  0  0  0
 22 61  1  0  0  0  0
 22 62  1  0  0  0  0
 22 63  1  0  0  0  0
M  END
>  <InChIKey>
MFARGUPPFBTESX-UHFFFAOYSA-N

>  <UN GHS>
Non-irritant

>  <CASRN>
5343-44-2

> <Outcome>
0

>  <Index>
470

>  <StandardizerResult>
Clear Stereo (ID: ClearStereo)
Wedge Clean (ID: WedgeClean)
Mesomerize (ID: Mesomerize)
Tautomerize (ID: Tautomerize)
Add Explicit Hydrogens (ID: AddExplicitH)
Neutralize (ID: Neutralize)
Clean 2D (ID: Clean2D)

> <knn Distance>
2.82842707633972

> <CpId>
470

$$$$
537
  Mrv1532301301811342D          

 22 22  0  0  0  0            999 V2000
   -0.7152    3.7121    0.0000 C   0  0  0  0  0  0  0  0  0  0  0  0
   -0.0007    3.2996    0.0000 C   0  0  0  0  0  0  0  0  0  0  0  0
   -0.0007    2.4746    0.0000 O   0  0  0  0  0  0  0  0  0  0  0  0
    0.7138    2.0621    0.0000 C   0  0  0  0  0  0  0  0  0  0  0  0
    1.4282    2.4746    0.0000 O   0  0  0  0  0  0  0  0  0  0  0  0
    0.7138    1.2371    0.0000 C   0  0  0  0  0  0  0  0  0  0  0  0
    1.4282    0.8246    0.0000 C   0  0  0  0  0  0  0  0  0  0  0  0
    1.4282   -0.0004    0.0000 C   0  0  0  0  0  0  0  0  0  0  0  0
    0.7138   -0.4129    0.0000 C   0  0  0  0  0  0  0  0  0  0  0  0
    0.7138   -1.2379    0.0000 O   0  0  0  0  0  0  0  0  0  0  0  0
   -0.0007   -0.0004    0.0000 C   0  0  0  0  0  0  0  0  0  0  0  0
   -0.0007    0.8246    0.0000 C   0  0  0  0  0  0  0  0  0  0  0  0
   -0.3027    4.4266    0.0000 H   0  0  0  0  0  0  0  0  0  0  0  0
   -1.4296    4.1246    0.0000 H   0  0  0  0  0  0  0  0  0  0  0  0
   -1.1277    2.9976    0.0000 H   0  0  0  0  0  0  0  0  0  0  0  0
    0.8229    3.3476    0.0000 H   0  0  0  0  0  0  0  0  0  0  0  0
    0.4526    3.9889    0.0000 H   0  0  0  0  0  0  0  0  0  0  0  0
    2.1427    1.2371    0.0000 H   0  0  0  0  0  0  0  0  0  0  0  0
    2.1427   -0.4129    0.0000 H   0  0  0  0  0  0  0  0  0  0  0  0
   -0.0007   -1.6504    0.0000 H   0  0  0  0  0  0  0  0  0  0  0  0
   -0.7152   -0.4129    0.0000 H   0  0  0  0  0  0  0  0  0  0  0  0
   -0.7152    1.2371    0.0000 H   0  0  0  0  0  0  0  0  0  0  0  0
  1  2  1  0  0  0  0
  2  3  1  0  0  0  0
  3  4  1  0  0  0  0
  4  5  2  0  0  0  0
  4  6  1  0  0  0  0
  6  7  4  0  0  0  0
  7  8  4  0  0  0  0
  8  9  4  0  0  0  0
  9 10  1  0  0  0  0
  9 11  4  0  0  0  0
 11 12  4  0  0  0  0
  6 12  4  0  0  0  0
  1 13  1  0  0  0  0
  1 14  1  0  0  0  0
  1 15  1  0  0  0  0
  2 16  1  0  0  0  0
  2 17  1  0  0  0  0
  7 18  1  0  0  0  0
  8 19  1  0  0  0  0
 10 20  1  0  0  0  0
 11 21  1  0  0  0  0
 12 22  1  0  0  0  0
M  END
>  <InChIKey>
NUVBSKCKDOMJSU-UHFFFAOYSA-N

>  <UN GHS>
Non-irritant

>  <CASRN>
120-47-8

> <Outcome>
0

>  <Index>
537

>  <StandardizerResult>
Dearomatize (ID: Dearomatize)
Clear Stereo (ID: ClearStereo)
Wedge Clean (ID: WedgeClean)
Mesomerize (ID: Mesomerize)
Tautomerize (ID: Tautomerize)
Aromatize (ID: Aromatize)
Add Explicit Hydrogens (ID: AddExplicitH)
Neutralize (ID: Neutralize)
Clean 2D (ID: Clean2D)

> <knn Distance>
2.82842707633972

> <CpId>
537

$$$$
540
  Mrv1532301301811342D          

 48 48  0  0  0  0            999 V2000
    0.0472    3.3053    0.0000 C   0  0  0  0  0  0  0  0  0  0  0  0
    0.0472    2.4803    0.0000 C   0  0  0  0  0  0  0  0  0  0  0  0
    0.7617    2.0678    0.0000 C   0  0  0  0  0  0  0  0  0  0  0  0
    0.7617    1.2428    0.0000 C   0  0  0  0  0  0  0  0  0  0  0  0
    1.4762    0.8303    0.0000 C   0  0  0  0  0  0  0  0  0  0  0  0
    1.4762    0.0053    0.0000 C   0  0  0  0  0  0  0  0  0  0  0  0
    2.1906   -0.4072    0.0000 C   0  0  0  0  0  0  0  0  0  0  0  0
    2.9051    0.0053    0.0000 C   0  0  0  0  0  0  0  0  0  0  0  0
    3.6196   -0.4072    0.0000 C   0  0  0  0  0  0  0  0  0  0  0  0
    0.7617   -0.4072    0.0000 C   0  0  0  0  0  0  0  0  0  0  0  0
    0.7617   -1.2322    0.0000 C   0  0  0  0  0  0  0  0  0  0  0  0
    0.0472   -1.6447    0.0000 C   0  0  0  0  0  0  0  0  0  0  0  0
    0.0472   -2.4697    0.0000 C   0  0  0  0  0  0  0  0  0  0  0  0
    0.0472    0.0053    0.0000 C   0  0  0  0  0  0  0  0  0  0  0  0
   -0.6673   -0.4072    0.0000 C   0  0  0  0  0  0  0  0  0  0  0  0
   -0.6673   -1.2322    0.0000 C   0  0  0  0  0  0  0  0  0  0  0  0
   -1.3817   -1.6447    0.0000 C   0  0  0  0  0  0  0  0  0  0  0  0
    0.0472    0.8303    0.0000 C   0  0  0  0  0  0  0  0  0  0  0  0
    0.8722    3.3053    0.0000 H   0  0  0  0  0  0  0  0  0  0  0  0
    0.0472    4.1303    0.0000 H   0  0  0  0  0  0  0  0  0  0  0  0
   -0.7778    3.3053    0.0000 H   0  0  0  0  0  0  0  0  0  0  0  0
   -0.7764    2.4323    0.0000 H   0  0  0  0  0  0  0  0  0  0  0  0
   -0.4061    1.7910    0.0000 H   0  0  0  0  0  0  0  0  0  0  0  0
    1.5853    2.1158    0.0000 H   0  0  0  0  0  0  0  0  0  0  0  0
    1.2150    2.7571    0.0000 H   0  0  0  0  0  0  0  0  0  0  0  0
    2.1906    1.2428    0.0000 H   0  0  0  0  0  0  0  0  0  0  0  0
    1.8204   -1.1444    0.0000 H   0  0  0  0  0  0  0  0  0  0  0  0
    2.5609   -1.1444    0.0000 H   0  0  0  0  0  0  0  0  0  0  0  0
    3.2754    0.7426    0.0000 H   0  0  0  0  0  0  0  0  0  0  0  0
    2.5348    0.7426    0.0000 H   0  0  0  0  0  0  0  0  0  0  0  0
    3.2071   -1.1217    0.0000 H   0  0  0  0  0  0  0  0  0  0  0  0
    4.3340   -0.8197    0.0000 H   0  0  0  0  0  0  0  0  0  0  0  0
    4.0321    0.3073    0.0000 H   0  0  0  0  0  0  0  0  0  0  0  0
    1.2150   -1.9215    0.0000 H   0  0  0  0  0  0  0  0  0  0  0  0
    1.5853   -1.2802    0.0000 H   0  0  0  0  0  0  0  0  0  0  0  0
    0.0472   -0.8197    0.0000 H   0  0  0  0  0  0  0  0  0  0  0  0
    0.7617   -2.0572    0.0000 H   0  0  0  0  0  0  0  0  0  0  0  0
   -0.7497   -2.2562    0.0000 H   0  0  0  0  0  0  0  0  0  0  0  0
   -0.3653   -3.1842    0.0000 H   0  0  0  0  0  0  0  0  0  0  0  0
    0.6306   -3.0530    0.0000 H   0  0  0  0  0  0  0  0  0  0  0  0
   -1.1206    0.2821    0.0000 H   0  0  0  0  0  0  0  0  0  0  0  0
   -1.4909   -0.3592    0.0000 H   0  0  0  0  0  0  0  0  0  0  0  0
   -0.6673   -2.0572    0.0000 H   0  0  0  0  0  0  0  0  0  0  0  0
   -1.3817   -0.8197    0.0000 H   0  0  0  0  0  0  0  0  0  0  0  0
   -2.0696   -1.1892    0.0000 H   0  0  0  0  0  0  0  0  0  0  0  0
   -2.1413   -1.9667    0.0000 H   0  0  0  0  0  0  0  0  0  0  0  0
   -1.5326   -2.4558    0.0000 H   0  0  0  0  0  0  0  0  0  0  0  0
   -0.6673    1.2428    0.0000 H   0  0  0  0  0  0  0  0  0  0  0  0
  1  2  1  0  0  0  0
  2  3  1  0  0  0  0
  3  4  1  0  0  0  0
  4  5  4  0  0  0  0
  5  6  4  0  0  0  0
  6  7  1  0  0  0  0
  7  8  1  0  0  0  0
  8  9  1  0  0  0  0
  6 10  4  0  0  0  0
 10 11  1  0  0  0  0
 11 12  1  0  0  0  0
 12 13  1  0  0  0  0
 10 14  4  0  0  0  0
 14 15  1  0  0  0  0
 15 16  1  0  0  0  0
 16 17  1  0  0  0  0
 14 18  4  0  0  0  0
  4 18  4  0  0  0  0
  1 19  1  0  0  0  0
  1 20  1  0  0  0  0
  1 21  1  0  0  0  0
  2 22  1  0  0  0  0
  2 23  1  0  0  0  0
  3 24  1  0  0  0  0
  3 25  1  0  0  0  0
  5 26  1  0  0  0  0
  7 27  1  0  0  0  0
  7 28  1  0  0  0  0
  8 29  1  0  0  0  0
  8 30  1  0  0  0  0
  9 31  1  0  0  0  0
  9 32  1  0  0  0  0
  9 33  1  0  0  0  0
 11 34  1  0  0  0  0
 11 35  1  0  0  0  0
 12 36  1  0  0  0  0
 12 37  1  0  0  0  0
 13 38  1  0  0  0  0
 13 39  1  0  0  0  0
 13 40  1  0  0  0  0
 15 41  1  0  0  0  0
 15 42  1  0  0  0  0
 16 43  1  0  0  0  0
 16 44  1  0  0  0  0
 17 45  1  0  0  0  0
 17 46  1  0  0  0  0
 17 47  1  0  0  0  0
 18 48  1  0  0  0  0
M  END
>  <InChIKey>
NYIQECIYDUSNRC-UHFFFAOYSA-N

>  <UN GHS>
Non-irritant

>  <CASRN>
25265-78-5

> <Outcome>
0

>  <Index>
540

>  <StandardizerResult>
Dearomatize (ID: Dearomatize)
Clear Stereo (ID: ClearStereo)
Wedge Clean (ID: WedgeClean)
Mesomerize (ID: Mesomerize)
Tautomerize (ID: Tautomerize)
Aromatize (ID: Aromatize)
Add Explicit Hydrogens (ID: AddExplicitH)
Neutralize (ID: Neutralize)
Clean 2D (ID: Clean2D)

> <knn Distance>
2.82842707633972

> <CpId>
540

$$$$
544
  Mrv1532301301811342D          

 42 41  0  0  0  0            999 V2000
    3.5211    2.8579    0.0000 C   0  0  0  0  0  0  0  0  0  0  0  0
    4.2355    3.2704    0.0000 C   0  0  0  0  0  0  0  0  0  0  0  0
    4.9500    2.8579    0.0000 C   0  0  0  0  0  0  0  0  0  0  0  0
    5.6645    3.2704    0.0000 C   0  0  0  0  0  0  0  0  0  0  0  0
    6.3789    2.8579    0.0000 C   0  0  0  0  0  0  0  0  0  0  0  0
    7.0934    3.2704    0.0000 C   0  0  0  0  0  0  0  0  0  0  0  0
    7.8079    2.8579    0.0000 C   0  0  0  0  0  0  0  0  0  0  0  0
    8.5224    3.2704    0.0000 C   0  0  0  0  0  0  0  0  0  0  0  0
    9.2368    2.8579    0.0000 C   0  0  0  0  0  0  0  0  0  0  0  0
    9.9513    3.2704    0.0000 C   0  0  0  0  0  0  0  0  0  0  0  0
   10.6658    2.8579    0.0000 C   0  0  0  0  0  0  0  0  0  0  0  0
   11.3802    3.2704    0.0000 C   0  0  0  0  0  0  0  0  0  0  0  0
   12.0947    2.8579    0.0000 C   0  0  0  0  0  0  0  0  0  0  0  0
   12.8092    3.2704    0.0000 C   0  0  0  0  0  0  0  0  0  0  0  0
    3.1086    3.5724    0.0000 H   0  0  0  0  0  0  0  0  0  0  0  0
    2.8066    2.4454    0.0000 H   0  0  0  0  0  0  0  0  0  0  0  0
    3.9336    2.1434    0.0000 H   0  0  0  0  0  0  0  0  0  0  0  0
    4.6058    4.0076    0.0000 H   0  0  0  0  0  0  0  0  0  0  0  0
    3.8653    4.0076    0.0000 H   0  0  0  0  0  0  0  0  0  0  0  0
    4.5797    2.1207    0.0000 H   0  0  0  0  0  0  0  0  0  0  0  0
    5.3203    2.1207    0.0000 H   0  0  0  0  0  0  0  0  0  0  0  0
    6.0347    4.0076    0.0000 H   0  0  0  0  0  0  0  0  0  0  0  0
    5.2942    4.0076    0.0000 H   0  0  0  0  0  0  0  0  0  0  0  0
    6.0087    2.1207    0.0000 H   0  0  0  0  0  0  0  0  0  0  0  0
    6.7492    2.1207    0.0000 H   0  0  0  0  0  0  0  0  0  0  0  0
    7.4637    4.0076    0.0000 H   0  0  0  0  0  0  0  0  0  0  0  0
    6.7232    4.0076    0.0000 H   0  0  0  0  0  0  0  0  0  0  0  0
    7.4376    2.1207    0.0000 H   0  0  0  0  0  0  0  0  0  0  0  0
    8.1781    2.1207    0.0000 H   0  0  0  0  0  0  0  0  0  0  0  0
    8.8926    4.0076    0.0000 H   0  0  0  0  0  0  0  0  0  0  0  0
    8.1521    4.0076    0.0000 H   0  0  0  0  0  0  0  0  0  0  0  0
    8.8666    2.1207    0.0000 H   0  0  0  0  0  0  0  0  0  0  0  0
    9.6071    2.1207    0.0000 H   0  0  0  0  0  0  0  0  0  0  0  0
   10.3216    4.0076    0.0000 H   0  0  0  0  0  0  0  0  0  0  0  0
    9.5810    4.0076    0.0000 H   0  0  0  0  0  0  0  0  0  0  0  0
   10.2955    2.1207    0.0000 H   0  0  0  0  0  0  0  0  0  0  0  0
   11.0360    2.1207    0.0000 H   0  0  0  0  0  0  0  0  0  0  0  0
   11.3802    4.0954    0.0000 H   0  0  0  0  0  0  0  0  0  0  0  0
   12.0947    2.0329    0.0000 H   0  0  0  0  0  0  0  0  0  0  0  0
   13.2217    2.5559    0.0000 H   0  0  0  0  0  0  0  0  0  0  0  0
   13.5237    3.6829    0.0000 H   0  0  0  0  0  0  0  0  0  0  0  0
   12.3967    3.9849    0.0000 H   0  0  0  0  0  0  0  0  0  0  0  0
  1  2  1  0  0  0  0
  2  3  1  0  0  0  0
  3  4  1  0  0  0  0
  4  5  1  0  0  0  0
  5  6  1  0  0  0  0
  6  7  1  0  0  0  0
  7  8  1  0  0  0  0
  8  9  1  0  0  0  0
  9 10  1  0  0  0  0
 10 11  1  0  0  0  0
 11 12  1  0  0  0  0
 12 13  2  0  0  0  0
 13 14  1  4  0  0  0
  1 15  1  0  0  0  0
  1 16  1  0  0  0  0
  1 17  1  0  0  0  0
  2 18  1  0  0  0  0
  2 19  1  0  0  0  0
  3 20  1  0  0  0  0
  3 21  1  0  0  0  0
  4 22  1  0  0  0  0
  4 23  1  0  0  0  0
  5 24  1  0  0  0  0
  5 25  1  0  0  0  0
  6 26  1  0  0  0  0
  6 27  1  0  0  0  0
  7 28  1  0  0  0  0
  7 29  1  0  0  0  0
  8 30  1  0  0  0  0
  8 31  1  0  0  0  0
  9 32  1  0  0  0  0
  9 33  1  0  0  0  0
 10 34  1  0  0  0  0
 10 35  1  0  0  0  0
 11 36  1  0  0  0  0
 11 37  1  0  0  0  0
 12 38  1  0  0  0  0
 13 39  1  0  0  0  0
 14 40  1  0  0  0  0
 14 41  1  0  0  0  0
 14 42  1  0  0  0  0
M  END
>  <InChIKey>
OBDUMNZXAIUUTH-HWKANZROSA-N

>  <UN GHS>
Non-irritant

>  <CASRN>
26952-13-6

> <Outcome>
0

>  <Index>
544

>  <StandardizerResult>
Clear Stereo (ID: ClearStereo)
Wedge Clean (ID: WedgeClean)
Mesomerize (ID: Mesomerize)
Tautomerize (ID: Tautomerize)
Add Explicit Hydrogens (ID: AddExplicitH)
Neutralize (ID: Neutralize)
Clean 2D (ID: Clean2D)

> <knn Distance>
2.82842707633972

> <CpId>
544

$$$$
546
  Mrv1532301301811342D          

 26 25  0  0  0  0            999 V2000
    0.7940   -1.4417    0.0000 C   0  0  0  0  0  0  0  0  0  0  0  0
    1.2065   -2.1562    0.0000 C   0  0  0  0  0  0  0  0  0  0  0  0
    2.0315   -2.1562    0.0000 C   0  0  0  0  0  0  0  0  0  0  0  0
    2.4440   -2.8706    0.0000 C   0  0  0  0  0  0  0  0  0  0  0  0
    3.2690   -2.8706    0.0000 C   0  0  0  0  0  0  0  0  0  0  0  0
    3.6815   -3.5851    0.0000 C   0  0  0  0  0  0  0  0  0  0  0  0
    4.5065   -3.5851    0.0000 C   0  0  0  0  0  0  0  0  0  0  0  0
    3.6815   -2.1562    0.0000 C   0  0  0  0  0  0  0  0  0  0  0  0
    3.2690   -1.4417    0.0000 O   0  0  0  0  0  0  0  0  0  0  0  0
    4.5065   -2.1562    0.0000 O   0  0  0  0  0  0  0  0  0  0  0  0
    1.5084   -1.0292    0.0000 H   0  0  0  0  0  0  0  0  0  0  0  0
    0.3815   -0.7272    0.0000 H   0  0  0  0  0  0  0  0  0  0  0  0
    0.0795   -1.8542    0.0000 H   0  0  0  0  0  0  0  0  0  0  0  0
    0.5172   -2.6095    0.0000 H   0  0  0  0  0  0  0  0  0  0  0  0
    1.1585   -2.9798    0.0000 H   0  0  0  0  0  0  0  0  0  0  0  0
    2.7208   -1.7028    0.0000 H   0  0  0  0  0  0  0  0  0  0  0  0
    2.0794   -1.3326    0.0000 H   0  0  0  0  0  0  0  0  0  0  0  0
    1.7547   -3.3240    0.0000 H   0  0  0  0  0  0  0  0  0  0  0  0
    2.3960   -3.6942    0.0000 H   0  0  0  0  0  0  0  0  0  0  0  0
    2.8565   -3.5851    0.0000 H   0  0  0  0  0  0  0  0  0  0  0  0
    3.3993   -4.3603    0.0000 H   0  0  0  0  0  0  0  0  0  0  0  0
    3.9636   -4.3603    0.0000 H   0  0  0  0  0  0  0  0  0  0  0  0
    5.0504   -4.2054    0.0000 H   0  0  0  0  0  0  0  0  0  0  0  0
    5.2383   -3.2042    0.0000 H   0  0  0  0  0  0  0  0  0  0  0  0
    4.3104   -2.7837    0.0000 H   0  0  0  0  0  0  0  0  0  0  0  0
    3.5138   -0.6539    0.0000 H   0  0  0  0  0  0  0  0  0  0  0  0
  1  2  1  0  0  0  0
  2  3  1  0  0  0  0
  3  4  1  0  0  0  0
  4  5  1  0  0  0  0
  5  6  1  0  0  0  0
  6  7  1  0  0  0  0
  5  8  1  0  0  0  0
  8  9  1  0  0  0  0
  8 10  2  0  0  0  0
  1 11  1  0  0  0  0
  1 12  1  0  0  0  0
  1 13  1  0  0  0  0
  2 14  1  0  0  0  0
  2 15  1  0  0  0  0
  3 16  1  0  0  0  0
  3 17  1  0  0  0  0
  4 18  1  0  0  0  0
  4 19  1  0  0  0  0
  5 20  1  0  0  0  0
  6 21  1  0  0  0  0
  6 22  1  0  0  0  0
  7 23  1  0  0  0  0
  7 24  1  0  0  0  0
  7 25  1  0  0  0  0
  9 26  1  0  0  0  0
M  END
>  <InChIKey>
OBETXYAYXDNJHR-UHFFFAOYSA-N

>  <UN GHS>
Non-irritant

>  <CASRN>
149-57-5

> <Outcome>
0

>  <Index>
546

>  <StandardizerResult>
Clear Stereo (ID: ClearStereo)
Wedge Clean (ID: WedgeClean)
Mesomerize (ID: Mesomerize)
Tautomerize (ID: Tautomerize)
Add Explicit Hydrogens (ID: AddExplicitH)
Neutralize (ID: Neutralize)
Clean 2D (ID: Clean2D)

> <knn Distance>
2.82842707633972

> <CpId>
546

$$$$
553
  Mrv1532301301811342D          

 12 11  0  0  0  0            999 V2000
    0.8250    1.4289    0.0000 C   0  0  0  0  0  0  0  0  0  0  0  0
    1.2375    0.7145    0.0000 N   0  0  0  0  0  0  0  0  0  0  0  0
    0.8250   -0.0000    0.0000 C   0  0  0  0  0  0  0  0  0  0  0  0
    1.2375   -0.7145    0.0000 C   0  0  0  0  0  0  0  0  0  0  0  0
   -0.0000   -0.0000    0.0000 O   0  0  0  0  0  0  0  0  0  0  0  0
    1.5395    1.8414    0.0000 H   0  0  0  0  0  0  0  0  0  0  0  0
    0.4125    2.1434    0.0000 H   0  0  0  0  0  0  0  0  0  0  0  0
    0.1105    1.0164    0.0000 H   0  0  0  0  0  0  0  0  0  0  0  0
    2.0625    0.7145    0.0000 H   0  0  0  0  0  0  0  0  0  0  0  0
    0.5230   -1.1270    0.0000 H   0  0  0  0  0  0  0  0  0  0  0  0
    1.6500   -1.4290    0.0000 H   0  0  0  0  0  0  0  0  0  0  0  0
    1.9520   -0.3020    0.0000 H   0  0  0  0  0  0  0  0  0  0  0  0
  1  2  1  0  0  0  0
  2  3  1  0  0  0  0
  3  4  1  0  0  0  0
  3  5  2  0  0  0  0
  1  6  1  0  0  0  0
  1  7  1  0  0  0  0
  1  8  1  0  0  0  0
  2  9  1  0  0  0  0
  4 10  1  0  0  0  0
  4 11  1  0  0  0  0
  4 12  1  0  0  0  0
M  END
>  <InChIKey>
OHLUUHNLEMFGTQ-UHFFFAOYSA-N

>  <UN GHS>
Non-irritant

>  <CASRN>
79-16-3

> <Outcome>
0

>  <Index>
553

>  <StandardizerResult>
Clear Stereo (ID: ClearStereo)
Wedge Clean (ID: WedgeClean)
Mesomerize (ID: Mesomerize)
Tautomerize (ID: Tautomerize)
Add Explicit Hydrogens (ID: AddExplicitH)
Neutralize (ID: Neutralize)
Clean 2D (ID: Clean2D)

> <knn Distance>
2.82842707633972

> <CpId>
553

$$$$
599
  Mrv1532301301811342D          

 41 43  0  0  0  0            999 V2000
    2.1508   -0.3997    0.0000 C   0  0  0  0  0  0  0  0  0  0  0  0
    2.1508   -1.2247    0.0000 C   0  0  0  0  0  0  0  0  0  0  0  0
    2.8653   -1.6372    0.0000 C   0  0  0  0  0  0  0  0  0  0  0  0
    2.8653   -2.4622    0.0000 C   0  0  0  0  0  0  0  0  0  0  0  0
    2.1508   -2.8747    0.0000 C   0  0  0  0  0  0  0  0  0  0  0  0
    1.4364   -2.4622    0.0000 C   0  0  0  0  0  0  0  0  0  0  0  0
    0.7219   -2.8747    0.0000 C   0  0  0  0  0  0  0  0  0  0  0  0
    0.7219   -3.6997    0.0000 C   0  0  0  0  0  0  0  0  0  0  0  0
    1.4364   -4.1122    0.0000 C   0  0  0  0  0  0  0  0  0  0  0  0
    1.4364   -4.9372    0.0000 C   0  0  0  0  0  0  0  0  0  0  0  0
    0.7219   -5.3497    0.0000 C   0  0  0  0  0  0  0  0  0  0  0  0
    0.0074   -4.9372    0.0000 C   0  0  0  0  0  0  0  0  0  0  0  0
    0.0074   -4.1122    0.0000 C   0  0  0  0  0  0  0  0  0  0  0  0
    1.4364   -1.6372    0.0000 C   0  0  0  0  0  0  0  0  0  0  0  0
    0.7219   -1.2247    0.0000 C   0  0  0  0  0  0  0  0  0  0  0  0
    0.7219   -0.3997    0.0000 C   0  0  0  0  0  0  0  0  0  0  0  0
    0.0074    0.0128    0.0000 C   0  0  0  0  0  0  0  0  0  0  0  0
    0.0074    0.8378    0.0000 C   0  0  0  0  0  0  0  0  0  0  0  0
    0.7219    1.2503    0.0000 C   0  0  0  0  0  0  0  0  0  0  0  0
    1.4364    0.8378    0.0000 C   0  0  0  0  0  0  0  0  0  0  0  0
    1.4364    0.0128    0.0000 C   0  0  0  0  0  0  0  0  0  0  0  0
    2.8653   -0.8122    0.0000 H   0  0  0  0  0  0  0  0  0  0  0  0
    2.8653    0.0128    0.0000 H   0  0  0  0  0  0  0  0  0  0  0  0
    2.1508    0.4253    0.0000 H   0  0  0  0  0  0  0  0  0  0  0  0
    3.6903   -1.6372    0.0000 H   0  0  0  0  0  0  0  0  0  0  0  0
    3.5798   -2.8747    0.0000 H   0  0  0  0  0  0  0  0  0  0  0  0
    2.1508   -3.6997    0.0000 H   0  0  0  0  0  0  0  0  0  0  0  0
    0.2686   -2.1855    0.0000 H   0  0  0  0  0  0  0  0  0  0  0  0
   -0.1017   -2.8268    0.0000 H   0  0  0  0  0  0  0  0  0  0  0  0
    1.4364   -3.2872    0.0000 H   0  0  0  0  0  0  0  0  0  0  0  0
    2.1508   -5.3497    0.0000 H   0  0  0  0  0  0  0  0  0  0  0  0
    0.7219   -6.1747    0.0000 H   0  0  0  0  0  0  0  0  0  0  0  0
   -0.7070   -5.3497    0.0000 H   0  0  0  0  0  0  0  0  0  0  0  0
   -0.7070   -3.6997    0.0000 H   0  0  0  0  0  0  0  0  0  0  0  0
   -0.1017   -1.2727    0.0000 H   0  0  0  0  0  0  0  0  0  0  0  0
    0.2686   -1.9140    0.0000 H   0  0  0  0  0  0  0  0  0  0  0  0
   -0.7070   -0.3997    0.0000 H   0  0  0  0  0  0  0  0  0  0  0  0
   -0.7070    1.2503    0.0000 H   0  0  0  0  0  0  0  0  0  0  0  0
    0.7219    2.0753    0.0000 H   0  0  0  0  0  0  0  0  0  0  0  0
    1.8489    1.5522    0.0000 H   0  0  0  0  0  0  0  0  0  0  0  0
    1.4364   -0.8122    0.0000 H   0  0  0  0  0  0  0  0  0  0  0  0
  1  2  1  0  0  0  0
  2  3  4  0  0  0  0
  3  4  4  0  0  0  0
  4  5  4  0  0  0  0
  5  6  4  0  0  0  0
  6  7  1  0  0  0  0
  7  8  1  0  0  0  0
  8  9  4  0  0  0  0
  9 10  4  0  0  0  0
 10 11  4  0  0  0  0
 11 12  4  0  0  0  0
 12 13  4  0  0  0  0
  8 13  4  0  0  0  0
  6 14  4  0  0  0  0
  2 14  4  0  0  0  0
 14 15  1  0  0  0  0
 15 16  1  0  0  0  0
 16 17  4  0  0  0  0
 17 18  4  0  0  0  0
 18 19  4  0  0  0  0
 19 20  4  0  0  0  0
 20 21  4  0  0  0  0
 16 21  4  0  0  0  0
  1 22  1  0  0  0  0
  1 23  1  0  0  0  0
  1 24  1  0  0  0  0
  3 25  1  0  0  0  0
  4 26  1  0  0  0  0
  5 27  1  0  0  0  0
  7 28  1  0  0  0  0
  7 29  1  0  0  0  0
  9 30  1  0  0  0  0
 10 31  1  0  0  0  0
 11 32  1  0  0  0  0
 12 33  1  0  0  0  0
 13 34  1  0  0  0  0
 15 35  1  0  0  0  0
 15 36  1  0  0  0  0
 17 37  1  0  0  0  0
 18 38  1  0  0  0  0
 19 39  1  0  0  0  0
 20 40  1  0  0  0  0
 21 41  1  0  0  0  0
M  END
>  <InChIKey>
PKQYSCBUFZOAPE-UHFFFAOYSA-N

>  <UN GHS>
Non-irritant

>  <CASRN>
26898-17-9

> <Outcome>
0

>  <Index>
599

>  <StandardizerResult>
Dearomatize (ID: Dearomatize)
Clear Stereo (ID: ClearStereo)
Wedge Clean (ID: WedgeClean)
Mesomerize (ID: Mesomerize)
Tautomerize (ID: Tautomerize)
Aromatize (ID: Aromatize)
Add Explicit Hydrogens (ID: AddExplicitH)
Neutralize (ID: Neutralize)
Clean 2D (ID: Clean2D)

> <knn Distance>
2.82842707633972

> <CpId>
599

$$$$
610
  Mrv1532301301811342D          

 30 31  0  0  0  0            999 V2000
    1.4362    0.0246    0.0000 C   0  0  0  0  0  0  0  0  0  0  0  0
    2.1506   -0.3879    0.0000 C   0  0  0  0  0  0  0  0  0  0  0  0
    2.1506   -1.2129    0.0000 C   0  0  0  0  0  0  0  0  0  0  0  0
    2.8651   -1.6254    0.0000 C   0  0  0  0  0  0  0  0  0  0  0  0
    2.8651   -2.4504    0.0000 C   0  0  0  0  0  0  0  0  0  0  0  0
    2.1506   -2.8629    0.0000 C   0  0  0  0  0  0  0  0  0  0  0  0
    1.4362   -2.4504    0.0000 C   0  0  0  0  0  0  0  0  0  0  0  0
    1.4362   -1.6254    0.0000 C   0  0  0  0  0  0  0  0  0  0  0  0
    2.8651    0.0246    0.0000 C   0  0  0  0  0  0  0  0  0  0  0  0
    2.8651    0.8496    0.0000 C   0  0  0  0  0  0  0  0  0  0  0  0
    3.5796    1.2621    0.0000 C   0  0  0  0  0  0  0  0  0  0  0  0
    4.2940    0.8496    0.0000 C   0  0  0  0  0  0  0  0  0  0  0  0
    5.0085    1.2621    0.0000 O   0  0  0  0  0  0  0  0  0  0  0  0
    4.2940    0.0246    0.0000 C   0  0  0  0  0  0  0  0  0  0  0  0
    3.5796   -0.3879    0.0000 C   0  0  0  0  0  0  0  0  0  0  0  0
    3.5796   -1.2129    0.0000 O   0  0  0  0  0  0  0  0  0  0  0  0
    1.8487    0.7391    0.0000 H   0  0  0  0  0  0  0  0  0  0  0  0
    0.7217    0.4371    0.0000 H   0  0  0  0  0  0  0  0  0  0  0  0
    1.0237   -0.6898    0.0000 H   0  0  0  0  0  0  0  0  0  0  0  0
    1.4362   -0.8004    0.0000 H   0  0  0  0  0  0  0  0  0  0  0  0
    2.8651   -0.8004    0.0000 H   0  0  0  0  0  0  0  0  0  0  0  0
    3.5796   -2.8629    0.0000 H   0  0  0  0  0  0  0  0  0  0  0  0
    2.1506   -3.6879    0.0000 H   0  0  0  0  0  0  0  0  0  0  0  0
    0.7217   -2.8629    0.0000 H   0  0  0  0  0  0  0  0  0  0  0  0
    0.6112   -1.6254    0.0000 H   0  0  0  0  0  0  0  0  0  0  0  0
    2.1506    1.2621    0.0000 H   0  0  0  0  0  0  0  0  0  0  0  0
    3.5796    2.0871    0.0000 H   0  0  0  0  0  0  0  0  0  0  0  0
    5.7230    0.8496    0.0000 H   0  0  0  0  0  0  0  0  0  0  0  0
    5.0085   -0.3879    0.0000 H   0  0  0  0  0  0  0  0  0  0  0  0
    4.2940   -1.6254    0.0000 H   0  0  0  0  0  0  0  0  0  0  0  0
  1  2  1  0  0  0  0
  2  3  1  0  0  0  0
  3  4  4  0  0  0  0
  4  5  4  0  0  0  0
  5  6  4  0  0  0  0
  6  7  4  0  0  0  0
  7  8  4  0  0  0  0
  3  8  4  0  0  0  0
  2  9  1  0  0  0  0
  9 10  4  0  0  0  0
 10 11  4  0  0  0  0
 11 12  4  0  0  0  0
 12 13  1  0  0  0  0
 12 14  4  0  0  0  0
 14 15  4  0  0  0  0
  9 15  4  0  0  0  0
 15 16  1  0  0  0  0
  1 17  1  0  0  0  0
  1 18  1  0  0  0  0
  1 19  1  0  0  0  0
  2 20  1  0  0  0  0
  4 21  1  0  0  0  0
  5 22  1  0  0  0  0
  6 23  1  0  0  0  0
  7 24  1  0  0  0  0
  8 25  1  0  0  0  0
 10 26  1  0  0  0  0
 11 27  1  0  0  0  0
 13 28  1  0  0  0  0
 14 29  1  0  0  0  0
 16 30  1  0  0  0  0
M  END
>  <InChIKey>
PQSXNIMHIHYFEE-UHFFFAOYSA-N

>  <UN GHS>
Non-irritant

>  <CASRN>
85-27-8

> <Outcome>
0

>  <Index>
610

>  <StandardizerResult>
Dearomatize (ID: Dearomatize)
Clear Stereo (ID: ClearStereo)
Wedge Clean (ID: WedgeClean)
Mesomerize (ID: Mesomerize)
Tautomerize (ID: Tautomerize)
Aromatize (ID: Aromatize)
Add Explicit Hydrogens (ID: AddExplicitH)
Neutralize (ID: Neutralize)
Clean 2D (ID: Clean2D)

> <knn Distance>
2.82842707633972

> <CpId>
610

$$$$
677
  Mrv1532301301811342D          

 46 45  0  0  0  0            999 V2000
    1.7602    1.8420    0.0000 C   0  0  0  0  0  0  0  0  0  0  0  0
    2.4747    1.4295    0.0000 C   0  0  0  0  0  0  0  0  0  0  0  0
    3.1891    1.8420    0.0000 C   0  0  0  0  0  0  0  0  0  0  0  0
    3.9036    1.4295    0.0000 C   0  0  0  0  0  0  0  0  0  0  0  0
    4.6181    1.8420    0.0000 C   0  0  0  0  0  0  0  0  0  0  0  0
    5.3326    1.4295    0.0000 C   0  0  0  0  0  0  0  0  0  0  0  0
    6.0470    1.8420    0.0000 C   0  0  0  0  0  0  0  0  0  0  0  0
    6.7615    1.4295    0.0000 C   0  0  0  0  0  0  0  0  0  0  0  0
    7.4760    1.8420    0.0000 C   0  0  0  0  0  0  0  0  0  0  0  0
    8.1904    1.4295    0.0000 C   0  0  0  0  0  0  0  0  0  0  0  0
    8.9049    1.8420    0.0000 C   0  0  0  0  0  0  0  0  0  0  0  0
    9.6194    1.4295    0.0000 C   0  0  0  0  0  0  0  0  0  0  0  0
   10.3339    1.8420    0.0000 C   0  0  0  0  0  0  0  0  0  0  0  0
   10.3339    2.6670    0.0000 C   0  0  0  0  0  0  0  0  0  0  0  0
   11.0483    3.0795    0.0000 C   0  0  0  0  0  0  0  0  0  0  0  0
   11.0483    3.9045    0.0000 C   0  0  0  0  0  0  0  0  0  0  0  0
    2.1727    2.5564    0.0000 H   0  0  0  0  0  0  0  0  0  0  0  0
    1.0457    2.2545    0.0000 H   0  0  0  0  0  0  0  0  0  0  0  0
    1.3477    1.1275    0.0000 H   0  0  0  0  0  0  0  0  0  0  0  0
    2.1044    0.6922    0.0000 H   0  0  0  0  0  0  0  0  0  0  0  0
    2.8449    0.6922    0.0000 H   0  0  0  0  0  0  0  0  0  0  0  0
    3.5594    2.5792    0.0000 H   0  0  0  0  0  0  0  0  0  0  0  0
    2.8189    2.5792    0.0000 H   0  0  0  0  0  0  0  0  0  0  0  0
    3.5334    0.6922    0.0000 H   0  0  0  0  0  0  0  0  0  0  0  0
    4.2739    0.6922    0.0000 H   0  0  0  0  0  0  0  0  0  0  0  0
    4.9883    2.5792    0.0000 H   0  0  0  0  0  0  0  0  0  0  0  0
    4.2478    2.5792    0.0000 H   0  0  0  0  0  0  0  0  0  0  0  0
    4.9623    0.6922    0.0000 H   0  0  0  0  0  0  0  0  0  0  0  0
    5.7028    0.6922    0.0000 H   0  0  0  0  0  0  0  0  0  0  0  0
    6.0470    2.6670    0.0000 H   0  0  0  0  0  0  0  0  0  0  0  0
    6.7615    0.6045    0.0000 H   0  0  0  0  0  0  0  0  0  0  0  0
    7.8462    2.5792    0.0000 H   0  0  0  0  0  0  0  0  0  0  0  0
    7.1057    2.5792    0.0000 H   0  0  0  0  0  0  0  0  0  0  0  0
    7.8202    0.6922    0.0000 H   0  0  0  0  0  0  0  0  0  0  0  0
    8.5607    0.6922    0.0000 H   0  0  0  0  0  0  0  0  0  0  0  0
    8.9049    2.6670    0.0000 H   0  0  0  0  0  0  0  0  0  0  0  0
    9.6194    0.6045    0.0000 H   0  0  0  0  0  0  0  0  0  0  0  0
   10.7872    1.1527    0.0000 H   0  0  0  0  0  0  0  0  0  0  0  0
   11.1575    1.7940    0.0000 H   0  0  0  0  0  0  0  0  0  0  0  0
    9.8805    3.3563    0.0000 H   0  0  0  0  0  0  0  0  0  0  0  0
    9.5103    2.7149    0.0000 H   0  0  0  0  0  0  0  0  0  0  0  0
   11.5017    2.3902    0.0000 H   0  0  0  0  0  0  0  0  0  0  0  0
   11.8719    3.0315    0.0000 H   0  0  0  0  0  0  0  0  0  0  0  0
   11.8733    3.9045    0.0000 H   0  0  0  0  0  0  0  0  0  0  0  0
   11.0483    4.7295    0.0000 H   0  0  0  0  0  0  0  0  0  0  0  0
   10.2233    3.9045    0.0000 H   0  0  0  0  0  0  0  0  0  0  0  0
  1  2  1  0  0  0  0
  2  3  1  0  0  0  0
  3  4  1  0  0  0  0
  4  5  1  0  0  0  0
  5  6  1  0  0  0  0
  7  6  1  4  0  0  0
  7  8  2  0  0  0  0
  8  9  1  0  0  0  0
  9 10  1  0  0  0  0
 11 10  1  4  0  0  0
 11 12  2  0  0  0  0
 12 13  1  0  0  0  0
 13 14  1  0  0  0  0
 14 15  1  0  0  0  0
 15 16  1  0  0  0  0
  1 17  1  0  0  0  0
  1 18  1  0  0  0  0
  1 19  1  0  0  0  0
  2 20  1  0  0  0  0
  2 21  1  0  0  0  0
  3 22  1  0  0  0  0
  3 23  1  0  0  0  0
  4 24  1  0  0  0  0
  4 25  1  0  0  0  0
  5 26  1  0  0  0  0
  5 27  1  0  0  0  0
  6 28  1  0  0  0  0
  6 29  1  0  0  0  0
  7 30  1  0  0  0  0
  8 31  1  0  0  0  0
  9 32  1  0  0  0  0
  9 33  1  0  0  0  0
 10 34  1  0  0  0  0
 10 35  1  0  0  0  0
 11 36  1  0  0  0  0
 12 37  1  0  0  0  0
 13 38  1  0  0  0  0
 13 39  1  0  0  0  0
 14 40  1  0  0  0  0
 14 41  1  0  0  0  0
 15 42  1  0  0  0  0
 15 43  1  0  0  0  0
 16 44  1  0  0  0  0
 16 45  1  0  0  0  0
 16 46  1  0  0  0  0
M  END
>  <InChIKey>
RMTVKKKRDAWJCP-RHYUXORRSA-N

>  <UN GHS>
Non-irritant

>  <CASRN>
93762-80-2

> <Outcome>
0

>  <Index>
677

>  <StandardizerResult>
Clear Stereo (ID: ClearStereo)
Wedge Clean (ID: WedgeClean)
Mesomerize (ID: Mesomerize)
Tautomerize (ID: Tautomerize)
Add Explicit Hydrogens (ID: AddExplicitH)
Neutralize (ID: Neutralize)
Clean 2D (ID: Clean2D)

> <knn Distance>
2.82842707633972

> <CpId>
677

$$$$
682
  Mrv1532301301811342D          

 60 59  0  0  0  0            999 V2000
    0.1003    8.3573    0.0000 C   0  0  0  0  0  0  0  0  0  0  0  0
    0.1003    7.5323    0.0000 C   0  0  0  0  0  0  0  0  0  0  0  0
    0.8148    7.1198    0.0000 C   0  0  0  0  0  0  0  0  0  0  0  0
    0.8148    6.2948    0.0000 C   0  0  0  0  0  0  0  0  0  0  0  0
    1.5293    5.8823    0.0000 C   0  0  0  0  0  0  0  0  0  0  0  0
    2.2438    6.2948    0.0000 C   0  0  0  0  0  0  0  0  0  0  0  0
    2.9582    5.8823    0.0000 C   0  0  0  0  0  0  0  0  0  0  0  0
    1.5293    5.0573    0.0000 C   0  0  0  0  0  0  0  0  0  0  0  0
    2.2438    4.6448    0.0000 O   0  0  0  0  0  0  0  0  0  0  0  0
    2.2438    3.8198    0.0000 C   0  0  0  0  0  0  0  0  0  0  0  0
    1.5293    3.4073    0.0000 O   0  0  0  0  0  0  0  0  0  0  0  0
    2.9582    3.4073    0.0000 C   0  0  0  0  0  0  0  0  0  0  0  0
    2.9582    2.5823    0.0000 C   0  0  0  0  0  0  0  0  0  0  0  0
    3.6727    2.1698    0.0000 C   0  0  0  0  0  0  0  0  0  0  0  0
    3.6727    1.3448    0.0000 O   0  0  0  0  0  0  0  0  0  0  0  0
    4.3872    2.5823    0.0000 O   0  0  0  0  0  0  0  0  0  0  0  0
    5.1016    2.1698    0.0000 C   0  0  0  0  0  0  0  0  0  0  0  0
    5.8161    2.5823    0.0000 C   0  0  0  0  0  0  0  0  0  0  0  0
    5.8161    3.4073    0.0000 C   0  0  0  0  0  0  0  0  0  0  0  0
    6.5306    3.8198    0.0000 C   0  0  0  0  0  0  0  0  0  0  0  0
    6.5306    2.1698    0.0000 C   0  0  0  0  0  0  0  0  0  0  0  0
    7.2451    2.5823    0.0000 C   0  0  0  0  0  0  0  0  0  0  0  0
    7.9595    2.1698    0.0000 C   0  0  0  0  0  0  0  0  0  0  0  0
    8.6740    2.5823    0.0000 C   0  0  0  0  0  0  0  0  0  0  0  0
    0.9253    8.3573    0.0000 H   0  0  0  0  0  0  0  0  0  0  0  0
    0.1003    9.1823    0.0000 H   0  0  0  0  0  0  0  0  0  0  0  0
   -0.7247    8.3573    0.0000 H   0  0  0  0  0  0  0  0  0  0  0  0
   -0.7233    7.4843    0.0000 H   0  0  0  0  0  0  0  0  0  0  0  0
   -0.3530    6.8430    0.0000 H   0  0  0  0  0  0  0  0  0  0  0  0
    1.6384    7.1678    0.0000 H   0  0  0  0  0  0  0  0  0  0  0  0
    1.2682    7.8091    0.0000 H   0  0  0  0  0  0  0  0  0  0  0  0
   -0.0088    6.2468    0.0000 H   0  0  0  0  0  0  0  0  0  0  0  0
    0.3615    5.6055    0.0000 H   0  0  0  0  0  0  0  0  0  0  0  0
    1.5293    6.7073    0.0000 H   0  0  0  0  0  0  0  0  0  0  0  0
    2.8757    6.8251    0.0000 H   0  0  0  0  0  0  0  0  0  0  0  0
    2.3870    7.1073    0.0000 H   0  0  0  0  0  0  0  0  0  0  0  0
    2.3877    5.2863    0.0000 H   0  0  0  0  0  0  0  0  0  0  0  0
    3.4015    5.1865    0.0000 H   0  0  0  0  0  0  0  0  0  0  0  0
    3.7394    6.1475    0.0000 H   0  0  0  0  0  0  0  0  0  0  0  0
    0.7057    5.0093    0.0000 H   0  0  0  0  0  0  0  0  0  0  0  0
    1.0759    4.3680    0.0000 H   0  0  0  0  0  0  0  0  0  0  0  0
    3.6727    3.8198    0.0000 H   0  0  0  0  0  0  0  0  0  0  0  0
    2.2438    2.1698    0.0000 H   0  0  0  0  0  0  0  0  0  0  0  0
    4.7314    1.4325    0.0000 H   0  0  0  0  0  0  0  0  0  0  0  0
    5.4719    1.4325    0.0000 H   0  0  0  0  0  0  0  0  0  0  0  0
    5.1016    2.9948    0.0000 H   0  0  0  0  0  0  0  0  0  0  0  0
    5.6729    4.2198    0.0000 H   0  0  0  0  0  0  0  0  0  0  0  0
    5.1841    3.9376    0.0000 H   0  0  0  0  0  0  0  0  0  0  0  0
    6.7614    3.0277    0.0000 H   0  0  0  0  0  0  0  0  0  0  0  0
    7.3548    3.8558    0.0000 H   0  0  0  0  0  0  0  0  0  0  0  0
    6.6915    4.6289    0.0000 H   0  0  0  0  0  0  0  0  0  0  0  0
    6.1603    1.4325    0.0000 H   0  0  0  0  0  0  0  0  0  0  0  0
    6.9008    1.4325    0.0000 H   0  0  0  0  0  0  0  0  0  0  0  0
    7.7337    3.2470    0.0000 H   0  0  0  0  0  0  0  0  0  0  0  0
    7.2451    1.7573    0.0000 H   0  0  0  0  0  0  0  0  0  0  0  0
    8.1028    1.3573    0.0000 H   0  0  0  0  0  0  0  0  0  0  0  0
    8.5915    1.6395    0.0000 H   0  0  0  0  0  0  0  0  0  0  0  0
    9.4552    2.3171    0.0000 H   0  0  0  0  0  0  0  0  0  0  0  0
    9.1173    3.2781    0.0000 H   0  0  0  0  0  0  0  0  0  0  0  0
    8.1035    3.1782    0.0000 H   0  0  0  0  0  0  0  0  0  0  0  0
  1  2  1  0  0  0  0
  2  3  1  0  0  0  0
  3  4  1  0  0  0  0
  4  5  1  0  0  0  0
  5  6  1  0  0  0  0
  6  7  1  0  0  0  0
  5  8  1  0  0  0  0
  8  9  1  0  0  0  0
  9 10  1  0  0  0  0
 10 11  2  0  0  0  0
 12 10  1  4  0  0  0
 12 13  2  0  0  0  0
 13 14  1  0  0  0  0
 14 15  2  0  0  0  0
 14 16  1  0  0  0  0
 16 17  1  0  0  0  0
 17 18  1  0  0  0  0
 18 19  1  0  0  0  0
 19 20  1  0  0  0  0
 18 21  1  0  0  0  0
 21 22  1  0  0  0  0
 22 23  1  0  0  0  0
 23 24  1  0  0  0  0
  1 25  1  0  0  0  0
  1 26  1  0  0  0  0
  1 27  1  0  0  0  0
  2 28  1  0  0  0  0
  2 29  1  0  0  0  0
  3 30  1  0  0  0  0
  3 31  1  0  0  0  0
  4 32  1  0  0  0  0
  4 33  1  0  0  0  0
  5 34  1  0  0  0  0
  6 35  1  0  0  0  0
  6 36  1  0  0  0  0
  7 37  1  0  0  0  0
  7 38  1  0  0  0  0
  7 39  1  0  0  0  0
  8 40  1  0  0  0  0
  8 41  1  0  0  0  0
 12 42  1  0  0  0  0
 13 43  1  0  0  0  0
 17 44  1  0  0  0  0
 17 45  1  0  0  0  0
 18 46  1  0  0  0  0
 19 47  1  0  0  0  0
 19 48  1  0  0  0  0
 20 49  1  0  0  0  0
 20 50  1  0  0  0  0
 20 51  1  0  0  0  0
 21 52  1  0  0  0  0
 21 53  1  0  0  0  0
 22 54  1  0  0  0  0
 22 55  1  0  0  0  0
 23 56  1  0  0  0  0
 23 57  1  0  0  0  0
 24 58  1  0  0  0  0
 24 59  1  0  0  0  0
 24 60  1  0  0  0  0
M  END
>  <InChIKey>
ROPXFXOUUANXRR-UHFFFAOYSA-N

>  <UN GHS>
Non-irritant

>  <CASRN>
142-16-5

> <Outcome>
0

>  <Index>
682

>  <StandardizerResult>
Clear Stereo (ID: ClearStereo)
Wedge Clean (ID: WedgeClean)
Mesomerize (ID: Mesomerize)
Tautomerize (ID: Tautomerize)
Add Explicit Hydrogens (ID: AddExplicitH)
Neutralize (ID: Neutralize)
Clean 2D (ID: Clean2D)

> <knn Distance>
2.82842707633972

> <CpId>
682

$$$$
715
  Mrv1532301301811342D          

 20 19  0  0  0  0            999 V2000
    1.0461    1.4289    0.0000 C   0  0  0  0  0  0  0  0  0  0  0  0
    1.7605    1.8414    0.0000 O   0  0  0  0  0  0  0  0  0  0  0  0
    2.4750    1.4289    0.0000 C   0  0  0  0  0  0  0  0  0  0  0  0
    3.1895    1.8414    0.0000 C   0  0  0  0  0  0  0  0  0  0  0  0
    3.9040    1.4289    0.0000 O   0  0  0  0  0  0  0  0  0  0  0  0
    4.6184    1.8414    0.0000 C   0  0  0  0  0  0  0  0  0  0  0  0
    5.3329    1.4289    0.0000 C   0  0  0  0  0  0  0  0  0  0  0  0
    6.0474    1.8414    0.0000 O   0  0  0  0  0  0  0  0  0  0  0  0
    0.6336    2.1434    0.0000 H   0  0  0  0  0  0  0  0  0  0  0  0
    0.3316    1.0164    0.0000 H   0  0  0  0  0  0  0  0  0  0  0  0
    1.4586    0.7144    0.0000 H   0  0  0  0  0  0  0  0  0  0  0  0
    2.1048    0.6917    0.0000 H   0  0  0  0  0  0  0  0  0  0  0  0
    2.8453    0.6917    0.0000 H   0  0  0  0  0  0  0  0  0  0  0  0
    3.5597    2.5786    0.0000 H   0  0  0  0  0  0  0  0  0  0  0  0
    2.8192    2.5786    0.0000 H   0  0  0  0  0  0  0  0  0  0  0  0
    4.9887    2.5786    0.0000 H   0  0  0  0  0  0  0  0  0  0  0  0
    4.2482    2.5786    0.0000 H   0  0  0  0  0  0  0  0  0  0  0  0
    4.9626    0.6917    0.0000 H   0  0  0  0  0  0  0  0  0  0  0  0
    5.7032    0.6917    0.0000 H   0  0  0  0  0  0  0  0  0  0  0  0
    6.7618    1.4289    0.0000 H   0  0  0  0  0  0  0  0  0  0  0  0
  1  2  1  0  0  0  0
  2  3  1  0  0  0  0
  3  4  1  0  0  0  0
  4  5  1  0  0  0  0
  5  6  1  0  0  0  0
  6  7  1  0  0  0  0
  7  8  1  0  0  0  0
  1  9  1  0  0  0  0
  1 10  1  0  0  0  0
  1 11  1  0  0  0  0
  3 12  1  0  0  0  0
  3 13  1  0  0  0  0
  4 14  1  0  0  0  0
  4 15  1  0  0  0  0
  6 16  1  0  0  0  0
  6 17  1  0  0  0  0
  7 18  1  0  0  0  0
  7 19  1  0  0  0  0
  8 20  1  0  0  0  0
M  END
>  <InChIKey>
SBASXUCJHJRPEV-UHFFFAOYSA-N

>  <UN GHS>
Non-irritant

>  <CASRN>
111-77-3

> <Outcome>
0

>  <Index>
715

>  <StandardizerResult>
Clear Stereo (ID: ClearStereo)
Wedge Clean (ID: WedgeClean)
Mesomerize (ID: Mesomerize)
Tautomerize (ID: Tautomerize)
Add Explicit Hydrogens (ID: AddExplicitH)
Neutralize (ID: Neutralize)
Clean 2D (ID: Clean2D)

> <knn Distance>
2.82842707633972

> <CpId>
715

$$$$
717
  Mrv1532301301811342D          

 33 32  0  0  0  0            999 V2000
    3.5211    2.8574    0.0000 C   0  0  0  0  0  0  0  0  0  0  0  0
    4.2355    3.2699    0.0000 O   0  0  0  0  0  0  0  0  0  0  0  0
    4.9500    2.8574    0.0000 C   0  0  0  0  0  0  0  0  0  0  0  0
    4.9500    2.0324    0.0000 O   0  0  0  0  0  0  0  0  0  0  0  0
    5.6645    3.2699    0.0000 C   0  0  0  0  0  0  0  0  0  0  0  0
    6.3789    2.8574    0.0000 C   0  0  0  0  0  0  0  0  0  0  0  0
    7.0934    3.2699    0.0000 C   0  0  0  0  0  0  0  0  0  0  0  0
    7.8079    2.8574    0.0000 C   0  0  0  0  0  0  0  0  0  0  0  0
    8.5224    3.2699    0.0000 C   0  0  0  0  0  0  0  0  0  0  0  0
    9.2368    2.8574    0.0000 C   0  0  0  0  0  0  0  0  0  0  0  0
    9.9513    3.2699    0.0000 C   0  0  0  0  0  0  0  0  0  0  0  0
   10.6658    2.8574    0.0000 C   0  0  0  0  0  0  0  0  0  0  0  0
   11.3802    3.2699    0.0000 C   0  0  0  0  0  0  0  0  0  0  0  0
    3.1086    3.5718    0.0000 H   0  0  0  0  0  0  0  0  0  0  0  0
    2.8066    2.4449    0.0000 H   0  0  0  0  0  0  0  0  0  0  0  0
    3.9336    2.1429    0.0000 H   0  0  0  0  0  0  0  0  0  0  0  0
    6.0347    4.0071    0.0000 H   0  0  0  0  0  0  0  0  0  0  0  0
    5.2942    4.0071    0.0000 H   0  0  0  0  0  0  0  0  0  0  0  0
    6.0087    2.1201    0.0000 H   0  0  0  0  0  0  0  0  0  0  0  0
    6.7492    2.1201    0.0000 H   0  0  0  0  0  0  0  0  0  0  0  0
    7.4637    4.0071    0.0000 H   0  0  0  0  0  0  0  0  0  0  0  0
    6.7232    4.0071    0.0000 H   0  0  0  0  0  0  0  0  0  0  0  0
    7.4376    2.1201    0.0000 H   0  0  0  0  0  0  0  0  0  0  0  0
    8.1781    2.1201    0.0000 H   0  0  0  0  0  0  0  0  0  0  0  0
    8.8926    4.0071    0.0000 H   0  0  0  0  0  0  0  0  0  0  0  0
    8.1521    4.0071    0.0000 H   0  0  0  0  0  0  0  0  0  0  0  0
    8.8666    2.1201    0.0000 H   0  0  0  0  0  0  0  0  0  0  0  0
    9.6071    2.1201    0.0000 H   0  0  0  0  0  0  0  0  0  0  0  0
   10.3216    4.0071    0.0000 H   0  0  0  0  0  0  0  0  0  0  0  0
    9.5810    4.0071    0.0000 H   0  0  0  0  0  0  0  0  0  0  0  0
   10.6658    2.0324    0.0000 H   0  0  0  0  0  0  0  0  0  0  0  0
   12.0947    2.8574    0.0000 H   0  0  0  0  0  0  0  0  0  0  0  0
   11.3802    4.0949    0.0000 H   0  0  0  0  0  0  0  0  0  0  0  0
  1  2  1  0  0  0  0
  2  3  1  0  0  0  0
  3  4  2  0  0  0  0
  3  5  1  0  0  0  0
  5  6  1  0  0  0  0
  6  7  1  0  0  0  0
  7  8  1  0  0  0  0
  8  9  1  0  0  0  0
  9 10  1  0  0  0  0
 10 11  1  0  0  0  0
 11 12  1  0  0  0  0
 12 13  2  0  0  0  0
  1 14  1  0  0  0  0
  1 15  1  0  0  0  0
  1 16  1  0  0  0  0
  5 17  1  0  0  0  0
  5 18  1  0  0  0  0
  6 19  1  0  0  0  0
  6 20  1  0  0  0  0
  7 21  1  0  0  0  0
  7 22  1  0  0  0  0
  8 23  1  0  0  0  0
  8 24  1  0  0  0  0
  9 25  1  0  0  0  0
  9 26  1  0  0  0  0
 10 27  1  0  0  0  0
 10 28  1  0  0  0  0
 11 29  1  0  0  0  0
 11 30  1  0  0  0  0
 12 31  1  0  0  0  0
 13 32  1  0  0  0  0
 13 33  1  0  0  0  0
M  END
>  <InChIKey>
SBIGSHCJXYGFMX-UHFFFAOYSA-N

>  <UN GHS>
Non-irritant

>  <CASRN>
25601-41-6

> <Outcome>
0

>  <Index>
717

>  <StandardizerResult>
Clear Stereo (ID: ClearStereo)
Wedge Clean (ID: WedgeClean)
Mesomerize (ID: Mesomerize)
Tautomerize (ID: Tautomerize)
Add Explicit Hydrogens (ID: AddExplicitH)
Neutralize (ID: Neutralize)
Clean 2D (ID: Clean2D)

> <knn Distance>
2.82842707633972

> <CpId>
717

$$$$
729
  Mrv1532301301811342D          

 24 23  0  0  0  0            999 V2000
   -0.6146   -2.4006    0.0000 C   0  0  0  0  0  0  0  0  0  0  0  0
    0.0999   -1.9881    0.0000 C   0  0  0  0  0  0  0  0  0  0  0  0
    0.8144   -2.4006    0.0000 C   0  0  0  0  0  0  0  0  0  0  0  0
    0.0999   -1.1631    0.0000 C   0  0  0  0  0  0  0  0  0  0  0  0
   -0.6146   -0.7506    0.0000 O   0  0  0  0  0  0  0  0  0  0  0  0
    0.8144   -0.7506    0.0000 O   0  0  0  0  0  0  0  0  0  0  0  0
    0.8144    0.0744    0.0000 C   0  0  0  0  0  0  0  0  0  0  0  0
    0.8144    0.8994    0.0000 C   0  0  0  0  0  0  0  0  0  0  0  0
    1.6394    0.0744    0.0000 C   0  0  0  0  0  0  0  0  0  0  0  0
   -0.0106    0.0744    0.0000 C   0  0  0  0  0  0  0  0  0  0  0  0
   -1.0271   -1.6862    0.0000 H   0  0  0  0  0  0  0  0  0  0  0  0
   -1.3290   -2.8131    0.0000 H   0  0  0  0  0  0  0  0  0  0  0  0
   -0.2021   -3.1151    0.0000 H   0  0  0  0  0  0  0  0  0  0  0  0
    0.8144   -3.2256    0.0000 H   0  0  0  0  0  0  0  0  0  0  0  0
    1.5289   -1.9881    0.0000 H   0  0  0  0  0  0  0  0  0  0  0  0
    1.6394    0.8994    0.0000 H   0  0  0  0  0  0  0  0  0  0  0  0
    0.8144    1.7244    0.0000 H   0  0  0  0  0  0  0  0  0  0  0  0
   -0.0106    0.8994    0.0000 H   0  0  0  0  0  0  0  0  0  0  0  0
    1.3237   -0.6878    0.0000 H   0  0  0  0  0  0  0  0  0  0  0  0
    2.2227   -0.5090    0.0000 H   0  0  0  0  0  0  0  0  0  0  0  0
    2.4016    0.3901    0.0000 H   0  0  0  0  0  0  0  0  0  0  0  0
   -0.7728    0.3901    0.0000 H   0  0  0  0  0  0  0  0  0  0  0  0
   -0.5940   -0.5090    0.0000 H   0  0  0  0  0  0  0  0  0  0  0  0
    0.3051   -0.6878    0.0000 H   0  0  0  0  0  0  0  0  0  0  0  0
  1  2  1  0  0  0  0
  2  3  2  0  0  0  0
  2  4  1  0  0  0  0
  4  5  2  0  0  0  0
  4  6  1  0  0  0  0
  6  7  1  0  0  0  0
  7  8  1  0  0  0  0
  7  9  1  0  0  0  0
  7 10  1  0  0  0  0
  1 11  1  0  0  0  0
  1 12  1  0  0  0  0
  1 13  1  0  0  0  0
  3 14  1  0  0  0  0
  3 15  1  0  0  0  0
  8 16  1  0  0  0  0
  8 17  1  0  0  0  0
  8 18  1  0  0  0  0
  9 19  1  0  0  0  0
  9 20  1  0  0  0  0
  9 21  1  0  0  0  0
 10 22  1  0  0  0  0
 10 23  1  0  0  0  0
 10 24  1  0  0  0  0
M  END
>  <InChIKey>
SJMYWORNLPSJQO-UHFFFAOYSA-N

>  <UN GHS>
Non-irritant

>  <CASRN>
585-07-9

> <Outcome>
0

>  <Index>
729

>  <StandardizerResult>
Clear Stereo (ID: ClearStereo)
Wedge Clean (ID: WedgeClean)
Mesomerize (ID: Mesomerize)
Tautomerize (ID: Tautomerize)
Add Explicit Hydrogens (ID: AddExplicitH)
Neutralize (ID: Neutralize)
Clean 2D (ID: Clean2D)

> <knn Distance>
2.82842707633972

> <CpId>
729

$$$$
770
  Mrv1532301301811342D          

 39 39  0  0  0  0            999 V2000
    2.1194   -5.3634    0.0000 C   0  0  0  0  0  0  0  0  0  0  0  0
    2.8338   -4.9509    0.0000 C   0  0  0  0  0  0  0  0  0  0  0  0
    3.5483   -5.3634    0.0000 C   0  0  0  0  0  0  0  0  0  0  0  0
    4.2628   -4.9509    0.0000 C   0  0  0  0  0  0  0  0  0  0  0  0
    4.9772   -5.3634    0.0000 C   0  0  0  0  0  0  0  0  0  0  0  0
    4.9772   -6.1884    0.0000 C   0  0  0  0  0  0  0  0  0  0  0  0
    5.6917   -6.6009    0.0000 C   0  0  0  0  0  0  0  0  0  0  0  0
    5.6917   -4.9509    0.0000 C   0  0  0  0  0  0  0  0  0  0  0  0
    6.4062   -5.3634    0.0000 O   0  0  0  0  0  0  0  0  0  0  0  0
    7.1207   -4.9509    0.0000 C   0  0  0  0  0  0  0  0  0  0  0  0
    7.1207   -4.1259    0.0000 O   0  0  0  0  0  0  0  0  0  0  0  0
    7.8351   -5.3634    0.0000 C   0  0  0  0  0  0  0  0  0  0  0  0
    8.5496   -4.9509    0.0000 C   0  0  0  0  0  0  0  0  0  0  0  0
    9.2641   -5.3634    0.0000 C   0  0  0  0  0  0  0  0  0  0  0  0
    9.2641   -6.1884    0.0000 C   0  0  0  0  0  0  0  0  0  0  0  0
    8.5496   -6.6009    0.0000 C   0  0  0  0  0  0  0  0  0  0  0  0
    7.8351   -6.1884    0.0000 C   0  0  0  0  0  0  0  0  0  0  0  0
    1.7069   -4.6489    0.0000 H   0  0  0  0  0  0  0  0  0  0  0  0
    1.4049   -5.7759    0.0000 H   0  0  0  0  0  0  0  0  0  0  0  0
    2.5319   -6.0778    0.0000 H   0  0  0  0  0  0  0  0  0  0  0  0
    3.2041   -4.2136    0.0000 H   0  0  0  0  0  0  0  0  0  0  0  0
    2.4636   -4.2136    0.0000 H   0  0  0  0  0  0  0  0  0  0  0  0
    3.1780   -6.1006    0.0000 H   0  0  0  0  0  0  0  0  0  0  0  0
    3.9186   -6.1006    0.0000 H   0  0  0  0  0  0  0  0  0  0  0  0
    4.6330   -4.2136    0.0000 H   0  0  0  0  0  0  0  0  0  0  0  0
    3.8925   -4.2136    0.0000 H   0  0  0  0  0  0  0  0  0  0  0  0
    4.2628   -5.7759    0.0000 H   0  0  0  0  0  0  0  0  0  0  0  0
    4.3453   -6.7187    0.0000 H   0  0  0  0  0  0  0  0  0  0  0  0
    4.8340   -7.0008    0.0000 H   0  0  0  0  0  0  0  0  0  0  0  0
    5.8527   -7.4100    0.0000 H   0  0  0  0  0  0  0  0  0  0  0  0
    6.5159   -6.6369    0.0000 H   0  0  0  0  0  0  0  0  0  0  0  0
    5.9226   -5.8088    0.0000 H   0  0  0  0  0  0  0  0  0  0  0  0
    6.0620   -4.2136    0.0000 H   0  0  0  0  0  0  0  0  0  0  0  0
    5.3215   -4.2136    0.0000 H   0  0  0  0  0  0  0  0  0  0  0  0
    8.5496   -4.1259    0.0000 H   0  0  0  0  0  0  0  0  0  0  0  0
    9.9785   -4.9509    0.0000 H   0  0  0  0  0  0  0  0  0  0  0  0
    9.9785   -6.6009    0.0000 H   0  0  0  0  0  0  0  0  0  0  0  0
    8.5496   -7.4259    0.0000 H   0  0  0  0  0  0  0  0  0  0  0  0
    7.1207   -6.6009    0.0000 H   0  0  0  0  0  0  0  0  0  0  0  0
  1  2  1  0  0  0  0
  2  3  1  0  0  0  0
  3  4  1  0  0  0  0
  4  5  1  0  0  0  0
  5  6  1  0  0  0  0
  6  7  1  0  0  0  0
  5  8  1  0  0  0  0
  8  9  1  0  0  0  0
  9 10  1  0  0  0  0
 10 11  2  0  0  0  0
 10 12  1  0  0  0  0
 12 13  4  0  0  0  0
 13 14  4  0  0  0  0
 14 15  4  0  0  0  0
 15 16  4  0  0  0  0
 16 17  4  0  0  0  0
 12 17  4  0  0  0  0
  1 18  1  0  0  0  0
  1 19  1  0  0  0  0
  1 20  1  0  0  0  0
  2 21  1  0  0  0  0
  2 22  1  0  0  0  0
  3 23  1  0  0  0  0
  3 24  1  0  0  0  0
  4 25  1  0  0  0  0
  4 26  1  0  0  0  0
  5 27  1  0  0  0  0
  6 28  1  0  0  0  0
  6 29  1  0  0  0  0
  7 30  1  0  0  0  0
  7 31  1  0  0  0  0
  7 32  1  0  0  0  0
  8 33  1  0  0  0  0
  8 34  1  0  0  0  0
 13 35  1  0  0  0  0
 14 36  1  0  0  0  0
 15 37  1  0  0  0  0
 16 38  1  0  0  0  0
 17 39  1  0  0  0  0
M  END
>  <InChIKey>
UADWUILHKRXHMM-UHFFFAOYSA-N

>  <UN GHS>
Non-irritant

>  <CASRN>
5444-75-7

> <Outcome>
0

>  <Index>
770

>  <StandardizerResult>
Dearomatize (ID: Dearomatize)
Clear Stereo (ID: ClearStereo)
Wedge Clean (ID: WedgeClean)
Mesomerize (ID: Mesomerize)
Tautomerize (ID: Tautomerize)
Aromatize (ID: Aromatize)
Add Explicit Hydrogens (ID: AddExplicitH)
Neutralize (ID: Neutralize)
Clean 2D (ID: Clean2D)

> <knn Distance>
2.82842707633972

> <CpId>
770

$$$$
771
  Mrv1532301301811342D          

 21 21  0  0  0  0            999 V2000
    0.7868    2.1089    0.0000 C   0  0  0  0  0  0  0  0  0  0  0  0
    0.7868    1.2839    0.0000 C   0  0  0  0  0  0  0  0  0  0  0  0
    1.5012    0.8714    0.0000 C   0  0  0  0  0  0  0  0  0  0  0  0
    1.5012    0.0464    0.0000 C   0  0  0  0  0  0  0  0  0  0  0  0
    0.7868   -0.3661    0.0000 C   0  0  0  0  0  0  0  0  0  0  0  0
    0.0723    0.0464    0.0000 C   0  0  0  0  0  0  0  0  0  0  0  0
    0.0723    0.8714    0.0000 C   0  0  0  0  0  0  0  0  0  0  0  0
    1.6118    2.1089    0.0000 H   0  0  0  0  0  0  0  0  0  0  0  0
    0.7868    2.9339    0.0000 H   0  0  0  0  0  0  0  0  0  0  0  0
   -0.0382    2.1089    0.0000 H   0  0  0  0  0  0  0  0  0  0  0  0
    0.0723    1.6964    0.0000 H   0  0  0  0  0  0  0  0  0  0  0  0
    2.3249    0.9194    0.0000 H   0  0  0  0  0  0  0  0  0  0  0  0
    1.9546    1.5607    0.0000 H   0  0  0  0  0  0  0  0  0  0  0  0
    1.9546   -0.6429    0.0000 H   0  0  0  0  0  0  0  0  0  0  0  0
    2.3249   -0.0016    0.0000 H   0  0  0  0  0  0  0  0  0  0  0  0
    0.4165   -1.1033    0.0000 H   0  0  0  0  0  0  0  0  0  0  0  0
    1.1570   -1.1033    0.0000 H   0  0  0  0  0  0  0  0  0  0  0  0
   -0.7513   -0.0016    0.0000 H   0  0  0  0  0  0  0  0  0  0  0  0
   -0.3810   -0.6429    0.0000 H   0  0  0  0  0  0  0  0  0  0  0  0
   -0.7029    1.1536    0.0000 H   0  0  0  0  0  0  0  0  0  0  0  0
   -0.7029    0.5892    0.0000 H   0  0  0  0  0  0  0  0  0  0  0  0
  1  2  1  0  0  0  0
  2  3  1  0  0  0  0
  3  4  1  0  0  0  0
  4  5  1  0  0  0  0
  5  6  1  0  0  0  0
  6  7  1  0  0  0  0
  2  7  1  0  0  0  0
  1  8  1  0  0  0  0
  1  9  1  0  0  0  0
  1 10  1  0  0  0  0
  2 11  1  0  0  0  0
  3 12  1  0  0  0  0
  3 13  1  0  0  0  0
  4 14  1  0  0  0  0
  4 15  1  0  0  0  0
  5 16  1  0  0  0  0
  5 17  1  0  0  0  0
  6 18  1  0  0  0  0
  6 19  1  0  0  0  0
  7 20  1  0  0  0  0
  7 21  1  0  0  0  0
M  END
>  <InChIKey>
UAEPNZWRGJTJPN-UHFFFAOYSA-N

>  <UN GHS>
Non-irritant

>  <CASRN>
108-87-2

> <Outcome>
0

>  <Index>
771

>  <StandardizerResult>
Clear Stereo (ID: ClearStereo)
Wedge Clean (ID: WedgeClean)
Mesomerize (ID: Mesomerize)
Tautomerize (ID: Tautomerize)
Add Explicit Hydrogens (ID: AddExplicitH)
Neutralize (ID: Neutralize)
Clean 2D (ID: Clean2D)

> <knn Distance>
2.82842707633972

> <CpId>
771

$$$$
818
  Mrv1532301301811342D          

 50 49  0  0  0  0            999 V2000
    0.0914   -2.9081    0.0000 C   0  0  0  0  0  0  0  0  0  0  0  0
   -0.6230   -2.4956    0.0000 C   0  0  0  0  0  0  0  0  0  0  0  0
   -1.3375   -2.9081    0.0000 C   0  0  0  0  0  0  0  0  0  0  0  0
   -1.3375   -3.7331    0.0000 C   0  0  0  0  0  0  0  0  0  0  0  0
   -1.3375   -4.5581    0.0000 C   0  0  0  0  0  0  0  0  0  0  0  0
   -0.5125   -3.7331    0.0000 C   0  0  0  0  0  0  0  0  0  0  0  0
   -2.1625   -3.7331    0.0000 C   0  0  0  0  0  0  0  0  0  0  0  0
   -0.6230   -1.6706    0.0000 C   0  0  0  0  0  0  0  0  0  0  0  0
    0.0914   -1.2581    0.0000 C   0  0  0  0  0  0  0  0  0  0  0  0
    0.5039   -1.9726    0.0000 C   0  0  0  0  0  0  0  0  0  0  0  0
   -0.3211   -0.5436    0.0000 C   0  0  0  0  0  0  0  0  0  0  0  0
    0.8059   -0.8456    0.0000 C   0  0  0  0  0  0  0  0  0  0  0  0
    0.8059   -0.0206    0.0000 C   0  0  0  0  0  0  0  0  0  0  0  0
    0.8059    0.8044    0.0000 C   0  0  0  0  0  0  0  0  0  0  0  0
    1.6309   -0.0206    0.0000 C   0  0  0  0  0  0  0  0  0  0  0  0
   -0.0191   -0.0206    0.0000 C   0  0  0  0  0  0  0  0  0  0  0  0
   -0.3211   -3.6226    0.0000 H   0  0  0  0  0  0  0  0  0  0  0  0
    0.8059   -3.3206    0.0000 H   0  0  0  0  0  0  0  0  0  0  0  0
    0.5039   -2.1936    0.0000 H   0  0  0  0  0  0  0  0  0  0  0  0
   -0.6230   -3.3206    0.0000 H   0  0  0  0  0  0  0  0  0  0  0  0
   -1.7909   -2.2188    0.0000 H   0  0  0  0  0  0  0  0  0  0  0  0
   -2.1611   -2.8602    0.0000 H   0  0  0  0  0  0  0  0  0  0  0  0
   -2.1625   -4.5581    0.0000 H   0  0  0  0  0  0  0  0  0  0  0  0
   -1.3375   -5.3831    0.0000 H   0  0  0  0  0  0  0  0  0  0  0  0
   -0.5125   -4.5581    0.0000 H   0  0  0  0  0  0  0  0  0  0  0  0
    0.0178   -4.3651    0.0000 H   0  0  0  0  0  0  0  0  0  0  0  0
    0.2999   -3.8764    0.0000 H   0  0  0  0  0  0  0  0  0  0  0  0
   -1.0959   -4.3165    0.0000 H   0  0  0  0  0  0  0  0  0  0  0  0
   -2.7452   -3.1491    0.0000 H   0  0  0  0  0  0  0  0  0  0  0  0
   -2.9875   -3.7325    0.0000 H   0  0  0  0  0  0  0  0  0  0  0  0
   -2.7461   -4.3163    0.0000 H   0  0  0  0  0  0  0  0  0  0  0  0
   -1.0764   -0.9813    0.0000 H   0  0  0  0  0  0  0  0  0  0  0  0
   -1.4467   -1.6227    0.0000 H   0  0  0  0  0  0  0  0  0  0  0  0
    1.3202   -2.0922    0.0000 H   0  0  0  0  0  0  0  0  0  0  0  0
    1.1511   -1.4609    0.0000 H   0  0  0  0  0  0  0  0  0  0  0  0
   -0.2930   -2.1861    0.0000 H   0  0  0  0  0  0  0  0  0  0  0  0
   -0.6037    0.2314    0.0000 H   0  0  0  0  0  0  0  0  0  0  0  0
   -1.0966   -0.2623    0.0000 H   0  0  0  0  0  0  0  0  0  0  0  0
    0.5039   -0.5436    0.0000 H   0  0  0  0  0  0  0  0  0  0  0  0
    1.6172   -0.9956    0.0000 H   0  0  0  0  0  0  0  0  0  0  0  0
    1.4401   -0.3179    0.0000 H   0  0  0  0  0  0  0  0  0  0  0  0
    1.6309    0.8044    0.0000 H   0  0  0  0  0  0  0  0  0  0  0  0
    0.8059    1.6294    0.0000 H   0  0  0  0  0  0  0  0  0  0  0  0
   -0.0191    0.8044    0.0000 H   0  0  0  0  0  0  0  0  0  0  0  0
    1.9195   -0.7935    0.0000 H   0  0  0  0  0  0  0  0  0  0  0  0
    2.4225   -0.2528    0.0000 H   0  0  0  0  0  0  0  0  0  0  0  0
    2.2913    0.4739    0.0000 H   0  0  0  0  0  0  0  0  0  0  0  0
    0.6954    0.3919    0.0000 H   0  0  0  0  0  0  0  0  0  0  0  0
    0.3934    0.6939    0.0000 H   0  0  0  0  0  0  0  0  0  0  0  0
   -0.4725    0.6686    0.0000 H   0  0  0  0  0  0  0  0  0  0  0  0
  1  2  1  0  0  0  0
  2  3  1  0  0  0  0
  3  4  1  0  0  0  0
  4  5  1  0  0  0  0
  4  6  1  0  0  0  0
  4  7  1  0  0  0  0
  2  8  1  0  0  0  0
  8  9  1  0  0  0  0
  9 10  1  0  0  0  0
  9 11  1  0  0  0  0
  9 12  1  0  0  0  0
 12 13  1  0  0  0  0
 13 14  1  0  0  0  0
 13 15  1  0  0  0  0
 13 16  1  0  0  0  0
  1 17  1  0  0  0  0
  1 18  1  0  0  0  0
  1 19  1  0  0  0  0
  2 20  1  0  0  0  0
  3 21  1  0  0  0  0
  3 22  1  0  0  0  0
  5 23  1  0  0  0  0
  5 24  1  0  0  0  0
  5 25  1  0  0  0  0
  6 26  1  0  0  0  0
  6 27  1  0  0  0  0
  6 28  1  0  0  0  0
  7 29  1  0  0  0  0
  7 30  1  0  0  0  0
  7 31  1  0  0  0  0
  8 32  1  0  0  0  0
  8 33  1  0  0  0  0
 10 34  1  0  0  0  0
 10 35  1  0  0  0  0
 10 36  1  0  0  0  0
 11 37  1  0  0  0  0
 11 38  1  0  0  0  0
 11 39  1  0  0  0  0
 12 40  1  0  0  0  0
 12 41  1  0  0  0  0
 14 42  1  0  0  0  0
 14 43  1  0  0  0  0
 14 44  1  0  0  0  0
 15 45  1  0  0  0  0
 15 46  1  0  0  0  0
 15 47  1  0  0  0  0
 16 48  1  0  0  0  0
 16 49  1  0  0  0  0
 16 50  1  0  0  0  0
M  END
>  <InChIKey>
VCLJODPNBNEBKW-UHFFFAOYSA-N

>  <UN GHS>
Non-irritant

>  <CASRN>
93685-80-4

> <Outcome>
0

>  <Index>
818

>  <StandardizerResult>
Clear Stereo (ID: ClearStereo)
Wedge Clean (ID: WedgeClean)
Mesomerize (ID: Mesomerize)
Tautomerize (ID: Tautomerize)
Add Explicit Hydrogens (ID: AddExplicitH)
Neutralize (ID: Neutralize)
Clean 2D (ID: Clean2D)

> <knn Distance>
2.82842707633972

> <CpId>
818

$$$$
850
  Mrv1532301301811342D          

 61 60  0  0  0  0            999 V2000
    7.2333    5.0012    0.0000 C   0  0  0  0  0  0  0  0  0  0  0  0
    7.9478    5.4137    0.0000 C   0  0  0  0  0  0  0  0  0  0  0  0
    8.6623    5.0012    0.0000 O   0  0  0  0  0  0  0  0  0  0  0  0
    9.3767    5.4137    0.0000 C   0  0  0  0  0  0  0  0  0  0  0  0
   10.0912    5.0012    0.0000 C   0  0  0  0  0  0  0  0  0  0  0  0
   10.8057    5.4137    0.0000 C   0  0  0  0  0  0  0  0  0  0  0  0
   11.5201    5.0012    0.0000 C   0  0  0  0  0  0  0  0  0  0  0  0
   12.2346    5.4137    0.0000 C   0  0  0  0  0  0  0  0  0  0  0  0
   12.9491    5.0012    0.0000 C   0  0  0  0  0  0  0  0  0  0  0  0
   13.6635    5.4137    0.0000 C   0  0  0  0  0  0  0  0  0  0  0  0
   14.3780    5.0012    0.0000 C   0  0  0  0  0  0  0  0  0  0  0  0
   15.0925    5.4137    0.0000 C   0  0  0  0  0  0  0  0  0  0  0  0
   15.8070    5.0012    0.0000 C   0  0  0  0  0  0  0  0  0  0  0  0
   16.5214    5.4137    0.0000 C   0  0  0  0  0  0  0  0  0  0  0  0
   17.2359    5.0012    0.0000 C   0  0  0  0  0  0  0  0  0  0  0  0
   17.9504    5.4137    0.0000 C   0  0  0  0  0  0  0  0  0  0  0  0
   18.6648    5.0012    0.0000 C   0  0  0  0  0  0  0  0  0  0  0  0
   19.3793    5.4137    0.0000 C   0  0  0  0  0  0  0  0  0  0  0  0
   20.0938    5.0012    0.0000 C   0  0  0  0  0  0  0  0  0  0  0  0
   20.8083    5.4137    0.0000 C   0  0  0  0  0  0  0  0  0  0  0  0
   20.8083    6.2387    0.0000 C   0  0  0  0  0  0  0  0  0  0  0  0
    6.8208    5.7156    0.0000 H   0  0  0  0  0  0  0  0  0  0  0  0
    6.5188    4.5887    0.0000 H   0  0  0  0  0  0  0  0  0  0  0  0
    7.6458    4.2867    0.0000 H   0  0  0  0  0  0  0  0  0  0  0  0
    8.3180    6.1509    0.0000 H   0  0  0  0  0  0  0  0  0  0  0  0
    7.5775    6.1509    0.0000 H   0  0  0  0  0  0  0  0  0  0  0  0
    9.7470    6.1509    0.0000 H   0  0  0  0  0  0  0  0  0  0  0  0
    9.0065    6.1509    0.0000 H   0  0  0  0  0  0  0  0  0  0  0  0
    9.7209    4.2639    0.0000 H   0  0  0  0  0  0  0  0  0  0  0  0
   10.4615    4.2639    0.0000 H   0  0  0  0  0  0  0  0  0  0  0  0
   11.1759    6.1509    0.0000 H   0  0  0  0  0  0  0  0  0  0  0  0
   10.4354    6.1509    0.0000 H   0  0  0  0  0  0  0  0  0  0  0  0
   11.1499    4.2639    0.0000 H   0  0  0  0  0  0  0  0  0  0  0  0
   11.8904    4.2639    0.0000 H   0  0  0  0  0  0  0  0  0  0  0  0
   12.6049    6.1509    0.0000 H   0  0  0  0  0  0  0  0  0  0  0  0
   11.8643    6.1509    0.0000 H   0  0  0  0  0  0  0  0  0  0  0  0
   12.5788    4.2639    0.0000 H   0  0  0  0  0  0  0  0  0  0  0  0
   13.3193    4.2639    0.0000 H   0  0  0  0  0  0  0  0  0  0  0  0
   14.0338    6.1509    0.0000 H   0  0  0  0  0  0  0  0  0  0  0  0
   13.2933    6.1509    0.0000 H   0  0  0  0  0  0  0  0  0  0  0  0
   14.0078    4.2639    0.0000 H   0  0  0  0  0  0  0  0  0  0  0  0
   14.7483    4.2639    0.0000 H   0  0  0  0  0  0  0  0  0  0  0  0
   15.4628    6.1509    0.0000 H   0  0  0  0  0  0  0  0  0  0  0  0
   14.7222    6.1509    0.0000 H   0  0  0  0  0  0  0  0  0  0  0  0
   15.4367    4.2639    0.0000 H   0  0  0  0  0  0  0  0  0  0  0  0
   16.1772    4.2639    0.0000 H   0  0  0  0  0  0  0  0  0  0  0  0
   16.8917    6.1509    0.0000 H   0  0  0  0  0  0  0  0  0  0  0  0
   16.1512    6.1509    0.0000 H   0  0  0  0  0  0  0  0  0  0  0  0
   16.8656    4.2639    0.0000 H   0  0  0  0  0  0  0  0  0  0  0  0
   17.6062    4.2639    0.0000 H   0  0  0  0  0  0  0  0  0  0  0  0
   18.3206    6.1509    0.0000 H   0  0  0  0  0  0  0  0  0  0  0  0
   17.5801    6.1509    0.0000 H   0  0  0  0  0  0  0  0  0  0  0  0
   18.2946    4.2639    0.0000 H   0  0  0  0  0  0  0  0  0  0  0  0
   19.0351    4.2639    0.0000 H   0  0  0  0  0  0  0  0  0  0  0  0
   19.3793    6.2387    0.0000 H   0  0  0  0  0  0  0  0  0  0  0  0
   20.0938    4.1762    0.0000 H   0  0  0  0  0  0  0  0  0  0  0  0
   21.2616    4.7244    0.0000 H   0  0  0  0  0  0  0  0  0  0  0  0
   21.6319    5.3657    0.0000 H   0  0  0  0  0  0  0  0  0  0  0  0
   21.6333    6.2387    0.0000 H   0  0  0  0  0  0  0  0  0  0  0  0
   20.8083    7.0637    0.0000 H   0  0  0  0  0  0  0  0  0  0  0  0
   19.9833    6.2387    0.0000 H   0  0  0  0  0  0  0  0  0  0  0  0
  1  2  1  0  0  0  0
  2  3  1  0  0  0  0
  3  4  1  0  0  0  0
  4  5  1  0  0  0  0
  5  6  1  0  0  0  0
  6  7  1  0  0  0  0
  7  8  1  0  0  0  0
  8  9  1  0  0  0  0
  9 10  1  0  0  0  0
 10 11  1  0  0  0  0
 11 12  1  0  0  0  0
 12 13  1  0  0  0  0
 13 14  1  0  0  0  0
 14 15  1  0  0  0  0
 15 16  1  0  0  0  0
 16 17  1  0  0  0  0
 18 17  1  4  0  0  0
 18 19  2  0  0  0  0
 19 20  1  0  0  0  0
 20 21  1  0  0  0  0
  1 22  1  0  0  0  0
  1 23  1  0  0  0  0
  1 24  1  0  0  0  0
  2 25  1  0  0  0  0
  2 26  1  0  0  0  0
  4 27  1  0  0  0  0
  4 28  1  0  0  0  0
  5 29  1  0  0  0  0
  5 30  1  0  0  0  0
  6 31  1  0  0  0  0
  6 32  1  0  0  0  0
  7 33  1  0  0  0  0
  7 34  1  0  0  0  0
  8 35  1  0  0  0  0
  8 36  1  0  0  0  0
  9 37  1  0  0  0  0
  9 38  1  0  0  0  0
 10 39  1  0  0  0  0
 10 40  1  0  0  0  0
 11 41  1  0  0  0  0
 11 42  1  0  0  0  0
 12 43  1  0  0  0  0
 12 44  1  0  0  0  0
 13 45  1  0  0  0  0
 13 46  1  0  0  0  0
 14 47  1  0  0  0  0
 14 48  1  0  0  0  0
 15 49  1  0  0  0  0
 15 50  1  0  0  0  0
 16 51  1  0  0  0  0
 16 52  1  0  0  0  0
 17 53  1  0  0  0  0
 17 54  1  0  0  0  0
 18 55  1  0  0  0  0
 19 56  1  0  0  0  0
 20 57  1  0  0  0  0
 20 58  1  0  0  0  0
 21 59  1  0  0  0  0
 21 60  1  0  0  0  0
 21 61  1  0  0  0  0
M  END
>  <InChIKey>
WBCCOWHDSAVXAO-AATRIKPKSA-N

>  <UN GHS>
Non-irritant

>  <CASRN>
68920-66-1

> <Outcome>
0

>  <Index>
850

>  <StandardizerResult>
Clear Stereo (ID: ClearStereo)
Wedge Clean (ID: WedgeClean)
Mesomerize (ID: Mesomerize)
Tautomerize (ID: Tautomerize)
Add Explicit Hydrogens (ID: AddExplicitH)
Neutralize (ID: Neutralize)
Clean 2D (ID: Clean2D)

> <knn Distance>
2.82842707633972

> <CpId>
850

$$$$
901
  Mrv1532301301811342D          

 56 55  0  0  0  0            999 V2000
    7.1360    5.0070    0.0000 C   0  0  0  0  0  0  0  0  0  0  0  0
    7.8505    5.4195    0.0000 C   0  0  0  0  0  0  0  0  0  0  0  0
    7.8505    6.2445    0.0000 C   0  0  0  0  0  0  0  0  0  0  0  0
    8.5649    5.0070    0.0000 C   0  0  0  0  0  0  0  0  0  0  0  0
    9.2794    5.4195    0.0000 C   0  0  0  0  0  0  0  0  0  0  0  0
    9.9939    5.0070    0.0000 C   0  0  0  0  0  0  0  0  0  0  0  0
   10.7083    5.4195    0.0000 C   0  0  0  0  0  0  0  0  0  0  0  0
   11.4228    5.0070    0.0000 C   0  0  0  0  0  0  0  0  0  0  0  0
   12.1373    5.4195    0.0000 C   0  0  0  0  0  0  0  0  0  0  0  0
   12.8518    5.0070    0.0000 C   0  0  0  0  0  0  0  0  0  0  0  0
   13.5662    5.4195    0.0000 C   0  0  0  0  0  0  0  0  0  0  0  0
   14.2807    5.0070    0.0000 C   0  0  0  0  0  0  0  0  0  0  0  0
   14.9952    5.4195    0.0000 C   0  0  0  0  0  0  0  0  0  0  0  0
   15.7096    5.0070    0.0000 C   0  0  0  0  0  0  0  0  0  0  0  0
   16.4241    5.4195    0.0000 C   0  0  0  0  0  0  0  0  0  0  0  0
   17.1386    5.0070    0.0000 C   0  0  0  0  0  0  0  0  0  0  0  0
   17.8531    5.4195    0.0000 C   0  0  0  0  0  0  0  0  0  0  0  0
   18.5675    5.0070    0.0000 C   0  0  0  0  0  0  0  0  0  0  0  0
   19.2820    5.4195    0.0000 O   0  0  0  0  0  0  0  0  0  0  0  0
   18.5675    4.1820    0.0000 O   0  0  0  0  0  0  0  0  0  0  0  0
    6.7235    5.7215    0.0000 H   0  0  0  0  0  0  0  0  0  0  0  0
    6.4215    4.5945    0.0000 H   0  0  0  0  0  0  0  0  0  0  0  0
    7.5485    4.2925    0.0000 H   0  0  0  0  0  0  0  0  0  0  0  0
    7.1360    5.8320    0.0000 H   0  0  0  0  0  0  0  0  0  0  0  0
    8.6473    6.0310    0.0000 H   0  0  0  0  0  0  0  0  0  0  0  0
    8.2630    6.9590    0.0000 H   0  0  0  0  0  0  0  0  0  0  0  0
    7.2671    6.8278    0.0000 H   0  0  0  0  0  0  0  0  0  0  0  0
    8.1947    4.2697    0.0000 H   0  0  0  0  0  0  0  0  0  0  0  0
    8.9352    4.2697    0.0000 H   0  0  0  0  0  0  0  0  0  0  0  0
    9.7762    6.0781    0.0000 H   0  0  0  0  0  0  0  0  0  0  0  0
    9.2794    4.5945    0.0000 H   0  0  0  0  0  0  0  0  0  0  0  0
   10.1371    4.1945    0.0000 H   0  0  0  0  0  0  0  0  0  0  0  0
   10.6259    4.4767    0.0000 H   0  0  0  0  0  0  0  0  0  0  0  0
   11.0786    6.1567    0.0000 H   0  0  0  0  0  0  0  0  0  0  0  0
   10.3381    6.1567    0.0000 H   0  0  0  0  0  0  0  0  0  0  0  0
   11.4577    4.1827    0.0000 H   0  0  0  0  0  0  0  0  0  0  0  0
   12.1459    4.6097    0.0000 H   0  0  0  0  0  0  0  0  0  0  0  0
   12.5075    6.1567    0.0000 H   0  0  0  0  0  0  0  0  0  0  0  0
   11.7670    6.1567    0.0000 H   0  0  0  0  0  0  0  0  0  0  0  0
   12.9896    4.1936    0.0000 H   0  0  0  0  0  0  0  0  0  0  0  0
   13.4815    4.4740    0.0000 H   0  0  0  0  0  0  0  0  0  0  0  0
   13.9365    6.1567    0.0000 H   0  0  0  0  0  0  0  0  0  0  0  0
   13.1960    6.1567    0.0000 H   0  0  0  0  0  0  0  0  0  0  0  0
   14.3162    4.1827    0.0000 H   0  0  0  0  0  0  0  0  0  0  0  0
   15.0039    4.6100    0.0000 H   0  0  0  0  0  0  0  0  0  0  0  0
   15.3654    6.1567    0.0000 H   0  0  0  0  0  0  0  0  0  0  0  0
   14.6249    6.1567    0.0000 H   0  0  0  0  0  0  0  0  0  0  0  0
   15.8473    4.1936    0.0000 H   0  0  0  0  0  0  0  0  0  0  0  0
   16.3393    4.4739    0.0000 H   0  0  0  0  0  0  0  0  0  0  0  0
   16.7944    6.1567    0.0000 H   0  0  0  0  0  0  0  0  0  0  0  0
   16.0538    6.1567    0.0000 H   0  0  0  0  0  0  0  0  0  0  0  0
   17.1741    4.1827    0.0000 H   0  0  0  0  0  0  0  0  0  0  0  0
   17.8618    4.6100    0.0000 H   0  0  0  0  0  0  0  0  0  0  0  0
   18.2233    6.1567    0.0000 H   0  0  0  0  0  0  0  0  0  0  0  0
   17.4828    6.1567    0.0000 H   0  0  0  0  0  0  0  0  0  0  0  0
   19.9965    5.0070    0.0000 H   0  0  0  0  0  0  0  0  0  0  0  0
  1  2  1  0  0  0  0
  2  3  1  0  0  0  0
  2  4  1  0  0  0  0
  4  5  1  0  0  0  0
  5  6  1  0  0  0  0
  6  7  1  0  0  0  0
  7  8  1  0  0  0  0
  8  9  1  0  0  0  0
  9 10  1  0  0  0  0
 10 11  1  0  0  0  0
 11 12  1  0  0  0  0
 12 13  1  0  0  0  0
 13 14  1  0  0  0  0
 14 15  1  0  0  0  0
 15 16  1  0  0  0  0
 16 17  1  0  0  0  0
 17 18  1  0  0  0  0
 18 19  1  0  0  0  0
 18 20  2  0  0  0  0
  1 21  1  0  0  0  0
  1 22  1  0  0  0  0
  1 23  1  0  0  0  0
  2 24  1  0  0  0  0
  3 25  1  0  0  0  0
  3 26  1  0  0  0  0
  3 27  1  0  0  0  0
  4 28  1  0  0  0  0
  4 29  1  0  0  0  0
  5 30  1  0  0  0  0
  5 31  1  0  0  0  0
  6 32  1  0  0  0  0
  6 33  1  0  0  0  0
  7 34  1  0  0  0  0
  7 35  1  0  0  0  0
  8 36  1  0  0  0  0
  8 37  1  0  0  0  0
  9 38  1  0  0  0  0
  9 39  1  0  0  0  0
 10 40  1  0  0  0  0
 10 41  1  0  0  0  0
 11 42  1  0  0  0  0
 11 43  1  0  0  0  0
 12 44  1  0  0  0  0
 12 45  1  0  0  0  0
 13 46  1  0  0  0  0
 13 47  1  0  0  0  0
 14 48  1  0  0  0  0
 14 49  1  0  0  0  0
 15 50  1  0  0  0  0
 15 51  1  0  0  0  0
 16 52  1  0  0  0  0
 16 53  1  0  0  0  0
 17 54  1  0  0  0  0
 17 55  1  0  0  0  0
 19 56  1  0  0  0  0
M  END
>  <InChIKey>
XDOFQFKRPWOURC-UHFFFAOYSA-N

>  <UN GHS>
Non-irritant

>  <CASRN>
30399-84-9

> <Outcome>
0

>  <Index>
901

>  <StandardizerResult>
Clear Stereo (ID: ClearStereo)
Wedge Clean (ID: WedgeClean)
Mesomerize (ID: Mesomerize)
Tautomerize (ID: Tautomerize)
Add Explicit Hydrogens (ID: AddExplicitH)
Neutralize (ID: Neutralize)
Clean 2D (ID: Clean2D)

> <knn Distance>
2.82842707633972

> <CpId>
901

$$$$
910
  Mrv1532301301811342D          

 62 61  0  0  0  0            999 V2000
    9.7086    6.4302    0.0000 C   0  0  0  0  0  0  0  0  0  0  0  0
   10.4230    6.8427    0.0000 C   0  0  0  0  0  0  0  0  0  0  0  0
   11.1375    6.4302    0.0000 C   0  0  0  0  0  0  0  0  0  0  0  0
   11.8520    6.8427    0.0000 C   0  0  0  0  0  0  0  0  0  0  0  0
   12.5664    6.4302    0.0000 C   0  0  0  0  0  0  0  0  0  0  0  0
   13.2809    6.8427    0.0000 C   0  0  0  0  0  0  0  0  0  0  0  0
   13.9954    6.4302    0.0000 C   0  0  0  0  0  0  0  0  0  0  0  0
   14.7099    6.8427    0.0000 C   0  0  0  0  0  0  0  0  0  0  0  0
   15.4243    6.4302    0.0000 C   0  0  0  0  0  0  0  0  0  0  0  0
   16.1388    6.8427    0.0000 C   0  0  0  0  0  0  0  0  0  0  0  0
   16.1388    7.6677    0.0000 O   0  0  0  0  0  0  0  0  0  0  0  0
   16.8533    6.4302    0.0000 O   0  0  0  0  0  0  0  0  0  0  0  0
   17.5677    6.8427    0.0000 O   0  0  0  0  0  0  0  0  0  0  0  0
   18.2822    6.4302    0.0000 C   0  0  0  0  0  0  0  0  0  0  0  0
   18.2822    5.6052    0.0000 O   0  0  0  0  0  0  0  0  0  0  0  0
   18.9967    6.8427    0.0000 C   0  0  0  0  0  0  0  0  0  0  0  0
   19.7112    6.4302    0.0000 C   0  0  0  0  0  0  0  0  0  0  0  0
   20.4256    6.8427    0.0000 C   0  0  0  0  0  0  0  0  0  0  0  0
   21.1401    6.4302    0.0000 C   0  0  0  0  0  0  0  0  0  0  0  0
   21.8546    6.8427    0.0000 C   0  0  0  0  0  0  0  0  0  0  0  0
   22.5690    6.4302    0.0000 C   0  0  0  0  0  0  0  0  0  0  0  0
   23.2835    6.8427    0.0000 C   0  0  0  0  0  0  0  0  0  0  0  0
   23.9980    6.4302    0.0000 C   0  0  0  0  0  0  0  0  0  0  0  0
   24.7124    6.8427    0.0000 C   0  0  0  0  0  0  0  0  0  0  0  0
    9.2961    7.1447    0.0000 H   0  0  0  0  0  0  0  0  0  0  0  0
    8.9941    6.0177    0.0000 H   0  0  0  0  0  0  0  0  0  0  0  0
   10.1211    5.7157    0.0000 H   0  0  0  0  0  0  0  0  0  0  0  0
   10.7933    7.5799    0.0000 H   0  0  0  0  0  0  0  0  0  0  0  0
   10.0528    7.5799    0.0000 H   0  0  0  0  0  0  0  0  0  0  0  0
   10.7672    5.6930    0.0000 H   0  0  0  0  0  0  0  0  0  0  0  0
   11.5078    5.6930    0.0000 H   0  0  0  0  0  0  0  0  0  0  0  0
   12.2222    7.5799    0.0000 H   0  0  0  0  0  0  0  0  0  0  0  0
   11.4817    7.5799    0.0000 H   0  0  0  0  0  0  0  0  0  0  0  0
   12.1962    5.6930    0.0000 H   0  0  0  0  0  0  0  0  0  0  0  0
   12.9367    5.6930    0.0000 H   0  0  0  0  0  0  0  0  0  0  0  0
   13.6512    7.5799    0.0000 H   0  0  0  0  0  0  0  0  0  0  0  0
   12.9107    7.5799    0.0000 H   0  0  0  0  0  0  0  0  0  0  0  0
   13.6251    5.6930    0.0000 H   0  0  0  0  0  0  0  0  0  0  0  0
   14.3656    5.6930    0.0000 H   0  0  0  0  0  0  0  0  0  0  0  0
   15.0801    7.5799    0.0000 H   0  0  0  0  0  0  0  0  0  0  0  0
   14.3396    7.5799    0.0000 H   0  0  0  0  0  0  0  0  0  0  0  0
   15.0541    5.6930    0.0000 H   0  0  0  0  0  0  0  0  0  0  0  0
   15.7946    5.6930    0.0000 H   0  0  0  0  0  0  0  0  0  0  0  0
   19.3669    7.5799    0.0000 H   0  0  0  0  0  0  0  0  0  0  0  0
   18.6264    7.5799    0.0000 H   0  0  0  0  0  0  0  0  0  0  0  0
   19.3409    5.6930    0.0000 H   0  0  0  0  0  0  0  0  0  0  0  0
   20.0814    5.6930    0.0000 H   0  0  0  0  0  0  0  0  0  0  0  0
   20.7959    7.5799    0.0000 H   0  0  0  0  0  0  0  0  0  0  0  0
   20.0554    7.5799    0.0000 H   0  0  0  0  0  0  0  0  0  0  0  0
   20.7698    5.6930    0.0000 H   0  0  0  0  0  0  0  0  0  0  0  0
   21.5104    5.6930    0.0000 H   0  0  0  0  0  0  0  0  0  0  0  0
   22.2248    7.5799    0.0000 H   0  0  0  0  0  0  0  0  0  0  0  0
   21.4843    7.5799    0.0000 H   0  0  0  0  0  0  0  0  0  0  0  0
   22.1988    5.6930    0.0000 H   0  0  0  0  0  0  0  0  0  0  0  0
   22.9393    5.6930    0.0000 H   0  0  0  0  0  0  0  0  0  0  0  0
   23.6538    7.5799    0.0000 H   0  0  0  0  0  0  0  0  0  0  0  0
   22.9132    7.5799    0.0000 H   0  0  0  0  0  0  0  0  0  0  0  0
   23.6277    5.6930    0.0000 H   0  0  0  0  0  0  0  0  0  0  0  0
   24.3682    5.6930    0.0000 H   0  0  0  0  0  0  0  0  0  0  0  0
   25.1249    6.1282    0.0000 H   0  0  0  0  0  0  0  0  0  0  0  0
   25.4269    7.2552    0.0000 H   0  0  0  0  0  0  0  0  0  0  0  0
   24.2999    7.5572    0.0000 H   0  0  0  0  0  0  0  0  0  0  0  0
  1  2  1  0  0  0  0
  2  3  1  0  0  0  0
  3  4  1  0  0  0  0
  4  5  1  0  0  0  0
  5  6  1  0  0  0  0
  6  7  1  0  0  0  0
  7  8  1  0  0  0  0
  8  9  1  0  0  0  0
  9 10  1  0  0  0  0
 10 11  2  0  0  0  0
 10 12  1  0  0  0  0
 12 13  1  0  0  0  0
 13 14  1  0  0  0  0
 14 15  2  0  0  0  0
 14 16  1  0  0  0  0
 16 17  1  0  0  0  0
 17 18  1  0  0  0  0
 18 19  1  0  0  0  0
 19 20  1  0  0  0  0
 20 21  1  0  0  0  0
 21 22  1  0  0  0  0
 22 23  1  0  0  0  0
 23 24  1  0  0  0  0
  1 25  1  0  0  0  0
  1 26  1  0  0  0  0
  1 27  1  0  0  0  0
  2 28  1  0  0  0  0
  2 29  1  0  0  0  0
  3 30  1  0  0  0  0
  3 31  1  0  0  0  0
  4 32  1  0  0  0  0
  4 33  1  0  0  0  0
  5 34  1  0  0  0  0
  5 35  1  0  0  0  0
  6 36  1  0  0  0  0
  6 37  1  0  0  0  0
  7 38  1  0  0  0  0
  7 39  1  0  0  0  0
  8 40  1  0  0  0  0
  8 41  1  0  0  0  0
  9 42  1  0  0  0  0
  9 43  1  0  0  0  0
 16 44  1  0  0  0  0
 16 45  1  0  0  0  0
 17 46  1  0  0  0  0
 17 47  1  0  0  0  0
 18 48  1  0  0  0  0
 18 49  1  0  0  0  0
 19 50  1  0  0  0  0
 19 51  1  0  0  0  0
 20 52  1  0  0  0  0
 20 53  1  0  0  0  0
 21 54  1  0  0  0  0
 21 55  1  0  0  0  0
 22 56  1  0  0  0  0
 22 57  1  0  0  0  0
 23 58  1  0  0  0  0
 23 59  1  0  0  0  0
 24 60  1  0  0  0  0
 24 61  1  0  0  0  0
 24 62  1  0  0  0  0
M  END
>  <InChIKey>
XJOBOFWTZOKMOH-UHFFFAOYSA-N

>  <UN GHS>
Non-irritant

>  <CASRN>
762-12-9

> <Outcome>
0

>  <Index>
910

>  <StandardizerResult>
Clear Stereo (ID: ClearStereo)
Wedge Clean (ID: WedgeClean)
Mesomerize (ID: Mesomerize)
Tautomerize (ID: Tautomerize)
Add Explicit Hydrogens (ID: AddExplicitH)
Neutralize (ID: Neutralize)
Clean 2D (ID: Clean2D)

> <knn Distance>
2.82842707633972

> <CpId>
910

$$$$
911
  Mrv1532301301811342D          

 10  9  0  0  0  0            999 V2000
    2.0625   -0.7145    0.0000 C   0  0  0  0  0  0  0  0  0  0  0  0
    1.2375   -0.7145    0.0000 O   0  0  0  0  0  0  0  0  0  0  0  0
    0.8250   -0.0000    0.0000 C   0  0  0  0  0  0  0  0  0  0  0  0
    0.0000   -0.0000    0.0000 C   0  0  0  0  0  0  0  0  0  0  0  0
    2.0625   -1.5395    0.0000 H   0  0  0  0  0  0  0  0  0  0  0  0
    2.8875   -0.7145    0.0000 H   0  0  0  0  0  0  0  0  0  0  0  0
    2.0625    0.1105    0.0000 H   0  0  0  0  0  0  0  0  0  0  0  0
    1.2375    0.7145    0.0000 H   0  0  0  0  0  0  0  0  0  0  0  0
   -0.4125    0.7145    0.0000 H   0  0  0  0  0  0  0  0  0  0  0  0
   -0.4125   -0.7145    0.0000 H   0  0  0  0  0  0  0  0  0  0  0  0
  1  2  1  0  0  0  0
  2  3  1  0  0  0  0
  3  4  2  0  0  0  0
  1  5  1  0  0  0  0
  1  6  1  0  0  0  0
  1  7  1  0  0  0  0
  3  8  1  0  0  0  0
  4  9  1  0  0  0  0
  4 10  1  0  0  0  0
M  END
>  <InChIKey>
XJRBAMWJDBPFIM-UHFFFAOYSA-N

>  <UN GHS>
Non-irritant

>  <CASRN>
107-25-5

> <Outcome>
0

>  <Index>
911

>  <StandardizerResult>
Clear Stereo (ID: ClearStereo)
Wedge Clean (ID: WedgeClean)
Mesomerize (ID: Mesomerize)
Tautomerize (ID: Tautomerize)
Add Explicit Hydrogens (ID: AddExplicitH)
Neutralize (ID: Neutralize)
Clean 2D (ID: Clean2D)

> <knn Distance>
2.82842707633972

> <CpId>
911

$$$$
916
  Mrv1532301301811342D          

 24 24  0  0  0  0            999 V2000
   -0.7543    2.8990    0.0000 C   0  0  0  0  0  0  0  0  0  0  0  0
   -0.0399    2.4865    0.0000 C   0  0  0  0  0  0  0  0  0  0  0  0
   -0.4524    1.7720    0.0000 C   0  0  0  0  0  0  0  0  0  0  0  0
    0.3726    3.2010    0.0000 O   0  0  0  0  0  0  0  0  0  0  0  0
    0.6746    2.0740    0.0000 C   0  0  0  0  0  0  0  0  0  0  0  0
    1.3891    2.4865    0.0000 O   0  0  0  0  0  0  0  0  0  0  0  0
    0.6746    1.2490    0.0000 C   0  0  0  0  0  0  0  0  0  0  0  0
    1.3891    0.8365    0.0000 C   0  0  0  0  0  0  0  0  0  0  0  0
    1.3891    0.0115    0.0000 C   0  0  0  0  0  0  0  0  0  0  0  0
    0.6746   -0.4010    0.0000 C   0  0  0  0  0  0  0  0  0  0  0  0
   -0.0399    0.0115    0.0000 C   0  0  0  0  0  0  0  0  0  0  0  0
   -0.0399    0.8365    0.0000 C   0  0  0  0  0  0  0  0  0  0  0  0
   -0.3418    3.6135    0.0000 H   0  0  0  0  0  0  0  0  0  0  0  0
   -1.4688    3.3115    0.0000 H   0  0  0  0  0  0  0  0  0  0  0  0
   -1.1668    2.1845    0.0000 H   0  0  0  0  0  0  0  0  0  0  0  0
   -1.1069    1.2698    0.0000 H   0  0  0  0  0  0  0  0  0  0  0  0
   -0.2388    0.9751    0.0000 H   0  0  0  0  0  0  0  0  0  0  0  0
    0.3656    1.6643    0.0000 H   0  0  0  0  0  0  0  0  0  0  0  0
    1.1695    3.4145    0.0000 H   0  0  0  0  0  0  0  0  0  0  0  0
    2.1036    1.2490    0.0000 H   0  0  0  0  0  0  0  0  0  0  0  0
    2.1036   -0.4010    0.0000 H   0  0  0  0  0  0  0  0  0  0  0  0
    0.6746   -1.2260    0.0000 H   0  0  0  0  0  0  0  0  0  0  0  0
   -0.7543   -0.4010    0.0000 H   0  0  0  0  0  0  0  0  0  0  0  0
   -0.7712    0.4547    0.0000 H   0  0  0  0  0  0  0  0  0  0  0  0
  1  2  1  0  0  0  0
  2  3  1  0  0  0  0
  2  4  1  0  0  0  0
  2  5  1  0  0  0  0
  5  6  2  0  0  0  0
  5  7  1  0  0  0  0
  7  8  4  0  0  0  0
  8  9  4  0  0  0  0
  9 10  4  0  0  0  0
 10 11  4  0  0  0  0
 11 12  4  0  0  0  0
  7 12  4  0  0  0  0
  1 13  1  0  0  0  0
  1 14  1  0  0  0  0
  1 15  1  0  0  0  0
  3 16  1  0  0  0  0
  3 17  1  0  0  0  0
  3 18  1  0  0  0  0
  4 19  1  0  0  0  0
  8 20  1  0  0  0  0
  9 21  1  0  0  0  0
 10 22  1  0  0  0  0
 11 23  1  0  0  0  0
 12 24  1  0  0  0  0
M  END
>  <InChIKey>
XMLYCEVDHLAQEL-UHFFFAOYSA-N

>  <UN GHS>
Non-irritant

>  <CASRN>
7473-98-5

> <Outcome>
0

>  <Index>
916

>  <StandardizerResult>
Dearomatize (ID: Dearomatize)
Clear Stereo (ID: ClearStereo)
Wedge Clean (ID: WedgeClean)
Mesomerize (ID: Mesomerize)
Tautomerize (ID: Tautomerize)
Aromatize (ID: Aromatize)
Add Explicit Hydrogens (ID: AddExplicitH)
Neutralize (ID: Neutralize)
Clean 2D (ID: Clean2D)

> <knn Distance>
2.82842707633972

> <CpId>
916

$$$$
924
  Mrv1532301301811342D          

 34 33  0  0  0  0            999 V2000
    3.5211    2.8579    0.0000 C   0  0  0  0  0  0  0  0  0  0  0  0
    4.2355    3.2704    0.0000 C   0  0  0  0  0  0  0  0  0  0  0  0
    4.2355    4.0954    0.0000 C   0  0  0  0  0  0  0  0  0  0  0  0
    4.9500    2.8579    0.0000 C   0  0  0  0  0  0  0  0  0  0  0  0
    4.9500    2.0329    0.0000 O   0  0  0  0  0  0  0  0  0  0  0  0
    5.6645    3.2704    0.0000 O   0  0  0  0  0  0  0  0  0  0  0  0
    6.3789    2.8579    0.0000 C   0  0  0  0  0  0  0  0  0  0  0  0
    7.0934    3.2704    0.0000 C   0  0  0  0  0  0  0  0  0  0  0  0
    7.8079    2.8579    0.0000 C   0  0  0  0  0  0  0  0  0  0  0  0
    8.5224    3.2704    0.0000 C   0  0  0  0  0  0  0  0  0  0  0  0
    9.2368    2.8579    0.0000 O   0  0  0  0  0  0  0  0  0  0  0  0
    9.9513    3.2704    0.0000 C   0  0  0  0  0  0  0  0  0  0  0  0
    9.9513    4.0954    0.0000 O   0  0  0  0  0  0  0  0  0  0  0  0
   10.6658    2.8579    0.0000 C   0  0  0  0  0  0  0  0  0  0  0  0
   11.3802    3.2704    0.0000 C   0  0  0  0  0  0  0  0  0  0  0  0
   10.6658    2.0329    0.0000 C   0  0  0  0  0  0  0  0  0  0  0  0
    3.1086    3.5724    0.0000 H   0  0  0  0  0  0  0  0  0  0  0  0
    2.8066    2.4454    0.0000 H   0  0  0  0  0  0  0  0  0  0  0  0
    3.9336    2.1434    0.0000 H   0  0  0  0  0  0  0  0  0  0  0  0
    4.9500    4.5079    0.0000 H   0  0  0  0  0  0  0  0  0  0  0  0
    3.5211    4.5079    0.0000 H   0  0  0  0  0  0  0  0  0  0  0  0
    6.0087    2.1207    0.0000 H   0  0  0  0  0  0  0  0  0  0  0  0
    6.7492    2.1207    0.0000 H   0  0  0  0  0  0  0  0  0  0  0  0
    7.4637    4.0076    0.0000 H   0  0  0  0  0  0  0  0  0  0  0  0
    6.7232    4.0076    0.0000 H   0  0  0  0  0  0  0  0  0  0  0  0
    7.4376    2.1207    0.0000 H   0  0  0  0  0  0  0  0  0  0  0  0
    8.1781    2.1207    0.0000 H   0  0  0  0  0  0  0  0  0  0  0  0
    8.8926    4.0076    0.0000 H   0  0  0  0  0  0  0  0  0  0  0  0
    8.1521    4.0076    0.0000 H   0  0  0  0  0  0  0  0  0  0  0  0
   11.7927    2.5559    0.0000 H   0  0  0  0  0  0  0  0  0  0  0  0
   12.0947    3.6829    0.0000 H   0  0  0  0  0  0  0  0  0  0  0  0
   10.9677    3.9849    0.0000 H   0  0  0  0  0  0  0  0  0  0  0  0
    9.9513    1.6204    0.0000 H   0  0  0  0  0  0  0  0  0  0  0  0
   11.3802    1.6204    0.0000 H   0  0  0  0  0  0  0  0  0  0  0  0
  1  2  1  0  0  0  0
  2  3  2  0  0  0  0
  2  4  1  0  0  0  0
  4  5  2  0  0  0  0
  4  6  1  0  0  0  0
  6  7  1  0  0  0  0
  7  8  1  0  0  0  0
  8  9  1  0  0  0  0
  9 10  1  0  0  0  0
 10 11  1  0  0  0  0
 11 12  1  0  0  0  0
 12 13  2  0  0  0  0
 12 14  1  0  0  0  0
 14 15  1  0  0  0  0
 14 16  2  0  0  0  0
  1 17  1  0  0  0  0
  1 18  1  0  0  0  0
  1 19  1  0  0  0  0
  3 20  1  0  0  0  0
  3 21  1  0  0  0  0
  7 22  1  0  0  0  0
  7 23  1  0  0  0  0
  8 24  1  0  0  0  0
  8 25  1  0  0  0  0
  9 26  1  0  0  0  0
  9 27  1  0  0  0  0
 10 28  1  0  0  0  0
 10 29  1  0  0  0  0
 15 30  1  0  0  0  0
 15 31  1  0  0  0  0
 15 32  1  0  0  0  0
 16 33  1  0  0  0  0
 16 34  1  0  0  0  0
M  END
>  <InChIKey>
XOJWAAUYNWGQAU-UHFFFAOYSA-N

>  <UN GHS>
Non-irritant

>  <CASRN>
2082-81-7

> <Outcome>
0

>  <Index>
924

>  <StandardizerResult>
Clear Stereo (ID: ClearStereo)
Wedge Clean (ID: WedgeClean)
Mesomerize (ID: Mesomerize)
Tautomerize (ID: Tautomerize)
Add Explicit Hydrogens (ID: AddExplicitH)
Neutralize (ID: Neutralize)
Clean 2D (ID: Clean2D)

> <knn Distance>
2.82842707633972

> <CpId>
924

$$$$
936
  Mrv1532301301811342D          

 16 15  0  0  0  0            999 V2000
   -0.1914    0.7145    0.0000 C   0  0  0  0  0  0  0  0  0  0  0  0
    0.5230    1.1270    0.0000 O   0  0  0  0  0  0  0  0  0  0  0  0
    1.2375    0.7145    0.0000 C   0  0  0  0  0  0  0  0  0  0  0  0
    1.9520    1.1270    0.0000 C   0  0  0  0  0  0  0  0  0  0  0  0
    2.6665    0.7145    0.0000 O   0  0  0  0  0  0  0  0  0  0  0  0
    3.3809    1.1270    0.0000 C   0  0  0  0  0  0  0  0  0  0  0  0
   -0.6039    1.4290    0.0000 H   0  0  0  0  0  0  0  0  0  0  0  0
   -0.9059    0.3020    0.0000 H   0  0  0  0  0  0  0  0  0  0  0  0
    0.2211    0.0000    0.0000 H   0  0  0  0  0  0  0  0  0  0  0  0
    0.8673   -0.0227    0.0000 H   0  0  0  0  0  0  0  0  0  0  0  0
    1.6078   -0.0227    0.0000 H   0  0  0  0  0  0  0  0  0  0  0  0
    2.3222    1.8642    0.0000 H   0  0  0  0  0  0  0  0  0  0  0  0
    1.5817    1.8642    0.0000 H   0  0  0  0  0  0  0  0  0  0  0  0
    3.7934    0.4125    0.0000 H   0  0  0  0  0  0  0  0  0  0  0  0
    4.0954    1.5395    0.0000 H   0  0  0  0  0  0  0  0  0  0  0  0
    2.9684    1.8415    0.0000 H   0  0  0  0  0  0  0  0  0  0  0  0
  1  2  1  0  0  0  0
  2  3  1  0  0  0  0
  3  4  1  0  0  0  0
  4  5  1  0  0  0  0
  5  6  1  0  0  0  0
  1  7  1  0  0  0  0
  1  8  1  0  0  0  0
  1  9  1  0  0  0  0
  3 10  1  0  0  0  0
  3 11  1  0  0  0  0
  4 12  1  0  0  0  0
  4 13  1  0  0  0  0
  6 14  1  0  0  0  0
  6 15  1  0  0  0  0
  6 16  1  0  0  0  0
M  END
>  <InChIKey>
XTHFKEDIFFGKHM-UHFFFAOYSA-N

>  <UN GHS>
Non-irritant

>  <CASRN>
110-71-4

> <Outcome>
0

>  <Index>
936

>  <StandardizerResult>
Clear Stereo (ID: ClearStereo)
Wedge Clean (ID: WedgeClean)
Mesomerize (ID: Mesomerize)
Tautomerize (ID: Tautomerize)
Add Explicit Hydrogens (ID: AddExplicitH)
Neutralize (ID: Neutralize)
Clean 2D (ID: Clean2D)

> <knn Distance>
2.82842707633972

> <CpId>
936

$$$$
943
  Mrv1532301301811342D          

 39 38  0  0  0  0            999 V2000
    4.2355    3.2709    0.0000 C   0  0  0  0  0  0  0  0  0  0  0  0
    4.9500    2.8584    0.0000 C   0  0  0  0  0  0  0  0  0  0  0  0
    5.6645    3.2709    0.0000 C   0  0  0  0  0  0  0  0  0  0  0  0
    6.3789    2.8584    0.0000 C   0  0  0  0  0  0  0  0  0  0  0  0
    7.0934    3.2709    0.0000 C   0  0  0  0  0  0  0  0  0  0  0  0
    7.8079    2.8584    0.0000 C   0  0  0  0  0  0  0  0  0  0  0  0
    8.5224    3.2709    0.0000 C   0  0  0  0  0  0  0  0  0  0  0  0
    9.2368    2.8584    0.0000 C   0  0  0  0  0  0  0  0  0  0  0  0
    9.9513    3.2709    0.0000 C   0  0  0  0  0  0  0  0  0  0  0  0
   10.6658    2.8584    0.0000 C   0  0  0  0  0  0  0  0  0  0  0  0
   11.3802    3.2709    0.0000 C   0  0  0  0  0  0  0  0  0  0  0  0
   12.0947    2.8584    0.0000 C   0  0  0  0  0  0  0  0  0  0  0  0
   12.8092    3.2709    0.0000 C   0  0  0  0  0  0  0  0  0  0  0  0
    4.6480    3.9853    0.0000 H   0  0  0  0  0  0  0  0  0  0  0  0
    3.5211    3.6834    0.0000 H   0  0  0  0  0  0  0  0  0  0  0  0
    3.8230    2.5564    0.0000 H   0  0  0  0  0  0  0  0  0  0  0  0
    4.5797    2.1211    0.0000 H   0  0  0  0  0  0  0  0  0  0  0  0
    5.3203    2.1211    0.0000 H   0  0  0  0  0  0  0  0  0  0  0  0
    6.0347    4.0081    0.0000 H   0  0  0  0  0  0  0  0  0  0  0  0
    5.2942    4.0081    0.0000 H   0  0  0  0  0  0  0  0  0  0  0  0
    6.0087    2.1211    0.0000 H   0  0  0  0  0  0  0  0  0  0  0  0
    6.7492    2.1211    0.0000 H   0  0  0  0  0  0  0  0  0  0  0  0
    7.4637    4.0081    0.0000 H   0  0  0  0  0  0  0  0  0  0  0  0
    6.7232    4.0081    0.0000 H   0  0  0  0  0  0  0  0  0  0  0  0
    7.4376    2.1211    0.0000 H   0  0  0  0  0  0  0  0  0  0  0  0
    8.1781    2.1211    0.0000 H   0  0  0  0  0  0  0  0  0  0  0  0
    8.8926    4.0081    0.0000 H   0  0  0  0  0  0  0  0  0  0  0  0
    8.1521    4.0081    0.0000 H   0  0  0  0  0  0  0  0  0  0  0  0
    8.8666    2.1211    0.0000 H   0  0  0  0  0  0  0  0  0  0  0  0
    9.6071    2.1211    0.0000 H   0  0  0  0  0  0  0  0  0  0  0  0
   10.3216    4.0081    0.0000 H   0  0  0  0  0  0  0  0  0  0  0  0
    9.5810    4.0081    0.0000 H   0  0  0  0  0  0  0  0  0  0  0  0
   10.2955    2.1211    0.0000 H   0  0  0  0  0  0  0  0  0  0  0  0
   11.0360    2.1211    0.0000 H   0  0  0  0  0  0  0  0  0  0  0  0
   11.3802    4.0959    0.0000 H   0  0  0  0  0  0  0  0  0  0  0  0
   12.0947    2.0334    0.0000 H   0  0  0  0  0  0  0  0  0  0  0  0
   13.2217    2.5564    0.0000 H   0  0  0  0  0  0  0  0  0  0  0  0
   13.5237    3.6834    0.0000 H   0  0  0  0  0  0  0  0  0  0  0  0
   12.3967    3.9853    0.0000 H   0  0  0  0  0  0  0  0  0  0  0  0
  1  2  1  0  0  0  0
  2  3  1  0  0  0  0
  3  4  1  0  0  0  0
  4  5  1  0  0  0  0
  5  6  1  0  0  0  0
  6  7  1  0  0  0  0
  7  8  1  0  0  0  0
  8  9  1  0  0  0  0
  9 10  1  0  0  0  0
 10 11  1  0  0  0  0
 11 12  2  0  0  0  0
 12 13  1  4  0  0  0
  1 14  1  0  0  0  0
  1 15  1  0  0  0  0
  1 16  1  0  0  0  0
  2 17  1  0  0  0  0
  2 18  1  0  0  0  0
  3 19  1  0  0  0  0
  3 20  1  0  0  0  0
  4 21  1  0  0  0  0
  4 22  1  0  0  0  0
  5 23  1  0  0  0  0
  5 24  1  0  0  0  0
  6 25  1  0  0  0  0
  6 26  1  0  0  0  0
  7 27  1  0  0  0  0
  7 28  1  0  0  0  0
  8 29  1  0  0  0  0
  8 30  1  0  0  0  0
  9 31  1  0  0  0  0
  9 32  1  0  0  0  0
 10 33  1  0  0  0  0
 10 34  1  0  0  0  0
 11 35  1  0  0  0  0
 12 36  1  0  0  0  0
 13 37  1  0  0  0  0
 13 38  1  0  0  0  0
 13 39  1  0  0  0  0
M  END
>  <InChIKey>
XWVHBWQEYOROBE-HWKANZROSA-N

>  <UN GHS>
Non-irritant

>  <CASRN>
25377-82-6

> <Outcome>
0

>  <Index>
943

>  <StandardizerResult>
Clear Stereo (ID: ClearStereo)
Wedge Clean (ID: WedgeClean)
Mesomerize (ID: Mesomerize)
Tautomerize (ID: Tautomerize)
Add Explicit Hydrogens (ID: AddExplicitH)
Neutralize (ID: Neutralize)
Clean 2D (ID: Clean2D)

> <knn Distance>
2.82842707633972

> <CpId>
943

$$$$
954
  Mrv1532301301811342D          

 24 23  0  0  0  0            999 V2000
    3.3011    1.4283    0.0000 C   0  0  0  0  0  0  0  0  0  0  0  0
    2.4761    1.4283    0.0000 C   0  0  0  0  0  0  0  0  0  0  0  0
    2.0636    0.7138    0.0000 C   0  0  0  0  0  0  0  0  0  0  0  0
    1.2386    0.7138    0.0000 C   0  0  0  0  0  0  0  0  0  0  0  0
    0.8261   -0.0006    0.0000 C   0  0  0  0  0  0  0  0  0  0  0  0
    0.0011   -0.0006    0.0000 C   0  0  0  0  0  0  0  0  0  0  0  0
   -0.4114   -0.7151    0.0000 C   0  0  0  0  0  0  0  0  0  0  0  0
    0.0011   -1.4296    0.0000 C   0  0  0  0  0  0  0  0  0  0  0  0
    3.3011    0.6033    0.0000 H   0  0  0  0  0  0  0  0  0  0  0  0
    4.1261    1.4283    0.0000 H   0  0  0  0  0  0  0  0  0  0  0  0
    3.3011    2.2533    0.0000 H   0  0  0  0  0  0  0  0  0  0  0  0
    2.4281    2.2519    0.0000 H   0  0  0  0  0  0  0  0  0  0  0  0
    1.7868    1.8816    0.0000 H   0  0  0  0  0  0  0  0  0  0  0  0
    2.1116   -0.1098    0.0000 H   0  0  0  0  0  0  0  0  0  0  0  0
    2.7529    0.2605    0.0000 H   0  0  0  0  0  0  0  0  0  0  0  0
    1.1906    1.5374    0.0000 H   0  0  0  0  0  0  0  0  0  0  0  0
    0.5493    1.1672    0.0000 H   0  0  0  0  0  0  0  0  0  0  0  0
    1.2386   -0.7151    0.0000 H   0  0  0  0  0  0  0  0  0  0  0  0
   -0.4114    0.7138    0.0000 H   0  0  0  0  0  0  0  0  0  0  0  0
   -1.1486   -0.3449    0.0000 H   0  0  0  0  0  0  0  0  0  0  0  0
   -1.1486   -1.0854    0.0000 H   0  0  0  0  0  0  0  0  0  0  0  0
   -0.7134   -1.8421    0.0000 H   0  0  0  0  0  0  0  0  0  0  0  0
    0.4136   -2.1441    0.0000 H   0  0  0  0  0  0  0  0  0  0  0  0
    0.7156   -1.0171    0.0000 H   0  0  0  0  0  0  0  0  0  0  0  0
  1  2  1  0  0  0  0
  2  3  1  0  0  0  0
  3  4  1  0  0  0  0
  5  4  1  4  0  0  0
  5  6  2  0  0  0  0
  6  7  1  0  0  0  0
  7  8  1  0  0  0  0
  1  9  1  0  0  0  0
  1 10  1  0  0  0  0
  1 11  1  0  0  0  0
  2 12  1  0  0  0  0
  2 13  1  0  0  0  0
  3 14  1  0  0  0  0
  3 15  1  0  0  0  0
  4 16  1  0  0  0  0
  4 17  1  0  0  0  0
  5 18  1  0  0  0  0
  6 19  1  0  0  0  0
  7 20  1  0  0  0  0
  7 21  1  0  0  0  0
  8 22  1  0  0  0  0
  8 23  1  0  0  0  0
  8 24  1  0  0  0  0
M  END
>  <InChIKey>
YCTDZYMMFQCTEO-FNORWQNLSA-N

>  <UN GHS>
Non-irritant

>  <CASRN>
25377-83-7

> <Outcome>
0

>  <Index>
954

>  <StandardizerResult>
Clear Stereo (ID: ClearStereo)
Wedge Clean (ID: WedgeClean)
Mesomerize (ID: Mesomerize)
Tautomerize (ID: Tautomerize)
Add Explicit Hydrogens (ID: AddExplicitH)
Neutralize (ID: Neutralize)
Clean 2D (ID: Clean2D)

> <knn Distance>
2.82842707633972

> <CpId>
954

$$$$
967
  Mrv1532301301811342D          

 30 29  0  0  0  0            999 V2000
    1.0461    1.4289    0.0000 C   0  0  0  0  0  0  0  0  0  0  0  0
    1.7605    1.8414    0.0000 C   0  0  0  0  0  0  0  0  0  0  0  0
    2.4750    1.4289    0.0000 C   0  0  0  0  0  0  0  0  0  0  0  0
    3.1895    1.8414    0.0000 C   0  0  0  0  0  0  0  0  0  0  0  0
    3.9039    1.4289    0.0000 C   0  0  0  0  0  0  0  0  0  0  0  0
    4.6184    1.8414    0.0000 C   0  0  0  0  0  0  0  0  0  0  0  0
    5.3329    1.4289    0.0000 C   0  0  0  0  0  0  0  0  0  0  0  0
    6.0474    1.8414    0.0000 C   0  0  0  0  0  0  0  0  0  0  0  0
    6.7618    1.4289    0.0000 C   0  0  0  0  0  0  0  0  0  0  0  0
    7.4763    1.8414    0.0000 C   0  0  0  0  0  0  0  0  0  0  0  0
    0.6336    2.1434    0.0000 H   0  0  0  0  0  0  0  0  0  0  0  0
    0.3316    1.0164    0.0000 H   0  0  0  0  0  0  0  0  0  0  0  0
    1.4586    0.7144    0.0000 H   0  0  0  0  0  0  0  0  0  0  0  0
    2.1308    2.5786    0.0000 H   0  0  0  0  0  0  0  0  0  0  0  0
    1.3903    2.5786    0.0000 H   0  0  0  0  0  0  0  0  0  0  0  0
    2.1047    0.6917    0.0000 H   0  0  0  0  0  0  0  0  0  0  0  0
    2.8453    0.6917    0.0000 H   0  0  0  0  0  0  0  0  0  0  0  0
    3.5597    2.5786    0.0000 H   0  0  0  0  0  0  0  0  0  0  0  0
    2.8192    2.5786    0.0000 H   0  0  0  0  0  0  0  0  0  0  0  0
    3.5337    0.6917    0.0000 H   0  0  0  0  0  0  0  0  0  0  0  0
    4.2742    0.6917    0.0000 H   0  0  0  0  0  0  0  0  0  0  0  0
    4.9887    2.5786    0.0000 H   0  0  0  0  0  0  0  0  0  0  0  0
    4.2482    2.5786    0.0000 H   0  0  0  0  0  0  0  0  0  0  0  0
    4.9626    0.6917    0.0000 H   0  0  0  0  0  0  0  0  0  0  0  0
    5.7031    0.6917    0.0000 H   0  0  0  0  0  0  0  0  0  0  0  0
    6.0474    2.6664    0.0000 H   0  0  0  0  0  0  0  0  0  0  0  0
    6.7618    0.6039    0.0000 H   0  0  0  0  0  0  0  0  0  0  0  0
    7.8888    1.1269    0.0000 H   0  0  0  0  0  0  0  0  0  0  0  0
    8.1908    2.2539    0.0000 H   0  0  0  0  0  0  0  0  0  0  0  0
    7.0638    2.5559    0.0000 H   0  0  0  0  0  0  0  0  0  0  0  0
  1  2  1  0  0  0  0
  2  3  1  0  0  0  0
  3  4  1  0  0  0  0
  4  5  1  0  0  0  0
  5  6  1  0  0  0  0
  6  7  1  0  0  0  0
  7  8  1  0  0  0  0
  8  9  2  0  0  0  0
  9 10  1  4  0  0  0
  1 11  1  0  0  0  0
  1 12  1  0  0  0  0
  1 13  1  0  0  0  0
  2 14  1  0  0  0  0
  2 15  1  0  0  0  0
  3 16  1  0  0  0  0
  3 17  1  0  0  0  0
  4 18  1  0  0  0  0
  4 19  1  0  0  0  0
  5 20  1  0  0  0  0
  5 21  1  0  0  0  0
  6 22  1  0  0  0  0
  6 23  1  0  0  0  0
  7 24  1  0  0  0  0
  7 25  1  0  0  0  0
  8 26  1  0  0  0  0
  9 27  1  0  0  0  0
 10 28  1  0  0  0  0
 10 29  1  0  0  0  0
 10 30  1  0  0  0  0
M  END
>  <InChIKey>
YKNMBTZOEVIJCM-HWKANZROSA-N

>  <UN GHS>
Non-irritant

>  <CASRN>
25339-53-1

> <Outcome>
0

>  <Index>
967

>  <StandardizerResult>
Clear Stereo (ID: ClearStereo)
Wedge Clean (ID: WedgeClean)
Mesomerize (ID: Mesomerize)
Tautomerize (ID: Tautomerize)
Add Explicit Hydrogens (ID: AddExplicitH)
Neutralize (ID: Neutralize)
Clean 2D (ID: Clean2D)

> <knn Distance>
2.82842707633972

> <CpId>
967

$$$$
990
  Mrv1532301301811342D          

 14 14  0  0  0  0            999 V2000
    0.6615    1.9860    0.0000 C   0  0  0  0  0  0  0  0  0  0  0  0
    0.6615    1.1610    0.0000 C   0  0  0  0  0  0  0  0  0  0  0  0
    1.3289    0.6761    0.0000 C   0  0  0  0  0  0  0  0  0  0  0  0
    1.0740   -0.1085    0.0000 C   0  0  0  0  0  0  0  0  0  0  0  0
    0.2490   -0.1085    0.0000 C   0  0  0  0  0  0  0  0  0  0  0  0
   -0.0060    0.6761    0.0000 C   0  0  0  0  0  0  0  0  0  0  0  0
    1.4865    1.9860    0.0000 H   0  0  0  0  0  0  0  0  0  0  0  0
    0.6615    2.8110    0.0000 H   0  0  0  0  0  0  0  0  0  0  0  0
   -0.1635    1.9860    0.0000 H   0  0  0  0  0  0  0  0  0  0  0  0
   -0.0736    1.5356    0.0000 H   0  0  0  0  0  0  0  0  0  0  0  0
    2.1135    0.9311    0.0000 H   0  0  0  0  0  0  0  0  0  0  0  0
    1.5589   -0.7759    0.0000 H   0  0  0  0  0  0  0  0  0  0  0  0
   -0.2359   -0.7759    0.0000 H   0  0  0  0  0  0  0  0  0  0  0  0
   -0.8151    0.5152    0.0000 H   0  0  0  0  0  0  0  0  0  0  0  0
  1  2  1  0  0  0  0
  2  3  1  0  0  0  0
  3  4  2  0  0  0  0
  4  5  1  0  0  0  0
  5  6  2  0  0  0  0
  2  6  1  0  0  0  0
  1  7  1  0  0  0  0
  1  8  1  0  0  0  0
  1  9  1  0  0  0  0
  2 10  1  0  0  0  0
  3 11  1  0  0  0  0
  4 12  1  0  0  0  0
  5 13  1  0  0  0  0
  6 14  1  0  0  0  0
M  END
>  <InChIKey>
ZAKSCXKVYUNNHM-UHFFFAOYSA-N

>  <UN GHS>
Non-irritant

>  <CASRN>
12108-13-3

> <Outcome>
0

>  <Index>
990

>  <StandardizerResult>
Clear Stereo (ID: ClearStereo)
Wedge Clean (ID: WedgeClean)
Mesomerize (ID: Mesomerize)
Tautomerize (ID: Tautomerize)
Add Explicit Hydrogens (ID: AddExplicitH)
Neutralize (ID: Neutralize)
Clean 2D (ID: Clean2D)

> <knn Distance>
2.82842707633972

> <CpId>
990

$$$$
1004
  Mrv1532301301811342D          

 69 69  0  0  0  0            999 V2000
   -3.5721   -6.1874    0.0000 C   0  0  0  0  0  0  0  0  0  0  0  0
   -2.8577   -5.7749    0.0000 C   0  0  0  0  0  0  0  0  0  0  0  0
   -2.1432   -6.1874    0.0000 C   0  0  0  0  0  0  0  0  0  0  0  0
   -1.4287   -5.7749    0.0000 C   0  0  0  0  0  0  0  0  0  0  0  0
   -0.7142   -6.1874    0.0000 C   0  0  0  0  0  0  0  0  0  0  0  0
    0.0002   -5.7749    0.0000 C   0  0  0  0  0  0  0  0  0  0  0  0
    0.7147   -6.1874    0.0000 C   0  0  0  0  0  0  0  0  0  0  0  0
    1.4292   -5.7749    0.0000 C   0  0  0  0  0  0  0  0  0  0  0  0
    2.1436   -6.1874    0.0000 C   0  0  0  0  0  0  0  0  0  0  0  0
    2.8581   -5.7749    0.0000 O   0  0  0  0  0  0  0  0  0  0  0  0
    3.5726   -6.1874    0.0000 C   0  0  0  0  0  0  0  0  0  0  0  0
    3.5726   -7.0124    0.0000 O   0  0  0  0  0  0  0  0  0  0  0  0
    4.2870   -5.7749    0.0000 C   0  0  0  0  0  0  0  0  0  0  0  0
    4.2870   -4.9499    0.0000 C   0  0  0  0  0  0  0  0  0  0  0  0
    5.0015   -4.5374    0.0000 C   0  0  0  0  0  0  0  0  0  0  0  0
    5.7160   -4.9499    0.0000 C   0  0  0  0  0  0  0  0  0  0  0  0
    5.7160   -5.7749    0.0000 C   0  0  0  0  0  0  0  0  0  0  0  0
    5.0015   -6.1874    0.0000 C   0  0  0  0  0  0  0  0  0  0  0  0
    5.0015   -7.0124    0.0000 C   0  0  0  0  0  0  0  0  0  0  0  0
    4.2870   -7.4249    0.0000 O   0  0  0  0  0  0  0  0  0  0  0  0
    5.7160   -7.4249    0.0000 O   0  0  0  0  0  0  0  0  0  0  0  0
    5.7160   -8.2499    0.0000 C   0  0  0  0  0  0  0  0  0  0  0  0
    6.4305   -8.6624    0.0000 C   0  0  0  0  0  0  0  0  0  0  0  0
    6.4305   -9.4874    0.0000 C   0  0  0  0  0  0  0  0  0  0  0  0
    7.1449   -9.8999    0.0000 C   0  0  0  0  0  0  0  0  0  0  0  0
    7.1449  -10.7249    0.0000 C   0  0  0  0  0  0  0  0  0  0  0  0
    7.8594  -11.1374    0.0000 C   0  0  0  0  0  0  0  0  0  0  0  0
    7.8594  -11.9624    0.0000 C   0  0  0  0  0  0  0  0  0  0  0  0
    8.5739  -12.3749    0.0000 C   0  0  0  0  0  0  0  0  0  0  0  0
   -3.9846   -5.4729    0.0000 H   0  0  0  0  0  0  0  0  0  0  0  0
   -4.2866   -6.5999    0.0000 H   0  0  0  0  0  0  0  0  0  0  0  0
   -3.1596   -6.9018    0.0000 H   0  0  0  0  0  0  0  0  0  0  0  0
   -2.4874   -5.0376    0.0000 H   0  0  0  0  0  0  0  0  0  0  0  0
   -3.2279   -5.0376    0.0000 H   0  0  0  0  0  0  0  0  0  0  0  0
   -2.5134   -6.9246    0.0000 H   0  0  0  0  0  0  0  0  0  0  0  0
   -1.7729   -6.9246    0.0000 H   0  0  0  0  0  0  0  0  0  0  0  0
   -1.0585   -5.0376    0.0000 H   0  0  0  0  0  0  0  0  0  0  0  0
   -1.7990   -5.0376    0.0000 H   0  0  0  0  0  0  0  0  0  0  0  0
   -1.0845   -6.9246    0.0000 H   0  0  0  0  0  0  0  0  0  0  0  0
   -0.3440   -6.9246    0.0000 H   0  0  0  0  0  0  0  0  0  0  0  0
    0.3705   -5.0376    0.0000 H   0  0  0  0  0  0  0  0  0  0  0  0
   -0.3700   -5.0376    0.0000 H   0  0  0  0  0  0  0  0  0  0  0  0
    0.3444   -6.9246    0.0000 H   0  0  0  0  0  0  0  0  0  0  0  0
    1.0850   -6.9246    0.0000 H   0  0  0  0  0  0  0  0  0  0  0  0
    1.7994   -5.0376    0.0000 H   0  0  0  0  0  0  0  0  0  0  0  0
    1.0589   -5.0376    0.0000 H   0  0  0  0  0  0  0  0  0  0  0  0
    1.7734   -6.9246    0.0000 H   0  0  0  0  0  0  0  0  0  0  0  0
    2.5139   -6.9246    0.0000 H   0  0  0  0  0  0  0  0  0  0  0  0
    3.5726   -4.5374    0.0000 H   0  0  0  0  0  0  0  0  0  0  0  0
    5.0015   -3.7124    0.0000 H   0  0  0  0  0  0  0  0  0  0  0  0
    6.4305   -4.5374    0.0000 H   0  0  0  0  0  0  0  0  0  0  0  0
    6.4305   -6.1874    0.0000 H   0  0  0  0  0  0  0  0  0  0  0  0
    4.8924   -8.2978    0.0000 H   0  0  0  0  0  0  0  0  0  0  0  0
    5.2626   -8.9391    0.0000 H   0  0  0  0  0  0  0  0  0  0  0  0
    7.2541   -8.6144    0.0000 H   0  0  0  0  0  0  0  0  0  0  0  0
    6.8838   -7.9731    0.0000 H   0  0  0  0  0  0  0  0  0  0  0  0
    5.6069   -9.5353    0.0000 H   0  0  0  0  0  0  0  0  0  0  0  0
    5.9771  -10.1766    0.0000 H   0  0  0  0  0  0  0  0  0  0  0  0
    7.9685   -9.8519    0.0000 H   0  0  0  0  0  0  0  0  0  0  0  0
    7.5983   -9.2106    0.0000 H   0  0  0  0  0  0  0  0  0  0  0  0
    6.3213  -10.7728    0.0000 H   0  0  0  0  0  0  0  0  0  0  0  0
    6.6916  -11.4141    0.0000 H   0  0  0  0  0  0  0  0  0  0  0  0
    8.6830  -11.0894    0.0000 H   0  0  0  0  0  0  0  0  0  0  0  0
    8.3127  -10.4481    0.0000 H   0  0  0  0  0  0  0  0  0  0  0  0
    7.0358  -12.0103    0.0000 H   0  0  0  0  0  0  0  0  0  0  0  0
    7.4061  -12.6516    0.0000 H   0  0  0  0  0  0  0  0  0  0  0  0
    8.1614  -13.0893    0.0000 H   0  0  0  0  0  0  0  0  0  0  0  0
    9.2883  -12.7874    0.0000 H   0  0  0  0  0  0  0  0  0  0  0  0
    8.9864  -11.6604    0.0000 H   0  0  0  0  0  0  0  0  0  0  0  0
  1  2  1  0  0  0  0
  2  3  1  0  0  0  0
  3  4  1  0  0  0  0
  4  5  1  0  0  0  0
  5  6  1  0  0  0  0
  6  7  1  0  0  0  0
  7  8  1  0  0  0  0
  8  9  1  0  0  0  0
  9 10  1  0  0  0  0
 10 11  1  0  0  0  0
 11 12  2  0  0  0  0
 11 13  1  0  0  0  0
 13 14  4  0  0  0  0
 14 15  4  0  0  0  0
 15 16  4  0  0  0  0
 16 17  4  0  0  0  0
 17 18  4  0  0  0  0
 13 18  4  0  0  0  0
 18 19  1  0  0  0  0
 19 20  2  0  0  0  0
 19 21  1  0  0  0  0
 21 22  1  0  0  0  0
 22 23  1  0  0  0  0
 23 24  1  0  0  0  0
 24 25  1  0  0  0  0
 25 26  1  0  0  0  0
 26 27  1  0  0  0  0
 27 28  1  0  0  0  0
 28 29  1  0  0  0  0
  1 30  1  0  0  0  0
  1 31  1  0  0  0  0
  1 32  1  0  0  0  0
  2 33  1  0  0  0  0
  2 34  1  0  0  0  0
  3 35  1  0  0  0  0
  3 36  1  0  0  0  0
  4 37  1  0  0  0  0
  4 38  1  0  0  0  0
  5 39  1  0  0  0  0
  5 40  1  0  0  0  0
  6 41  1  0  0  0  0
  6 42  1  0  0  0  0
  7 43  1  0  0  0  0
  7 44  1  0  0  0  0
  8 45  1  0  0  0  0
  8 46  1  0  0  0  0
  9 47  1  0  0  0  0
  9 48  1  0  0  0  0
 14 49  1  0  0  0  0
 15 50  1  0  0  0  0
 16 51  1  0  0  0  0
 17 52  1  0  0  0  0
 22 53  1  0  0  0  0
 22 54  1  0  0  0  0
 23 55  1  0  0  0  0
 23 56  1  0  0  0  0
 24 57  1  0  0  0  0
 24 58  1  0  0  0  0
 25 59  1  0  0  0  0
 25 60  1  0  0  0  0
 26 61  1  0  0  0  0
 26 62  1  0  0  0  0
 27 63  1  0  0  0  0
 27 64  1  0  0  0  0
 28 65  1  0  0  0  0
 28 66  1  0  0  0  0
 29 67  1  0  0  0  0
 29 68  1  0  0  0  0
 29 69  1  0  0  0  0
M  END
>  <InChIKey>
ZKHMKHBSASMXEZ-UHFFFAOYSA-N

>  <UN GHS>
Non-irritant

>  <CASRN>
71662-46-9

> <Outcome>
0

>  <Index>
1004

>  <StandardizerResult>
Dearomatize (ID: Dearomatize)
Clear Stereo (ID: ClearStereo)
Wedge Clean (ID: WedgeClean)
Mesomerize (ID: Mesomerize)
Tautomerize (ID: Tautomerize)
Aromatize (ID: Aromatize)
Add Explicit Hydrogens (ID: AddExplicitH)
Neutralize (ID: Neutralize)
Clean 2D (ID: Clean2D)

> <knn Distance>
2.82842707633972

> <CpId>
1004

$$$$
1015
  Mrv1532301301811342D          

  4  3  0  0  0  0            999 V2000
    0.0000    0.0000    0.0000 B   0  0  0  0  0  0  0  0  0  0  0  0
    0.8250    0.0000    0.0000 H   0  0  0  0  0  0  0  0  0  0  0  0
   -0.4125    0.7145    0.0000 H   0  0  0  0  0  0  0  0  0  0  0  0
   -0.4125   -0.7145    0.0000 H   0  0  0  0  0  0  0  0  0  0  0  0
  1  2  1  0  0  0  0
  1  3  1  0  0  0  0
  1  4  1  0  0  0  0
M  END
>  <InChIKey>
ZOXJGFHDIHLPTG-UHFFFAOYSA-N

>  <UN GHS>
Non-irritant

>  <CASRN>
11128-29-3

> <Outcome>
0

>  <Index>
1015

>  <StandardizerResult>
Clear Stereo (ID: ClearStereo)
Mesomerize (ID: Mesomerize)
Tautomerize (ID: Tautomerize)
Add Explicit Hydrogens (ID: AddExplicitH)
Neutralize (ID: Neutralize)
Clean 2D (ID: Clean2D)

> <knn Distance>
2.82842707633972

> <CpId>
1015

$$$$
1018
  Mrv1532301301811342D          

 54 53  0  0  0  0            999 V2000
   -4.1467    2.5559    0.0000 C   0  0  0  0  0  0  0  0  0  0  0  0
   -3.4322    2.1434    0.0000 C   0  0  0  0  0  0  0  0  0  0  0  0
   -2.7177    2.5559    0.0000 C   0  0  0  0  0  0  0  0  0  0  0  0
   -2.0033    2.1434    0.0000 C   0  0  0  0  0  0  0  0  0  0  0  0
   -1.2888    2.5559    0.0000 C   0  0  0  0  0  0  0  0  0  0  0  0
   -0.5743    2.1434    0.0000 C   0  0  0  0  0  0  0  0  0  0  0  0
    0.1401    2.5559    0.0000 C   0  0  0  0  0  0  0  0  0  0  0  0
    0.8546    2.1434    0.0000 C   0  0  0  0  0  0  0  0  0  0  0  0
    1.5691    2.5559    0.0000 C   0  0  0  0  0  0  0  0  0  0  0  0
    2.2836    2.1434    0.0000 C   0  0  0  0  0  0  0  0  0  0  0  0
    2.9980    2.5559    0.0000 C   0  0  0  0  0  0  0  0  0  0  0  0
    3.7125    2.1434    0.0000 C   0  0  0  0  0  0  0  0  0  0  0  0
    4.4270    2.5559    0.0000 C   0  0  0  0  0  0  0  0  0  0  0  0
    5.1414    2.1434    0.0000 C   0  0  0  0  0  0  0  0  0  0  0  0
    5.8559    2.5559    0.0000 C   0  0  0  0  0  0  0  0  0  0  0  0
    6.5704    2.1434    0.0000 C   0  0  0  0  0  0  0  0  0  0  0  0
    7.2849    2.5559    0.0000 C   0  0  0  0  0  0  0  0  0  0  0  0
    7.9993    2.1434    0.0000 C   0  0  0  0  0  0  0  0  0  0  0  0
    8.7138    2.5559    0.0000 O   0  0  0  0  0  0  0  0  0  0  0  0
    7.9993    1.3184    0.0000 O   0  0  0  0  0  0  0  0  0  0  0  0
   -3.7342    3.2704    0.0000 H   0  0  0  0  0  0  0  0  0  0  0  0
   -4.8612    2.9684    0.0000 H   0  0  0  0  0  0  0  0  0  0  0  0
   -4.5592    1.8414    0.0000 H   0  0  0  0  0  0  0  0  0  0  0  0
   -3.8025    1.4062    0.0000 H   0  0  0  0  0  0  0  0  0  0  0  0
   -3.0620    1.4062    0.0000 H   0  0  0  0  0  0  0  0  0  0  0  0
   -2.3475    3.2931    0.0000 H   0  0  0  0  0  0  0  0  0  0  0  0
   -3.0880    3.2931    0.0000 H   0  0  0  0  0  0  0  0  0  0  0  0
   -2.3735    1.4062    0.0000 H   0  0  0  0  0  0  0  0  0  0  0  0
   -1.6330    1.4062    0.0000 H   0  0  0  0  0  0  0  0  0  0  0  0
   -0.9185    3.2931    0.0000 H   0  0  0  0  0  0  0  0  0  0  0  0
   -1.6591    3.2931    0.0000 H   0  0  0  0  0  0  0  0  0  0  0  0
   -0.9446    1.4062    0.0000 H   0  0  0  0  0  0  0  0  0  0  0  0
   -0.2041    1.4062    0.0000 H   0  0  0  0  0  0  0  0  0  0  0  0
    0.5104    3.2931    0.0000 H   0  0  0  0  0  0  0  0  0  0  0  0
   -0.2301    3.2931    0.0000 H   0  0  0  0  0  0  0  0  0  0  0  0
    0.4844    1.4062    0.0000 H   0  0  0  0  0  0  0  0  0  0  0  0
    1.2249    1.4062    0.0000 H   0  0  0  0  0  0  0  0  0  0  0  0
    1.5691    3.3809    0.0000 H   0  0  0  0  0  0  0  0  0  0  0  0
    2.2836    1.3184    0.0000 H   0  0  0  0  0  0  0  0  0  0  0  0
    3.3683    3.2931    0.0000 H   0  0  0  0  0  0  0  0  0  0  0  0
    2.6278    3.2931    0.0000 H   0  0  0  0  0  0  0  0  0  0  0  0
    3.3422    1.4062    0.0000 H   0  0  0  0  0  0  0  0  0  0  0  0
    4.0828    1.4062    0.0000 H   0  0  0  0  0  0  0  0  0  0  0  0
    4.7972    3.2931    0.0000 H   0  0  0  0  0  0  0  0  0  0  0  0
    4.0567    3.2931    0.0000 H   0  0  0  0  0  0  0  0  0  0  0  0
    4.7712    1.4062    0.0000 H   0  0  0  0  0  0  0  0  0  0  0  0
    5.5117    1.4062    0.0000 H   0  0  0  0  0  0  0  0  0  0  0  0
    6.2262    3.2931    0.0000 H   0  0  0  0  0  0  0  0  0  0  0  0
    5.4857    3.2931    0.0000 H   0  0  0  0  0  0  0  0  0  0  0  0
    6.2001    1.4062    0.0000 H   0  0  0  0  0  0  0  0  0  0  0  0
    6.9406    1.4062    0.0000 H   0  0  0  0  0  0  0  0  0  0  0  0
    7.6551    3.2931    0.0000 H   0  0  0  0  0  0  0  0  0  0  0  0
    6.9146    3.2931    0.0000 H   0  0  0  0  0  0  0  0  0  0  0  0
    9.4283    2.1434    0.0000 H   0  0  0  0  0  0  0  0  0  0  0  0
  1  2  1  0  0  0  0
  2  3  1  0  0  0  0
  3  4  1  0  0  0  0
  4  5  1  0  0  0  0
  5  6  1  0  0  0  0
  6  7  1  0  0  0  0
  7  8  1  0  0  0  0
  9  8  1  4  0  0  0
  9 10  2  0  0  0  0
 10 11  1  0  0  0  0
 11 12  1  0  0  0  0
 12 13  1  0  0  0  0
 13 14  1  0  0  0  0
 14 15  1  0  0  0  0
 15 16  1  0  0  0  0
 16 17  1  0  0  0  0
 17 18  1  0  0  0  0
 18 19  1  0  0  0  0
 18 20  2  0  0  0  0
  1 21  1  0  0  0  0
  1 22  1  0  0  0  0
  1 23  1  0  0  0  0
  2 24  1  0  0  0  0
  2 25  1  0  0  0  0
  3 26  1  0  0  0  0
  3 27  1  0  0  0  0
  4 28  1  0  0  0  0
  4 29  1  0  0  0  0
  5 30  1  0  0  0  0
  5 31  1  0  0  0  0
  6 32  1  0  0  0  0
  6 33  1  0  0  0  0
  7 34  1  0  0  0  0
  7 35  1  0  0  0  0
  8 36  1  0  0  0  0
  8 37  1  0  0  0  0
  9 38  1  0  0  0  0
 10 39  1  0  0  0  0
 11 40  1  0  0  0  0
 11 41  1  0  0  0  0
 12 42  1  0  0  0  0
 12 43  1  0  0  0  0
 13 44  1  0  0  0  0
 13 45  1  0  0  0  0
 14 46  1  0  0  0  0
 14 47  1  0  0  0  0
 15 48  1  0  0  0  0
 15 49  1  0  0  0  0
 16 50  1  0  0  0  0
 16 51  1  0  0  0  0
 17 52  1  0  0  0  0
 17 53  1  0  0  0  0
 19 54  1  0  0  0  0
M  END
>  <InChIKey>
ZQPPMHVWECSIRJ-KTKRTIGZSA-N

>  <UN GHS>
Non-irritant

>  <CASRN>
68815-51-0

> <Outcome>
0

>  <Index>
1018

>  <StandardizerResult>
Clear Stereo (ID: ClearStereo)
Wedge Clean (ID: WedgeClean)
Mesomerize (ID: Mesomerize)
Tautomerize (ID: Tautomerize)
Add Explicit Hydrogens (ID: AddExplicitH)
Neutralize (ID: Neutralize)
Clean 2D (ID: Clean2D)

> <knn Distance>
2.82842707633972

> <CpId>
1018

$$$$
1027
  Mrv1532301301811342D          

 37 36  0  0  0  0            999 V2000
    6.7105    4.6993    0.0000 C   0  0  0  0  0  0  0  0  0  0  0  0
    7.4250    4.2868    0.0000 O   0  0  0  0  0  0  0  0  0  0  0  0
    8.1395    4.6993    0.0000 C   0  0  0  0  0  0  0  0  0  0  0  0
    8.8539    4.2868    0.0000 C   0  0  0  0  0  0  0  0  0  0  0  0
    9.5684    4.6993    0.0000 O   0  0  0  0  0  0  0  0  0  0  0  0
   10.2829    4.2868    0.0000 C   0  0  0  0  0  0  0  0  0  0  0  0
   10.9974    4.6993    0.0000 C   0  0  0  0  0  0  0  0  0  0  0  0
   11.7118    4.2868    0.0000 O   0  0  0  0  0  0  0  0  0  0  0  0
   12.4263    4.6993    0.0000 C   0  0  0  0  0  0  0  0  0  0  0  0
   13.1408    4.2868    0.0000 C   0  0  0  0  0  0  0  0  0  0  0  0
   13.8552    4.6993    0.0000 O   0  0  0  0  0  0  0  0  0  0  0  0
   14.5697    4.2868    0.0000 C   0  0  0  0  0  0  0  0  0  0  0  0
   15.2842    4.6993    0.0000 C   0  0  0  0  0  0  0  0  0  0  0  0
   15.9987    4.2868    0.0000 O   0  0  0  0  0  0  0  0  0  0  0  0
   16.7131    4.6993    0.0000 C   0  0  0  0  0  0  0  0  0  0  0  0
    7.1230    5.4138    0.0000 H   0  0  0  0  0  0  0  0  0  0  0  0
    5.9961    5.1118    0.0000 H   0  0  0  0  0  0  0  0  0  0  0  0
    6.2980    3.9848    0.0000 H   0  0  0  0  0  0  0  0  0  0  0  0
    8.5097    5.4365    0.0000 H   0  0  0  0  0  0  0  0  0  0  0  0
    7.7692    5.4365    0.0000 H   0  0  0  0  0  0  0  0  0  0  0  0
    8.4837    3.5496    0.0000 H   0  0  0  0  0  0  0  0  0  0  0  0
    9.2242    3.5496    0.0000 H   0  0  0  0  0  0  0  0  0  0  0  0
    9.9126    3.5496    0.0000 H   0  0  0  0  0  0  0  0  0  0  0  0
   10.6531    3.5496    0.0000 H   0  0  0  0  0  0  0  0  0  0  0  0
   11.3676    5.4365    0.0000 H   0  0  0  0  0  0  0  0  0  0  0  0
   10.6271    5.4365    0.0000 H   0  0  0  0  0  0  0  0  0  0  0  0
   12.7966    5.4365    0.0000 H   0  0  0  0  0  0  0  0  0  0  0  0
   12.0560    5.4365    0.0000 H   0  0  0  0  0  0  0  0  0  0  0  0
   12.7705    3.5496    0.0000 H   0  0  0  0  0  0  0  0  0  0  0  0
   13.5110    3.5496    0.0000 H   0  0  0  0  0  0  0  0  0  0  0  0
   14.1995    3.5496    0.0000 H   0  0  0  0  0  0  0  0  0  0  0  0
   14.9400    3.5496    0.0000 H   0  0  0  0  0  0  0  0  0  0  0  0
   15.6544    5.4365    0.0000 H   0  0  0  0  0  0  0  0  0  0  0  0
   14.9139    5.4365    0.0000 H   0  0  0  0  0  0  0  0  0  0  0  0
   17.1256    3.9848    0.0000 H   0  0  0  0  0  0  0  0  0  0  0  0
   17.4276    5.1118    0.0000 H   0  0  0  0  0  0  0  0  0  0  0  0
   16.3006    5.4138    0.0000 H   0  0  0  0  0  0  0  0  0  0  0  0
  1  2  1  0  0  0  0
  2  3  1  0  0  0  0
  3  4  1  0  0  0  0
  4  5  1  0  0  0  0
  5  6  1  0  0  0  0
  6  7  1  0  0  0  0
  7  8  1  0  0  0  0
  8  9  1  0  0  0  0
  9 10  1  0  0  0  0
 10 11  1  0  0  0  0
 11 12  1  0  0  0  0
 12 13  1  0  0  0  0
 13 14  1  0  0  0  0
 14 15  1  0  0  0  0
  1 16  1  0  0  0  0
  1 17  1  0  0  0  0
  1 18  1  0  0  0  0
  3 19  1  0  0  0  0
  3 20  1  0  0  0  0
  4 21  1  0  0  0  0
  4 22  1  0  0  0  0
  6 23  1  0  0  0  0
  6 24  1  0  0  0  0
  7 25  1  0  0  0  0
  7 26  1  0  0  0  0
  9 27  1  0  0  0  0
  9 28  1  0  0  0  0
 10 29  1  0  0  0  0
 10 30  1  0  0  0  0
 12 31  1  0  0  0  0
 12 32  1  0  0  0  0
 13 33  1  0  0  0  0
 13 34  1  0  0  0  0
 15 35  1  0  0  0  0
 15 36  1  0  0  0  0
 15 37  1  0  0  0  0
M  END
>  <InChIKey>
ZUHZGEOKBKGPSW-UHFFFAOYSA-N

>  <UN GHS>
Non-irritant

>  <CASRN>
143-24-8

> <Outcome>
0

>  <Index>
1027

>  <StandardizerResult>
Clear Stereo (ID: ClearStereo)
Wedge Clean (ID: WedgeClean)
Mesomerize (ID: Mesomerize)
Tautomerize (ID: Tautomerize)
Add Explicit Hydrogens (ID: AddExplicitH)
Neutralize (ID: Neutralize)
Clean 2D (ID: Clean2D)

> <knn Distance>
2.82842707633972

> <CpId>
1027

$$$$
1054
  Mrv1532301301811342D          

 20 19  0  0  0  0            999 V2000
    1.2454    2.1683    0.0000 C   0  0  0  0  0  0  0  0  0  0  0  0
    0.8329    1.4538    0.0000 C   0  0  0  0  0  0  0  0  0  0  0  0
    1.2454    0.7393    0.0000 C   0  0  0  0  0  0  0  0  0  0  0  0
    0.8329    0.0248    0.0000 C   0  0  0  0  0  0  0  0  0  0  0  0
    1.2454   -0.6896    0.0000 C   0  0  0  0  0  0  0  0  0  0  0  0
    0.0079    0.0248    0.0000 C   0  0  0  0  0  0  0  0  0  0  0  0
    1.9598    1.7558    0.0000 H   0  0  0  0  0  0  0  0  0  0  0  0
    1.6579    2.8827    0.0000 H   0  0  0  0  0  0  0  0  0  0  0  0
    0.5309    2.5808    0.0000 H   0  0  0  0  0  0  0  0  0  0  0  0
    0.0956    1.8241    0.0000 H   0  0  0  0  0  0  0  0  0  0  0  0
    0.0956    1.0835    0.0000 H   0  0  0  0  0  0  0  0  0  0  0  0
    1.9826    0.3691    0.0000 H   0  0  0  0  0  0  0  0  0  0  0  0
    1.9826    1.1096    0.0000 H   0  0  0  0  0  0  0  0  0  0  0  0
    1.6579    0.0248    0.0000 H   0  0  0  0  0  0  0  0  0  0  0  0
    0.4485   -0.9031    0.0000 H   0  0  0  0  0  0  0  0  0  0  0  0
    1.2454   -1.5146    0.0000 H   0  0  0  0  0  0  0  0  0  0  0  0
    2.0423   -0.9031    0.0000 H   0  0  0  0  0  0  0  0  0  0  0  0
    0.0079    0.8498    0.0000 H   0  0  0  0  0  0  0  0  0  0  0  0
   -0.8171    0.0248    0.0000 H   0  0  0  0  0  0  0  0  0  0  0  0
    0.0079   -0.8002    0.0000 H   0  0  0  0  0  0  0  0  0  0  0  0
  1  2  1  0  0  0  0
  2  3  1  0  0  0  0
  3  4  1  0  0  0  0
  4  5  1  0  0  0  0
  4  6  1  0  0  0  0
  1  7  1  0  0  0  0
  1  8  1  0  0  0  0
  1  9  1  0  0  0  0
  2 10  1  0  0  0  0
  2 11  1  0  0  0  0
  3 12  1  0  0  0  0
  3 13  1  0  0  0  0
  4 14  1  0  0  0  0
  5 15  1  0  0  0  0
  5 16  1  0  0  0  0
  5 17  1  0  0  0  0
  6 18  1  0  0  0  0
  6 19  1  0  0  0  0
  6 20  1  0  0  0  0
M  END
>  <InChIKey>
InChI=1S/C6H14/c1-4-5-6(2)3/h6H,4-5H2,1-3H3

>  <UN GHS>
Non-irritant

>  <CASRN>
107-83-5  107-83-5

> <Outcome>
0

>  <Index>
1054

>  <StandardizerResult>
Clear Stereo (ID: ClearStereo)
Wedge Clean (ID: WedgeClean)
Mesomerize (ID: Mesomerize)
Tautomerize (ID: Tautomerize)
Add Explicit Hydrogens (ID: AddExplicitH)
Neutralize (ID: Neutralize)
Clean 2D (ID: Clean2D)

> <knn Distance>
2.82842707633972

> <CpId>
1054

$$$$
1150
  Mrv1532301301811342D          

 61 60  0  0  0  0            999 V2000
   -2.9042    3.2660    0.0000 C   0  0  0  0  0  0  0  0  0  0  0  0
   -2.1898    2.8535    0.0000 C   0  0  0  0  0  0  0  0  0  0  0  0
   -1.4753    3.2660    0.0000 C   0  0  0  0  0  0  0  0  0  0  0  0
   -0.7608    2.8535    0.0000 C   0  0  0  0  0  0  0  0  0  0  0  0
   -0.0463    3.2660    0.0000 C   0  0  0  0  0  0  0  0  0  0  0  0
    0.6681    2.8535    0.0000 C   0  0  0  0  0  0  0  0  0  0  0  0
    1.3826    3.2660    0.0000 C   0  0  0  0  0  0  0  0  0  0  0  0
    1.3826    4.0910    0.0000 O   0  0  0  0  0  0  0  0  0  0  0  0
    2.0971    2.8535    0.0000 C   0  0  0  0  0  0  0  0  0  0  0  0
    2.8115    3.2660    0.0000 C   0  0  0  0  0  0  0  0  0  0  0  0
    3.5260    2.8535    0.0000 C   0  0  0  0  0  0  0  0  0  0  0  0
    4.2405    3.2660    0.0000 C   0  0  0  0  0  0  0  0  0  0  0  0
    4.9549    2.8535    0.0000 C   0  0  0  0  0  0  0  0  0  0  0  0
    5.6694    3.2660    0.0000 C   0  0  0  0  0  0  0  0  0  0  0  0
    6.3839    2.8535    0.0000 C   0  0  0  0  0  0  0  0  0  0  0  0
    7.0984    3.2660    0.0000 C   0  0  0  0  0  0  0  0  0  0  0  0
    7.8128    2.8535    0.0000 C   0  0  0  0  0  0  0  0  0  0  0  0
    8.5273    3.2660    0.0000 C   0  0  0  0  0  0  0  0  0  0  0  0
    9.2418    2.8535    0.0000 C   0  0  0  0  0  0  0  0  0  0  0  0
    9.2418    2.0285    0.0000 O   0  0  0  0  0  0  0  0  0  0  0  0
    9.9562    3.2660    0.0000 O   0  0  0  0  0  0  0  0  0  0  0  0
   10.6707    2.8535    0.0000 C   0  0  0  0  0  0  0  0  0  0  0  0
   11.3852    3.2660    0.0000 C   0  0  0  0  0  0  0  0  0  0  0  0
   -2.4917    3.9805    0.0000 H   0  0  0  0  0  0  0  0  0  0  0  0
   -3.6187    3.6785    0.0000 H   0  0  0  0  0  0  0  0  0  0  0  0
   -3.3167    2.5516    0.0000 H   0  0  0  0  0  0  0  0  0  0  0  0
   -2.5600    2.1163    0.0000 H   0  0  0  0  0  0  0  0  0  0  0  0
   -1.8195    2.1163    0.0000 H   0  0  0  0  0  0  0  0  0  0  0  0
   -1.1050    4.0033    0.0000 H   0  0  0  0  0  0  0  0  0  0  0  0
   -1.8455    4.0033    0.0000 H   0  0  0  0  0  0  0  0  0  0  0  0
   -1.1311    2.1163    0.0000 H   0  0  0  0  0  0  0  0  0  0  0  0
   -0.3906    2.1163    0.0000 H   0  0  0  0  0  0  0  0  0  0  0  0
    0.3239    4.0033    0.0000 H   0  0  0  0  0  0  0  0  0  0  0  0
   -0.4166    4.0033    0.0000 H   0  0  0  0  0  0  0  0  0  0  0  0
    0.2979    2.1163    0.0000 H   0  0  0  0  0  0  0  0  0  0  0  0
    1.0384    2.1163    0.0000 H   0  0  0  0  0  0  0  0  0  0  0  0
    0.6681    3.6785    0.0000 H   0  0  0  0  0  0  0  0  0  0  0  0
    1.7951    4.8055    0.0000 H   0  0  0  0  0  0  0  0  0  0  0  0
    1.7268    2.1163    0.0000 H   0  0  0  0  0  0  0  0  0  0  0  0
    2.4673    2.1163    0.0000 H   0  0  0  0  0  0  0  0  0  0  0  0
    2.8115    4.0910    0.0000 H   0  0  0  0  0  0  0  0  0  0  0  0
    3.5260    2.0285    0.0000 H   0  0  0  0  0  0  0  0  0  0  0  0
    4.6107    4.0033    0.0000 H   0  0  0  0  0  0  0  0  0  0  0  0
    3.8702    4.0033    0.0000 H   0  0  0  0  0  0  0  0  0  0  0  0
    4.5847    2.1163    0.0000 H   0  0  0  0  0  0  0  0  0  0  0  0
    5.3252    2.1163    0.0000 H   0  0  0  0  0  0  0  0  0  0  0  0
    6.0397    4.0033    0.0000 H   0  0  0  0  0  0  0  0  0  0  0  0
    5.2992    4.0033    0.0000 H   0  0  0  0  0  0  0  0  0  0  0  0
    6.0136    2.1163    0.0000 H   0  0  0  0  0  0  0  0  0  0  0  0
    6.7542    2.1163    0.0000 H   0  0  0  0  0  0  0  0  0  0  0  0
    7.4686    4.0033    0.0000 H   0  0  0  0  0  0  0  0  0  0  0  0
    6.7281    4.0033    0.0000 H   0  0  0  0  0  0  0  0  0  0  0  0
    7.4426    2.1163    0.0000 H   0  0  0  0  0  0  0  0  0  0  0  0
    8.1831    2.1163    0.0000 H   0  0  0  0  0  0  0  0  0  0  0  0
    8.8976    4.0033    0.0000 H   0  0  0  0  0  0  0  0  0  0  0  0
    8.1570    4.0033    0.0000 H   0  0  0  0  0  0  0  0  0  0  0  0
   10.3005    2.1163    0.0000 H   0  0  0  0  0  0  0  0  0  0  0  0
   11.0410    2.1163    0.0000 H   0  0  0  0  0  0  0  0  0  0  0  0
   11.7977    2.5516    0.0000 H   0  0  0  0  0  0  0  0  0  0  0  0
   12.0997    3.6785    0.0000 H   0  0  0  0  0  0  0  0  0  0  0  0
   10.9727    3.9805    0.0000 H   0  0  0  0  0  0  0  0  0  0  0  0
  1  2  1  0  0  0  0
  2  3  1  0  0  0  0
  3  4  1  0  0  0  0
  4  5  1  0  0  0  0
  5  6  1  0  0  0  0
  6  7  1  0  0  0  0
  7  8  1  0  0  0  0
  7  9  1  0  0  0  0
 10  9  1  4  0  0  0
 10 11  2  0  0  0  0
 11 12  1  0  0  0  0
 12 13  1  0  0  0  0
 13 14  1  0  0  0  0
 14 15  1  0  0  0  0
 15 16  1  0  0  0  0
 16 17  1  0  0  0  0
 17 18  1  0  0  0  0
 18 19  1  0  0  0  0
 19 20  2  0  0  0  0
 19 21  1  0  0  0  0
 21 22  1  0  0  0  0
 22 23  1  0  0  0  0
  1 24  1  0  0  0  0
  1 25  1  0  0  0  0
  1 26  1  0  0  0  0
  2 27  1  0  0  0  0
  2 28  1  0  0  0  0
  3 29  1  0  0  0  0
  3 30  1  0  0  0  0
  4 31  1  0  0  0  0
  4 32  1  0  0  0  0
  5 33  1  0  0  0  0
  5 34  1  0  0  0  0
  6 35  1  0  0  0  0
  6 36  1  0  0  0  0
  7 37  1  0  0  0  0
  8 38  1  0  0  0  0
  9 39  1  0  0  0  0
  9 40  1  0  0  0  0
 10 41  1  0  0  0  0
 11 42  1  0  0  0  0
 12 43  1  0  0  0  0
 12 44  1  0  0  0  0
 13 45  1  0  0  0  0
 13 46  1  0  0  0  0
 14 47  1  0  0  0  0
 14 48  1  0  0  0  0
 15 49  1  0  0  0  0
 15 50  1  0  0  0  0
 16 51  1  0  0  0  0
 16 52  1  0  0  0  0
 17 53  1  0  0  0  0
 17 54  1  0  0  0  0
 18 55  1  0  0  0  0
 18 56  1  0  0  0  0
 22 57  1  0  0  0  0
 22 58  1  0  0  0  0
 23 59  1  0  0  0  0
 23 60  1  0  0  0  0
 23 61  1  0  0  0  0
M  END
>  <InChIKey>
InChI=1S/C20H38O3/c1-3-5-6-13-16-19(21)17-14-11-9-7-8-10-12-15-18-20(22)23-4-2/h11,14,19,21H,3-10,12-13,15-18H2,1-2H3

>  <CASRN>
55066-53-0

> <Outcome>
0

>  <Index>
1150

>  <StandardizerResult>
Clear Stereo (ID: ClearStereo)
Wedge Clean (ID: WedgeClean)
Mesomerize (ID: Mesomerize)
Tautomerize (ID: Tautomerize)
Add Explicit Hydrogens (ID: AddExplicitH)
Neutralize (ID: Neutralize)
Clean 2D (ID: Clean2D)

> <knn Distance>
2.82842707633972

> <CpId>
1150

$$$$
1360
  Mrv1532301301811342D          

 36 36  0  0  0  0            999 V2000
    1.4727    0.8356    0.0000 C   0  0  0  0  0  0  0  0  0  0  0  0
    2.1872    1.2481    0.0000 C   0  0  0  0  0  0  0  0  0  0  0  0
    2.9016    0.8356    0.0000 C   0  0  0  0  0  0  0  0  0  0  0  0
    2.9016    0.0106    0.0000 C   0  0  0  0  0  0  0  0  0  0  0  0
    2.1872   -0.4019    0.0000 C   0  0  0  0  0  0  0  0  0  0  0  0
    2.1872   -1.2269    0.0000 C   0  0  0  0  0  0  0  0  0  0  0  0
    1.4727   -1.6394    0.0000 C   0  0  0  0  0  0  0  0  0  0  0  0
    0.7582   -1.2269    0.0000 C   0  0  0  0  0  0  0  0  0  0  0  0
    0.7582   -0.4019    0.0000 C   0  0  0  0  0  0  0  0  0  0  0  0
    0.0438    0.0106    0.0000 C   0  0  0  0  0  0  0  0  0  0  0  0
    0.0438    0.8356    0.0000 C   0  0  0  0  0  0  0  0  0  0  0  0
    0.7582    1.2481    0.0000 C   0  0  0  0  0  0  0  0  0  0  0  0
    1.1024    0.0983    0.0000 H   0  0  0  0  0  0  0  0  0  0  0  0
    1.8430    0.0983    0.0000 H   0  0  0  0  0  0  0  0  0  0  0  0
    2.5574    1.9853    0.0000 H   0  0  0  0  0  0  0  0  0  0  0  0
    1.8169    1.9853    0.0000 H   0  0  0  0  0  0  0  0  0  0  0  0
    3.7252    0.8835    0.0000 H   0  0  0  0  0  0  0  0  0  0  0  0
    3.3550    1.5248    0.0000 H   0  0  0  0  0  0  0  0  0  0  0  0
    3.3550   -0.6787    0.0000 H   0  0  0  0  0  0  0  0  0  0  0  0
    3.7252   -0.0374    0.0000 H   0  0  0  0  0  0  0  0  0  0  0  0
    1.3993   -0.6468    0.0000 H   0  0  0  0  0  0  0  0  0  0  0  0
    2.9016   -0.8144    0.0000 H   0  0  0  0  0  0  0  0  0  0  0  0
    2.3304   -2.0394    0.0000 H   0  0  0  0  0  0  0  0  0  0  0  0
    2.8192   -1.7572    0.0000 H   0  0  0  0  0  0  0  0  0  0  0  0
    0.8591   -2.1909    0.0000 H   0  0  0  0  0  0  0  0  0  0  0  0
    1.3729   -2.4584    0.0000 H   0  0  0  0  0  0  0  0  0  0  0  0
   -0.0278   -0.9764    0.0000 H   0  0  0  0  0  0  0  0  0  0  0  0
    0.0025   -1.5579    0.0000 H   0  0  0  0  0  0  0  0  0  0  0  0
    0.0438   -0.8144    0.0000 H   0  0  0  0  0  0  0  0  0  0  0  0
    0.5764    0.4028    0.0000 H   0  0  0  0  0  0  0  0  0  0  0  0
   -0.7315    0.2927    0.0000 H   0  0  0  0  0  0  0  0  0  0  0  0
   -0.7315   -0.2716    0.0000 H   0  0  0  0  0  0  0  0  0  0  0  0
   -0.1270    1.6427    0.0000 H   0  0  0  0  0  0  0  0  0  0  0  0
   -0.6156    1.3314    0.0000 H   0  0  0  0  0  0  0  0  0  0  0  0
    1.3682    1.8035    0.0000 H   0  0  0  0  0  0  0  0  0  0  0  0
    0.8495    2.0680    0.0000 H   0  0  0  0  0  0  0  0  0  0  0  0
  1  2  1  0  0  0  0
  2  3  1  0  0  0  0
  3  4  1  0  0  0  0
  4  5  1  0  0  0  0
  5  6  1  0  0  0  0
  6  7  1  0  0  0  0
  7  8  1  0  0  0  0
  8  9  1  0  0  0  0
  9 10  1  0  0  0  0
 10 11  1  0  0  0  0
 11 12  1  0  0  0  0
  1 12  1  0  0  0  0
  1 13  1  0  0  0  0
  1 14  1  0  0  0  0
  2 15  1  0  0  0  0
  2 16  1  0  0  0  0
  3 17  1  0  0  0  0
  3 18  1  0  0  0  0
  4 19  1  0  0  0  0
  4 20  1  0  0  0  0
  5 21  1  0  0  0  0
  5 22  1  0  0  0  0
  6 23  1  0  0  0  0
  6 24  1  0  0  0  0
  7 25  1  0  0  0  0
  7 26  1  0  0  0  0
  8 27  1  0  0  0  0
  8 28  1  0  0  0  0
  9 29  1  0  0  0  0
  9 30  1  0  0  0  0
 10 31  1  0  0  0  0
 10 32  1  0  0  0  0
 11 33  1  0  0  0  0
 11 34  1  0  0  0  0
 12 35  1  0  0  0  0
 12 36  1  0  0  0  0
M  END
>  <InChIKey>
InChI=1S/C12H24/c1-2-4-6-8-10-12-11-9-7-5-3-1/h1-12H2

>  <CASRN>
294-62-2

> <Outcome>
0

>  <Index>
1360

>  <StandardizerResult>
Clear Stereo (ID: ClearStereo)
Wedge Clean (ID: WedgeClean)
Mesomerize (ID: Mesomerize)
Tautomerize (ID: Tautomerize)
Add Explicit Hydrogens (ID: AddExplicitH)
Neutralize (ID: Neutralize)
Clean 2D (ID: Clean2D)

> <knn Distance>
2.82842707633972

> <CpId>
1360

$$$$
1363
  Mrv1532301301811342D          

 36 36  0  0  0  0            999 V2000
    1.4438    1.6432    0.0000 Br  0  0  0  0  0  0  0  0  0  0  0  0
    1.4438    0.8182    0.0000 C   0  0  0  0  0  0  0  0  0  0  0  0
    2.1583    1.2307    0.0000 C   0  0  0  0  0  0  0  0  0  0  0  0
    2.8727    0.8182    0.0000 C   0  0  0  0  0  0  0  0  0  0  0  0
    2.8727   -0.0068    0.0000 C   0  0  0  0  0  0  0  0  0  0  0  0
    3.5872   -0.4193    0.0000 Br  0  0  0  0  0  0  0  0  0  0  0  0
    2.1583   -0.4193    0.0000 C   0  0  0  0  0  0  0  0  0  0  0  0
    1.4438   -0.0068    0.0000 Br  0  0  0  0  0  0  0  0  0  0  0  0
    2.1583   -1.2443    0.0000 C   0  0  0  0  0  0  0  0  0  0  0  0
    1.4438   -1.6568    0.0000 C   0  0  0  0  0  0  0  0  0  0  0  0
    0.7293   -1.2443    0.0000 C   0  0  0  0  0  0  0  0  0  0  0  0
    0.0148   -1.6568    0.0000 Br  0  0  0  0  0  0  0  0  0  0  0  0
    0.7293   -0.4193    0.0000 C   0  0  0  0  0  0  0  0  0  0  0  0
    1.0649    0.3344    0.0000 Br  0  0  0  0  0  0  0  0  0  0  0  0
    0.0148   -0.0068    0.0000 C   0  0  0  0  0  0  0  0  0  0  0  0
    0.0148    0.8182    0.0000 C   0  0  0  0  0  0  0  0  0  0  0  0
    0.7293    1.2307    0.0000 C   0  0  0  0  0  0  0  0  0  0  0  0
    0.7293    2.0557    0.0000 Br  0  0  0  0  0  0  0  0  0  0  0  0
    2.1583    0.4057    0.0000 H   0  0  0  0  0  0  0  0  0  0  0  0
    2.7902    1.7610    0.0000 H   0  0  0  0  0  0  0  0  0  0  0  0
    2.3015    2.0432    0.0000 H   0  0  0  0  0  0  0  0  0  0  0  0
    3.6571    0.5625    0.0000 H   0  0  0  0  0  0  0  0  0  0  0  0
    3.6318    1.1413    0.0000 H   0  0  0  0  0  0  0  0  0  0  0  0
    2.8727   -0.8318    0.0000 H   0  0  0  0  0  0  0  0  0  0  0  0
    1.4438   -0.8318    0.0000 H   0  0  0  0  0  0  0  0  0  0  0  0
    2.3015   -2.0567    0.0000 H   0  0  0  0  0  0  0  0  0  0  0  0
    2.7902   -1.7746    0.0000 H   0  0  0  0  0  0  0  0  0  0  0  0
    0.8302   -2.2082    0.0000 H   0  0  0  0  0  0  0  0  0  0  0  0
    1.3440   -2.4757    0.0000 H   0  0  0  0  0  0  0  0  0  0  0  0
    0.0148   -0.8318    0.0000 H   0  0  0  0  0  0  0  0  0  0  0  0
    0.4744    0.3654    0.0000 H   0  0  0  0  0  0  0  0  0  0  0  0
   -0.7604    0.2754    0.0000 H   0  0  0  0  0  0  0  0  0  0  0  0
   -0.7604   -0.2889    0.0000 H   0  0  0  0  0  0  0  0  0  0  0  0
   -0.1559    1.6254    0.0000 H   0  0  0  0  0  0  0  0  0  0  0  0
   -0.6445    1.3141    0.0000 H   0  0  0  0  0  0  0  0  0  0  0  0
    1.1418    1.9452    0.0000 H   0  0  0  0  0  0  0  0  0  0  0  0
  1  2  1  0  0  0  0
  2  3  1  0  0  0  0
  3  4  1  0  0  0  0
  4  5  1  0  0  0  0
  5  6  1  0  0  0  0
  5  7  1  0  0  0  0
  7  8  1  0  0  0  0
  7  9  1  0  0  0  0
  9 10  1  0  0  0  0
 10 11  1  0  0  0  0
 11 12  1  0  0  0  0
 11 13  1  0  0  0  0
 13 14  1  0  0  0  0
 13 15  1  0  0  0  0
 15 16  1  0  0  0  0
 16 17  1  0  0  0  0
  2 17  1  0  0  0  0
 17 18  1  0  0  0  0
  2 19  1  0  0  0  0
  3 20  1  0  0  0  0
  3 21  1  0  0  0  0
  4 22  1  0  0  0  0
  4 23  1  0  0  0  0
  5 24  1  0  0  0  0
  7 25  1  0  0  0  0
  9 26  1  0  0  0  0
  9 27  1  0  0  0  0
 10 28  1  0  0  0  0
 10 29  1  0  0  0  0
 11 30  1  0  0  0  0
 13 31  1  0  0  0  0
 15 32  1  0  0  0  0
 15 33  1  0  0  0  0
 16 34  1  0  0  0  0
 16 35  1  0  0  0  0
 17 36  1  0  0  0  0
M  END
>  <InChIKey>
InChI=1S/C12H18Br6/c13-7-1-2-8(14)10(16)5-6-12(18)11(17)4-3-9(7)15/h7-12H,1-6H2

>  <CASRN>
3194-55-6

> <Outcome>
0

>  <Index>
1363

>  <StandardizerResult>
Clear Stereo (ID: ClearStereo)
Wedge Clean (ID: WedgeClean)
Mesomerize (ID: Mesomerize)
Tautomerize (ID: Tautomerize)
Add Explicit Hydrogens (ID: AddExplicitH)
Neutralize (ID: Neutralize)
Clean 2D (ID: Clean2D)

> <knn Distance>
2.82842707633972

> <CpId>
1363

$$$$
1521
  Mrv1532301301811342D          

 83 84  0  0  0  0            999 V2000
    1.8414   -0.9355    0.0000 C   0  0  0  0  0  0  0  0  0  0  0  0
    1.4289   -1.6500    0.0000 C   0  0  0  0  0  0  0  0  0  0  0  0
    1.0164   -2.3645    0.0000 C   0  0  0  0  0  0  0  0  0  0  0  0
    2.1434   -2.0625    0.0000 S   0  0  0  0  0  0  0  0  0  0  0  0
    2.1434   -2.8875    0.0000 C   0  0  0  0  0  0  0  0  0  0  0  0
    2.8579   -3.3000    0.0000 C   0  0  0  0  0  0  0  0  0  0  0  0
    2.8579   -4.1250    0.0000 C   0  0  0  0  0  0  0  0  0  0  0  0
    2.1434   -4.5375    0.0000 C   0  0  0  0  0  0  0  0  0  0  0  0
    2.1434   -5.3625    0.0000 O   0  0  0  0  0  0  0  0  0  0  0  0
    1.4289   -4.1250    0.0000 C   0  0  0  0  0  0  0  0  0  0  0  0
    1.4289   -3.3000    0.0000 C   0  0  0  0  0  0  0  0  0  0  0  0
    0.7145   -4.5375    0.0000 C   0  0  0  0  0  0  0  0  0  0  0  0
    0.0000   -4.9500    0.0000 C   0  0  0  0  0  0  0  0  0  0  0  0
    0.3020   -3.8230    0.0000 C   0  0  0  0  0  0  0  0  0  0  0  0
    1.1270   -5.2520    0.0000 C   0  0  0  0  0  0  0  0  0  0  0  0
    3.5724   -4.5375    0.0000 C   0  0  0  0  0  0  0  0  0  0  0  0
    4.2868   -4.9500    0.0000 C   0  0  0  0  0  0  0  0  0  0  0  0
    3.1599   -5.2520    0.0000 C   0  0  0  0  0  0  0  0  0  0  0  0
    3.9849   -3.8230    0.0000 C   0  0  0  0  0  0  0  0  0  0  0  0
    0.7145   -1.2375    0.0000 S   0  0  0  0  0  0  0  0  0  0  0  0
    0.7145   -0.4125    0.0000 C   0  0  0  0  0  0  0  0  0  0  0  0
    0.0000    0.0000    0.0000 C   0  0  0  0  0  0  0  0  0  0  0  0
    0.0000    0.8250    0.0000 C   0  0  0  0  0  0  0  0  0  0  0  0
    0.7145    1.2375    0.0000 C   0  0  0  0  0  0  0  0  0  0  0  0
    0.7145    2.0625    0.0000 O   0  0  0  0  0  0  0  0  0  0  0  0
    1.4289    0.8250    0.0000 C   0  0  0  0  0  0  0  0  0  0  0  0
    1.4289    0.0000    0.0000 C   0  0  0  0  0  0  0  0  0  0  0  0
    2.1434    1.2375    0.0000 C   0  0  0  0  0  0  0  0  0  0  0  0
    2.8579    1.6500    0.0000 C   0  0  0  0  0  0  0  0  0  0  0  0
    2.5559    0.5230    0.0000 C   0  0  0  0  0  0  0  0  0  0  0  0
    1.7309    1.9520    0.0000 C   0  0  0  0  0  0  0  0  0  0  0  0
   -0.7145    1.2375    0.0000 C   0  0  0  0  0  0  0  0  0  0  0  0
   -1.4289    1.6500    0.0000 C   0  0  0  0  0  0  0  0  0  0  0  0
   -0.3020    1.9520    0.0000 C   0  0  0  0  0  0  0  0  0  0  0  0
   -1.1270    0.5230    0.0000 C   0  0  0  0  0  0  0  0  0  0  0  0
    2.5559   -1.3480    0.0000 H   0  0  0  0  0  0  0  0  0  0  0  0
    2.2539   -0.2211    0.0000 H   0  0  0  0  0  0  0  0  0  0  0  0
    1.1270   -0.5230    0.0000 H   0  0  0  0  0  0  0  0  0  0  0  0
    0.3020   -1.9520    0.0000 H   0  0  0  0  0  0  0  0  0  0  0  0
    0.6039   -3.0789    0.0000 H   0  0  0  0  0  0  0  0  0  0  0  0
    1.7309   -2.7770    0.0000 H   0  0  0  0  0  0  0  0  0  0  0  0
    3.5724   -2.8875    0.0000 H   0  0  0  0  0  0  0  0  0  0  0  0
    1.4289   -5.7750    0.0000 H   0  0  0  0  0  0  0  0  0  0  0  0
    2.1434   -3.7125    0.0000 H   0  0  0  0  0  0  0  0  0  0  0  0
   -0.4125   -4.2355    0.0000 H   0  0  0  0  0  0  0  0  0  0  0  0
   -0.7145   -5.3625    0.0000 H   0  0  0  0  0  0  0  0  0  0  0  0
    0.4125   -5.6645    0.0000 H   0  0  0  0  0  0  0  0  0  0  0  0
   -0.0503   -3.0770    0.0000 H   0  0  0  0  0  0  0  0  0  0  0  0
   -0.4854   -3.5768    0.0000 H   0  0  0  0  0  0  0  0  0  0  0  0
    1.1250   -3.7661    0.0000 H   0  0  0  0  0  0  0  0  0  0  0  0
    1.9394   -5.1087    0.0000 H   0  0  0  0  0  0  0  0  0  0  0  0
    1.6573   -4.6200    0.0000 H   0  0  0  0  0  0  0  0  0  0  0  0
    0.9134   -6.0489    0.0000 H   0  0  0  0  0  0  0  0  0  0  0  0
    3.8743   -5.6645    0.0000 H   0  0  0  0  0  0  0  0  0  0  0  0
    5.0013   -5.3625    0.0000 H   0  0  0  0  0  0  0  0  0  0  0  0
    4.6993   -4.2355    0.0000 H   0  0  0  0  0  0  0  0  0  0  0  0
    2.6576   -4.5975    0.0000 H   0  0  0  0  0  0  0  0  0  0  0  0
    2.3630   -5.4655    0.0000 H   0  0  0  0  0  0  0  0  0  0  0  0
    3.0522   -6.0699    0.0000 H   0  0  0  0  0  0  0  0  0  0  0  0
    4.6394   -3.3208    0.0000 H   0  0  0  0  0  0  0  0  0  0  0  0
    3.7713   -3.0261    0.0000 H   0  0  0  0  0  0  0  0  0  0  0  0
    3.1669   -3.7153    0.0000 H   0  0  0  0  0  0  0  0  0  0  0  0
   -0.7145   -0.4125    0.0000 H   0  0  0  0  0  0  0  0  0  0  0  0
    1.4289    2.4750    0.0000 H   0  0  0  0  0  0  0  0  0  0  0  0
    0.7145    0.4125    0.0000 H   0  0  0  0  0  0  0  0  0  0  0  0
    3.2704    0.9355    0.0000 H   0  0  0  0  0  0  0  0  0  0  0  0
    3.5724    2.0625    0.0000 H   0  0  0  0  0  0  0  0  0  0  0  0
    2.4454    2.3645    0.0000 H   0  0  0  0  0  0  0  0  0  0  0  0
    2.9082   -0.2230    0.0000 H   0  0  0  0  0  0  0  0  0  0  0  0
    3.3433    0.2768    0.0000 H   0  0  0  0  0  0  0  0  0  0  0  0
    1.7329    0.4661    0.0000 H   0  0  0  0  0  0  0  0  0  0  0  0
    0.9185    1.8087    0.0000 H   0  0  0  0  0  0  0  0  0  0  0  0
    1.2006    1.3200    0.0000 H   0  0  0  0  0  0  0  0  0  0  0  0
    1.9444    2.7489    0.0000 H   0  0  0  0  0  0  0  0  0  0  0  0
   -1.0164    2.3645    0.0000 H   0  0  0  0  0  0  0  0  0  0  0  0
   -2.1434    2.0625    0.0000 H   0  0  0  0  0  0  0  0  0  0  0  0
   -1.8414    0.9355    0.0000 H   0  0  0  0  0  0  0  0  0  0  0  0
    0.2003    1.2975    0.0000 H   0  0  0  0  0  0  0  0  0  0  0  0
    0.4949    2.1655    0.0000 H   0  0  0  0  0  0  0  0  0  0  0  0
   -0.1943    2.7699    0.0000 H   0  0  0  0  0  0  0  0  0  0  0  0
   -1.7815    0.0208    0.0000 H   0  0  0  0  0  0  0  0  0  0  0  0
   -0.9134   -0.2739    0.0000 H   0  0  0  0  0  0  0  0  0  0  0  0
   -0.3090    0.4153    0.0000 H   0  0  0  0  0  0  0  0  0  0  0  0
  1  2  1  0  0  0  0
  2  3  1  0  0  0  0
  2  4  1  0  0  0  0
  4  5  1  0  0  0  0
  5  6  4  0  0  0  0
  6  7  4  0  0  0  0
  7  8  4  0  0  0  0
  8  9  1  0  0  0  0
  8 10  4  0  0  0  0
 10 11  4  0  0  0  0
  5 11  4  0  0  0  0
 10 12  1  0  0  0  0
 12 13  1  0  0  0  0
 12 14  1  0  0  0  0
 12 15  1  0  0  0  0
  7 16  1  0  0  0  0
 16 17  1  0  0  0  0
 16 18  1  0  0  0  0
 16 19  1  0  0  0  0
  2 20  1  0  0  0  0
 20 21  1  0  0  0  0
 21 22  4  0  0  0  0
 22 23  4  0  0  0  0
 23 24  4  0  0  0  0
 24 25  1  0  0  0  0
 24 26  4  0  0  0  0
 26 27  4  0  0  0  0
 21 27  4  0  0  0  0
 26 28  1  0  0  0  0
 28 29  1  0  0  0  0
 28 30  1  0  0  0  0
 28 31  1  0  0  0  0
 23 32  1  0  0  0  0
 32 33  1  0  0  0  0
 32 34  1  0  0  0  0
 32 35  1  0  0  0  0
  1 36  1  0  0  0  0
  1 37  1  0  0  0  0
  1 38  1  0  0  0  0
  3 39  1  0  0  0  0
  3 40  1  0  0  0  0
  3 41  1  0  0  0  0
  6 42  1  0  0  0  0
  9 43  1  0  0  0  0
 11 44  1  0  0  0  0
 13 45  1  0  0  0  0
 13 46  1  0  0  0  0
 13 47  1  0  0  0  0
 14 48  1  0  0  0  0
 14 49  1  0  0  0  0
 14 50  1  0  0  0  0
 15 51  1  0  0  0  0
 15 52  1  0  0  0  0
 15 53  1  0  0  0  0
 17 54  1  0  0  0  0
 17 55  1  0  0  0  0
 17 56  1  0  0  0  0
 18 57  1  0  0  0  0
 18 58  1  0  0  0  0
 18 59  1  0  0  0  0
 19 60  1  0  0  0  0
 19 61  1  0  0  0  0
 19 62  1  0  0  0  0
 22 63  1  0  0  0  0
 25 64  1  0  0  0  0
 27 65  1  0  0  0  0
 29 66  1  0  0  0  0
 29 67  1  0  0  0  0
 29 68  1  0  0  0  0
 30 69  1  0  0  0  0
 30 70  1  0  0  0  0
 30 71  1  0  0  0  0
 31 72  1  0  0  0  0
 31 73  1  0  0  0  0
 31 74  1  0  0  0  0
 33 75  1  0  0  0  0
 33 76  1  0  0  0  0
 33 77  1  0  0  0  0
 34 78  1  0  0  0  0
 34 79  1  0  0  0  0
 34 80  1  0  0  0  0
 35 81  1  0  0  0  0
 35 82  1  0  0  0  0
 35 83  1  0  0  0  0
M  END
>  <InChIKey>
InChI=1S/C31H48O2S2/c1-27(2,3)21-15-19(16-22(25(21)32)28(4,5)6)34-31(13,14)35-20-17-23(29(7,8)9)26(33)24(18-20)30(10,11)12/h15-18,32-33H,1-14H3

>  <CASRN>
23288-49-5

> <Outcome>
0

>  <Index>
1521

>  <StandardizerResult>
Dearomatize (ID: Dearomatize)
Clear Stereo (ID: ClearStereo)
Wedge Clean (ID: WedgeClean)
Mesomerize (ID: Mesomerize)
Tautomerize (ID: Tautomerize)
Aromatize (ID: Aromatize)
Add Explicit Hydrogens (ID: AddExplicitH)
Neutralize (ID: Neutralize)
Clean 2D (ID: Clean2D)

> <knn Distance>
2.82842707633972

> <CpId>
1521

$$$$
1657
  Mrv1532301301811342D          

 23 22  0  0  0  0            999 V2000
   -0.6046   -2.3988    0.0000 C   0  0  0  0  0  0  0  0  0  0  0  0
    0.1099   -1.9863    0.0000 C   0  0  0  0  0  0  0  0  0  0  0  0
    0.1099   -1.1613    0.0000 O   0  0  0  0  0  0  0  0  0  0  0  0
    0.8243   -0.7488    0.0000 C   0  0  0  0  0  0  0  0  0  0  0  0
    1.5388   -1.1613    0.0000 O   0  0  0  0  0  0  0  0  0  0  0  0
    0.8243    0.0762    0.0000 C   0  0  0  0  0  0  0  0  0  0  0  0
    0.8243    0.9012    0.0000 C   0  0  0  0  0  0  0  0  0  0  0  0
    1.6493    0.0762    0.0000 C   0  0  0  0  0  0  0  0  0  0  0  0
   -0.0007    0.0762    0.0000 C   0  0  0  0  0  0  0  0  0  0  0  0
   -1.0171   -1.6843    0.0000 H   0  0  0  0  0  0  0  0  0  0  0  0
   -1.3191   -2.8113    0.0000 H   0  0  0  0  0  0  0  0  0  0  0  0
   -0.1921   -3.1132    0.0000 H   0  0  0  0  0  0  0  0  0  0  0  0
    0.5632   -2.6755    0.0000 H   0  0  0  0  0  0  0  0  0  0  0  0
    0.9335   -2.0342    0.0000 H   0  0  0  0  0  0  0  0  0  0  0  0
    1.6493    0.9012    0.0000 H   0  0  0  0  0  0  0  0  0  0  0  0
    0.8243    1.7262    0.0000 H   0  0  0  0  0  0  0  0  0  0  0  0
   -0.0007    0.9012    0.0000 H   0  0  0  0  0  0  0  0  0  0  0  0
    1.3336   -0.6860    0.0000 H   0  0  0  0  0  0  0  0  0  0  0  0
    2.2327   -0.5071    0.0000 H   0  0  0  0  0  0  0  0  0  0  0  0
    2.4115    0.3919    0.0000 H   0  0  0  0  0  0  0  0  0  0  0  0
   -0.7629    0.3919    0.0000 H   0  0  0  0  0  0  0  0  0  0  0  0
   -0.5840   -0.5071    0.0000 H   0  0  0  0  0  0  0  0  0  0  0  0
    0.3151   -0.6860    0.0000 H   0  0  0  0  0  0  0  0  0  0  0  0
  1  2  1  0  0  0  0
  2  3  1  0  0  0  0
  3  4  1  0  0  0  0
  4  5  2  0  0  0  0
  4  6  1  0  0  0  0
  6  7  1  0  0  0  0
  6  8  1  0  0  0  0
  6  9  1  0  0  0  0
  1 10  1  0  0  0  0
  1 11  1  0  0  0  0
  1 12  1  0  0  0  0
  2 13  1  0  0  0  0
  2 14  1  0  0  0  0
  7 15  1  0  0  0  0
  7 16  1  0  0  0  0
  7 17  1  0  0  0  0
  8 18  1  0  0  0  0
  8 19  1  0  0  0  0
  8 20  1  0  0  0  0
  9 21  1  0  0  0  0
  9 22  1  0  0  0  0
  9 23  1  0  0  0  0
M  END
>  <InChIKey>
InChI=1S/C7H14O2/c1-5-9-6(8)7(2,3)4/h5H2,1-4H3

>  <UN GHS>
Non-irritant

>  <CASRN>
3938-95-2

> <Outcome>
0

>  <Index>
1657

>  <StandardizerResult>
Clear Stereo (ID: ClearStereo)
Wedge Clean (ID: WedgeClean)
Mesomerize (ID: Mesomerize)
Tautomerize (ID: Tautomerize)
Add Explicit Hydrogens (ID: AddExplicitH)
Neutralize (ID: Neutralize)
Clean 2D (ID: Clean2D)

> <knn Distance>
2.82842707633972

> <CpId>
1657

$$$$
1750
  Mrv1532301301811342D          

 29 30  0  0  0  0            999 V2000
    1.3661    0.7845    0.0000 O   0  0  0  0  0  0  0  0  0  0  0  0
    1.3661   -0.0405    0.0000 C   0  0  0  0  0  0  0  0  0  0  0  0
    0.6516   -0.4530    0.0000 O   0  0  0  0  0  0  0  0  0  0  0  0
    2.0805   -0.4530    0.0000 C   0  0  0  0  0  0  0  0  0  0  0  0
    2.0805   -1.2780    0.0000 C   0  0  0  0  0  0  0  0  0  0  0  0
    1.3661   -1.6905    0.0000 C   0  0  0  0  0  0  0  0  0  0  0  0
    1.3661   -2.5155    0.0000 C   0  0  0  0  0  0  0  0  0  0  0  0
    2.0805   -2.9280    0.0000 C   0  0  0  0  0  0  0  0  0  0  0  0
    2.7950   -2.5155    0.0000 C   0  0  0  0  0  0  0  0  0  0  0  0
    2.7950   -1.6905    0.0000 C   0  0  0  0  0  0  0  0  0  0  0  0
    3.5095   -1.2780    0.0000 O   0  0  0  0  0  0  0  0  0  0  0  0
    4.2240   -1.6905    0.0000 C   0  0  0  0  0  0  0  0  0  0  0  0
    4.9384   -1.2780    0.0000 C   0  0  0  0  0  0  0  0  0  0  0  0
    5.6529   -1.6905    0.0000 C   0  0  0  0  0  0  0  0  0  0  0  0
    5.6529   -2.5155    0.0000 C   0  0  0  0  0  0  0  0  0  0  0  0
    6.3674   -2.9280    0.0000 Cl  0  0  0  0  0  0  0  0  0  0  0  0
    4.9384   -2.9280    0.0000 C   0  0  0  0  0  0  0  0  0  0  0  0
    4.2240   -2.5155    0.0000 C   0  0  0  0  0  0  0  0  0  0  0  0
    3.5095   -2.9280    0.0000 Cl  0  0  0  0  0  0  0  0  0  0  0  0
    2.0805    1.1970    0.0000 H   0  0  0  0  0  0  0  0  0  0  0  0
    2.9041   -0.4050    0.0000 H   0  0  0  0  0  0  0  0  0  0  0  0
    2.5339    0.2363    0.0000 H   0  0  0  0  0  0  0  0  0  0  0  0
    0.6516   -1.2780    0.0000 H   0  0  0  0  0  0  0  0  0  0  0  0
    0.6516   -2.9280    0.0000 H   0  0  0  0  0  0  0  0  0  0  0  0
    2.0805   -3.7530    0.0000 H   0  0  0  0  0  0  0  0  0  0  0  0
    3.5095   -2.1030    0.0000 H   0  0  0  0  0  0  0  0  0  0  0  0
    4.9384   -0.4530    0.0000 H   0  0  0  0  0  0  0  0  0  0  0  0
    6.3674   -1.2780    0.0000 H   0  0  0  0  0  0  0  0  0  0  0  0
    4.9384   -3.7530    0.0000 H   0  0  0  0  0  0  0  0  0  0  0  0
  1  2  1  0  0  0  0
  2  3  2  0  0  0  0
  2  4  1  0  0  0  0
  4  5  1  0  0  0  0
  5  6  4  0  0  0  0
  6  7  4  0  0  0  0
  7  8  4  0  0  0  0
  8  9  4  0  0  0  0
  9 10  4  0  0  0  0
  5 10  4  0  0  0  0
 10 11  1  0  0  0  0
 11 12  1  0  0  0  0
 12 13  4  0  0  0  0
 13 14  4  0  0  0  0
 14 15  4  0  0  0  0
 15 16  1  0  0  0  0
 15 17  4  0  0  0  0
 17 18  4  0  0  0  0
 12 18  4  0  0  0  0
 18 19  1  0  0  0  0
  1 20  1  0  0  0  0
  4 21  1  0  0  0  0
  4 22  1  0  0  0  0
  6 23  1  0  0  0  0
  7 24  1  0  0  0  0
  8 25  1  0  0  0  0
  9 26  1  0  0  0  0
 13 27  1  0  0  0  0
 14 28  1  0  0  0  0
 17 29  1  0  0  0  0
M  END
>  <InChIKey>
InChI=1S/C14H10Cl2O3/c15-10-5-6-13(11(16)8-10)19-12-4-2-1-3-9(12)7-14(17)18/h1-6,8H,7H2,(H,17,18)

>  <CASRN>
34645-84-6

> <Outcome>
0

>  <Index>
1750

>  <StandardizerResult>
Dearomatize (ID: Dearomatize)
Clear Stereo (ID: ClearStereo)
Wedge Clean (ID: WedgeClean)
Mesomerize (ID: Mesomerize)
Tautomerize (ID: Tautomerize)
Aromatize (ID: Aromatize)
Add Explicit Hydrogens (ID: AddExplicitH)
Neutralize (ID: Neutralize)
Clean 2D (ID: Clean2D)

> <knn Distance>
2.82842707633972

> <CpId>
1750

$$$$
2015
  Mrv1532301301811342D          

 22 23  0  0  0  0            999 V2000
    1.4289   -2.4750    0.0000 N   0  0  0  0  0  0  0  0  0  0  0  0
    1.4289   -1.6500    0.0000 C   0  0  0  0  0  0  0  0  0  0  0  0
    0.7145   -1.2375    0.0000 C   0  0  0  0  0  0  0  0  0  0  0  0
    0.7145   -0.4125    0.0000 C   0  0  0  0  0  0  0  0  0  0  0  0
    1.4289   -0.0000    0.0000 C   0  0  0  0  0  0  0  0  0  0  0  0
    2.1434   -0.4125    0.0000 C   0  0  0  0  0  0  0  0  0  0  0  0
    2.8579   -0.0000    0.0000 C   0  0  0  0  0  0  0  0  0  0  0  0
    2.8579    0.8250    0.0000 N   0  0  0  0  0  0  0  0  0  0  0  0
    3.5724   -0.4125    0.0000 C   0  0  0  0  0  0  0  0  0  0  0  0
    3.5724   -1.2375    0.0000 C   0  0  0  0  0  0  0  0  0  0  0  0
    2.8579   -1.6500    0.0000 C   0  0  0  0  0  0  0  0  0  0  0  0
    2.1434   -1.2375    0.0000 C   0  0  0  0  0  0  0  0  0  0  0  0
    0.7145   -2.8875    0.0000 H   0  0  0  0  0  0  0  0  0  0  0  0
    2.1434   -2.8875    0.0000 H   0  0  0  0  0  0  0  0  0  0  0  0
    0.0000   -1.6500    0.0000 H   0  0  0  0  0  0  0  0  0  0  0  0
    0.0000   -0.0000    0.0000 H   0  0  0  0  0  0  0  0  0  0  0  0
    1.4289    0.8250    0.0000 H   0  0  0  0  0  0  0  0  0  0  0  0
    3.5724    1.2375    0.0000 H   0  0  0  0  0  0  0  0  0  0  0  0
    2.1434    1.2375    0.0000 H   0  0  0  0  0  0  0  0  0  0  0  0
    4.2868   -0.0000    0.0000 H   0  0  0  0  0  0  0  0  0  0  0  0
    4.2868   -1.6500    0.0000 H   0  0  0  0  0  0  0  0  0  0  0  0
    2.8579   -2.4750    0.0000 H   0  0  0  0  0  0  0  0  0  0  0  0
  1  2  1  0  0  0  0
  2  3  4  0  0  0  0
  3  4  4  0  0  0  0
  4  5  4  0  0  0  0
  5  6  4  0  0  0  0
  6  7  4  0  0  0  0
  7  8  1  0  0  0  0
  7  9  4  0  0  0  0
  9 10  4  0  0  0  0
 10 11  4  0  0  0  0
 11 12  4  0  0  0  0
  2 12  4  0  0  0  0
  6 12  4  0  0  0  0
  1 13  1  0  0  0  0
  1 14  1  0  0  0  0
  3 15  1  0  0  0  0
  4 16  1  0  0  0  0
  5 17  1  0  0  0  0
  8 18  1  0  0  0  0
  8 19  1  0  0  0  0
  9 20  1  0  0  0  0
 10 21  1  0  0  0  0
 11 22  1  0  0  0  0
M  END
>  <InChIKey>
InChI=1S/C10H10N2/c11-9-5-1-3-7-8(9)4-2-6-10(7)12/h1-6H,11-12H2

>  <CASRN>
2243-62-1

> <Outcome>
0

>  <Index>
2015

>  <StandardizerResult>
Dearomatize (ID: Dearomatize)
Clear Stereo (ID: ClearStereo)
Wedge Clean (ID: WedgeClean)
Mesomerize (ID: Mesomerize)
Tautomerize (ID: Tautomerize)
Aromatize (ID: Aromatize)
Add Explicit Hydrogens (ID: AddExplicitH)
Neutralize (ID: Neutralize)
Clean 2D (ID: Clean2D)

> <knn Distance>
2.82842707633972

> <CpId>
2015

$$$$
2116
  Mrv1532301301811342D          

  9  9  0  0  0  0            999 V2000
    0.2382    0.8888    0.0000 C   0  0  0  0  0  0  0  0  0  0  0  0
    0.6507    0.1743    0.0000 C   0  0  0  0  0  0  0  0  0  0  0  0
   -0.1743    0.1743    0.0000 C   0  0  0  0  0  0  0  0  0  0  0  0
    0.6915    1.5781    0.0000 H   0  0  0  0  0  0  0  0  0  0  0  0
   -0.2151    1.5781    0.0000 H   0  0  0  0  0  0  0  0  0  0  0  0
    1.0210   -0.5629    0.0000 H   0  0  0  0  0  0  0  0  0  0  0  0
    1.4743    0.2223    0.0000 H   0  0  0  0  0  0  0  0  0  0  0  0
   -0.9979    0.2223    0.0000 H   0  0  0  0  0  0  0  0  0  0  0  0
   -0.5446   -0.5629    0.0000 H   0  0  0  0  0  0  0  0  0  0  0  0
  1  2  1  0  0  0  0
  2  3  1  0  0  0  0
  1  3  1  0  0  0  0
  1  4  1  0  0  0  0
  1  5  1  0  0  0  0
  2  6  1  0  0  0  0
  2  7  1  0  0  0  0
  3  8  1  0  0  0  0
  3  9  1  0  0  0  0
M  END
>  <InChIKey>
InChI=1S/C3H6/c1-2-3-1/h1-3H2

>  <CASRN>
75-19-4

> <Outcome>
0

>  <Index>
2116

>  <StandardizerResult>
Mesomerize (ID: Mesomerize)
Tautomerize (ID: Tautomerize)
Add Explicit Hydrogens (ID: AddExplicitH)
Neutralize (ID: Neutralize)
Clean 2D (ID: Clean2D)

> <knn Distance>
2.82842707633972

> <CpId>
2116

$$$$
2119
  Mrv1532301301811342D          

 20 21  0  0  0  0            999 V2000
   -0.2315   -2.9112    0.0000 Cl  0  0  0  0  0  0  0  0  0  0  0  0
    0.2534   -2.2438    0.0000 C   0  0  0  0  0  0  0  0  0  0  0  0
   -0.0015   -1.4592    0.0000 C   0  0  0  0  0  0  0  0  0  0  0  0
   -0.7861   -1.2042    0.0000 Cl  0  0  0  0  0  0  0  0  0  0  0  0
    0.6659   -0.9743    0.0000 C   0  0  0  0  0  0  0  0  0  0  0  0
    0.1139   -0.3612    0.0000 Cl  0  0  0  0  0  0  0  0  0  0  0  0
    1.3334   -1.4592    0.0000 C   0  0  0  0  0  0  0  0  0  0  0  0
    2.1180   -1.2042    0.0000 Cl  0  0  0  0  0  0  0  0  0  0  0  0
    1.0784   -2.2438    0.0000 C   0  0  0  0  0  0  0  0  0  0  0  0
    1.5634   -2.9112    0.0000 Cl  0  0  0  0  0  0  0  0  0  0  0  0
    1.2180   -0.3612    0.0000 C   0  0  0  0  0  0  0  0  0  0  0  0
    1.7700   -0.9743    0.0000 Cl  0  0  0  0  0  0  0  0  0  0  0  0
    0.5505    0.1238    0.0000 C   0  0  0  0  0  0  0  0  0  0  0  0
   -0.2341   -0.1312    0.0000 Cl  0  0  0  0  0  0  0  0  0  0  0  0
    0.8055    0.9084    0.0000 C   0  0  0  0  0  0  0  0  0  0  0  0
    0.3205    1.5758    0.0000 Cl  0  0  0  0  0  0  0  0  0  0  0  0
    1.6305    0.9084    0.0000 C   0  0  0  0  0  0  0  0  0  0  0  0
    2.1154    1.5758    0.0000 Cl  0  0  0  0  0  0  0  0  0  0  0  0
    1.8854    0.1238    0.0000 C   0  0  0  0  0  0  0  0  0  0  0  0
    2.6700   -0.1312    0.0000 Cl  0  0  0  0  0  0  0  0  0  0  0  0
  1  2  1  0  0  0  0
  2  3  2  0  0  0  0
  3  4  1  0  0  0  0
  3  5  1  0  0  0  0
  5  6  1  0  0  0  0
  5  7  1  0  0  0  0
  7  8  1  0  0  0  0
  7  9  2  0  0  0  0
  2  9  1  0  0  0  0
  9 10  1  0  0  0  0
  5 11  1  0  0  0  0
 11 12  1  0  0  0  0
 11 13  1  0  0  0  0
 13 14  1  0  0  0  0
 13 15  2  0  0  0  0
 15 16  1  0  0  0  0
 15 17  1  0  0  0  0
 17 18  1  0  0  0  0
 17 19  2  0  0  0  0
 11 19  1  0  0  0  0
 19 20  1  0  0  0  0
M  END
>  <InChIKey>
InChI=1S/C10Cl10/c11-1-2(12)6(16)9(19,5(1)15)10(20)7(17)3(13)4(14)8(10)18

>  <CASRN>
2227-17-0

> <Outcome>
0

>  <Index>
2119

>  <StandardizerResult>
Clear Stereo (ID: ClearStereo)
Wedge Clean (ID: WedgeClean)
Mesomerize (ID: Mesomerize)
Tautomerize (ID: Tautomerize)
Clean 2D (ID: Clean2D)

> <knn Distance>
2.82842707633972

> <CpId>
2119

$$$$
2129
  Mrv1532301301811342D          

 10  9  0  0  0  0            999 V2000
    2.0625   -0.7145    0.0000 O   0  0  0  0  0  0  0  0  0  0  0  0
    1.2375   -0.7145    0.0000 C   0  0  0  0  0  0  0  0  0  0  0  0
    0.8250   -0.0000    0.0000 C   0  0  0  0  0  0  0  0  0  0  0  0
    0.0000   -0.0000    0.0000 O   0  0  0  0  0  0  0  0  0  0  0  0
    2.4750   -1.4290    0.0000 H   0  0  0  0  0  0  0  0  0  0  0  0
    0.5482   -1.1678    0.0000 H   0  0  0  0  0  0  0  0  0  0  0  0
    1.1895   -1.5381    0.0000 H   0  0  0  0  0  0  0  0  0  0  0  0
    1.5143    0.4533    0.0000 H   0  0  0  0  0  0  0  0  0  0  0  0
    0.8730    0.8236    0.0000 H   0  0  0  0  0  0  0  0  0  0  0  0
   -0.4125    0.7145    0.0000 H   0  0  0  0  0  0  0  0  0  0  0  0
  1  2  1  0  0  0  0
  2  3  1  0  0  0  0
  3  4  1  0  0  0  0
  1  5  1  0  0  0  0
  2  6  1  0  0  0  0
  2  7  1  0  0  0  0
  3  8  1  0  0  0  0
  3  9  1  0  0  0  0
  4 10  1  0  0  0  0
M  END
>  <InChIKey>
InChI=1S/C2H6O2/c3-1-2-4/h3-4H,1-2H2

>  <UN GHS>
Non-irritant

>  <CASRN>
107-21-1 25322-68-3

> <Outcome>
0

>  <Index>
2129

>  <StandardizerResult>
Clear Stereo (ID: ClearStereo)
Wedge Clean (ID: WedgeClean)
Mesomerize (ID: Mesomerize)
Tautomerize (ID: Tautomerize)
Add Explicit Hydrogens (ID: AddExplicitH)
Neutralize (ID: Neutralize)
Clean 2D (ID: Clean2D)

> <knn Distance>
2.82842707633972

> <CpId>
2129

$$$$
2281
  Mrv1532301301811342D          

 26 25  0  0  0  0            999 V2000
    1.7021    1.8631    0.0000 C   0  0  0  0  0  0  0  0  0  0  0  0
    2.4166    1.4506    0.0000 C   0  0  0  0  0  0  0  0  0  0  0  0
    3.1310    1.8631    0.0000 C   0  0  0  0  0  0  0  0  0  0  0  0
    3.8455    1.4506    0.0000 C   0  0  0  0  0  0  0  0  0  0  0  0
    4.5600    1.8631    0.0000 C   0  0  0  0  0  0  0  0  0  0  0  0
    5.2745    1.4506    0.0000 C   0  0  0  0  0  0  0  0  0  0  0  0
    5.9889    1.8631    0.0000 C   0  0  0  0  0  0  0  0  0  0  0  0
    3.8455    0.6256    0.0000 C   0  0  0  0  0  0  0  0  0  0  0  0
    4.5600    0.2131    0.0000 O   0  0  0  0  0  0  0  0  0  0  0  0
    3.1310    0.2131    0.0000 O   0  0  0  0  0  0  0  0  0  0  0  0
    2.1146    2.5776    0.0000 H   0  0  0  0  0  0  0  0  0  0  0  0
    0.9876    2.2756    0.0000 H   0  0  0  0  0  0  0  0  0  0  0  0
    1.2896    1.1486    0.0000 H   0  0  0  0  0  0  0  0  0  0  0  0
    2.0463    0.7134    0.0000 H   0  0  0  0  0  0  0  0  0  0  0  0
    2.7868    0.7134    0.0000 H   0  0  0  0  0  0  0  0  0  0  0  0
    3.5013    2.6004    0.0000 H   0  0  0  0  0  0  0  0  0  0  0  0
    2.7608    2.6004    0.0000 H   0  0  0  0  0  0  0  0  0  0  0  0
    3.8455    2.2756    0.0000 H   0  0  0  0  0  0  0  0  0  0  0  0
    5.1920    2.3934    0.0000 H   0  0  0  0  0  0  0  0  0  0  0  0
    4.7032    2.6756    0.0000 H   0  0  0  0  0  0  0  0  0  0  0  0
    4.9042    0.7134    0.0000 H   0  0  0  0  0  0  0  0  0  0  0  0
    5.6447    0.7134    0.0000 H   0  0  0  0  0  0  0  0  0  0  0  0
    6.1898    1.0629    0.0000 H   0  0  0  0  0  0  0  0  0  0  0  0
    6.8135    1.8369    0.0000 H   0  0  0  0  0  0  0  0  0  0  0  0
    6.2402    2.6489    0.0000 H   0  0  0  0  0  0  0  0  0  0  0  0
    4.7418   -0.5916    0.0000 H   0  0  0  0  0  0  0  0  0  0  0  0
  1  2  1  0  0  0  0
  2  3  1  0  0  0  0
  3  4  1  0  0  0  0
  4  5  1  0  0  0  0
  5  6  1  0  0  0  0
  6  7  1  0  0  0  0
  4  8  1  0  0  0  0
  8  9  1  0  0  0  0
  8 10  2  0  0  0  0
  1 11  1  0  0  0  0
  1 12  1  0  0  0  0
  1 13  1  0  0  0  0
  2 14  1  0  0  0  0
  2 15  1  0  0  0  0
  3 16  1  0  0  0  0
  3 17  1  0  0  0  0
  4 18  1  0  0  0  0
  5 19  1  0  0  0  0
  5 20  1  0  0  0  0
  6 21  1  0  0  0  0
  6 22  1  0  0  0  0
  7 23  1  0  0  0  0
  7 24  1  0  0  0  0
  7 25  1  0  0  0  0
  9 26  1  0  0  0  0
M  END
>  <InChIKey>
InChI=1S/C8H16O2/c1-3-5-7(6-4-2)8(9)10/h7H,3-6H2,1-2H3,(H,9,10)

>  <CASRN>
99-66-1

> <Outcome>
0

>  <Index>
2281

>  <StandardizerResult>
Clear Stereo (ID: ClearStereo)
Wedge Clean (ID: WedgeClean)
Mesomerize (ID: Mesomerize)
Tautomerize (ID: Tautomerize)
Add Explicit Hydrogens (ID: AddExplicitH)
Neutralize (ID: Neutralize)
Clean 2D (ID: Clean2D)

> <knn Distance>
2.82842707633972

> <CpId>
2281

$$$$
2426
  Mrv1532301301811342D          

 48 47  0  0  0  0            999 V2000
    2.7937    0.8757    0.0000 C   0  0  0  0  0  0  0  0  0  0  0  0
    3.6038    0.7198    0.0000 C   0  0  0  0  0  0  0  0  0  0  0  0
    3.8738   -0.0597    0.0000 C   0  0  0  0  0  0  0  0  0  0  0  0
    4.1439    1.3435    0.0000 C   0  0  0  0  0  0  0  0  0  0  0  0
    4.9540    1.1876    0.0000 C   0  0  0  0  0  0  0  0  0  0  0  0
    5.2241    0.4080    0.0000 O   0  0  0  0  0  0  0  0  0  0  0  0
    5.4941    1.8112    0.0000 C   0  0  0  0  0  0  0  0  0  0  0  0
    6.3042    1.6553    0.0000 C   0  0  0  0  0  0  0  0  0  0  0  0
    6.8443    2.2789    0.0000 C   0  0  0  0  0  0  0  0  0  0  0  0
    6.5743    3.0585    0.0000 C   0  0  0  0  0  0  0  0  0  0  0  0
    5.7642    3.2144    0.0000 C   0  0  0  0  0  0  0  0  0  0  0  0
    7.1144    3.6821    0.0000 C   0  0  0  0  0  0  0  0  0  0  0  0
    6.5743    0.8757    0.0000 C   0  0  0  0  0  0  0  0  0  0  0  0
    7.3844    0.7198    0.0000 C   0  0  0  0  0  0  0  0  0  0  0  0
    7.9245    1.3435    0.0000 C   0  0  0  0  0  0  0  0  0  0  0  0
    7.6545   -0.0597    0.0000 C   0  0  0  0  0  0  0  0  0  0  0  0
    2.9496    1.6859    0.0000 H   0  0  0  0  0  0  0  0  0  0  0  0
    1.9835    1.0317    0.0000 H   0  0  0  0  0  0  0  0  0  0  0  0
    2.6378    0.0656    0.0000 H   0  0  0  0  0  0  0  0  0  0  0  0
    3.0637    0.0962    0.0000 H   0  0  0  0  0  0  0  0  0  0  0  0
    3.5136   -0.8019    0.0000 H   0  0  0  0  0  0  0  0  0  0  0  0
    4.4975   -0.5998    0.0000 H   0  0  0  0  0  0  0  0  0  0  0  0
    4.5569    0.4029    0.0000 H   0  0  0  0  0  0  0  0  0  0  0  0
    4.2524    2.1613    0.0000 H   0  0  0  0  0  0  0  0  0  0  0  0
    3.5527    1.9189    0.0000 H   0  0  0  0  0  0  0  0  0  0  0  0
    5.7642    1.0317    0.0000 H   0  0  0  0  0  0  0  0  0  0  0  0
    5.5698   -0.3411    0.0000 H   0  0  0  0  0  0  0  0  0  0  0  0
    5.6027    2.6290    0.0000 H   0  0  0  0  0  0  0  0  0  0  0  0
    4.9029    2.3866    0.0000 H   0  0  0  0  0  0  0  0  0  0  0  0
    6.0342    2.4349    0.0000 H   0  0  0  0  0  0  0  0  0  0  0  0
    7.4983    1.7760    0.0000 H   0  0  0  0  0  0  0  0  0  0  0  0
    7.6383    2.5032    0.0000 H   0  0  0  0  0  0  0  0  0  0  0  0
    6.3042    3.8380    0.0000 H   0  0  0  0  0  0  0  0  0  0  0  0
    5.6142    4.0257    0.0000 H   0  0  0  0  0  0  0  0  0  0  0  0
    5.0368    3.6037    0.0000 H   0  0  0  0  0  0  0  0  0  0  0  0
    5.0059    2.8893    0.0000 H   0  0  0  0  0  0  0  0  0  0  0  0
    7.5770    2.9990    0.0000 H   0  0  0  0  0  0  0  0  0  0  0  0
    7.8939    3.9522    0.0000 H   0  0  0  0  0  0  0  0  0  0  0  0
    7.0553    4.5050    0.0000 H   0  0  0  0  0  0  0  0  0  0  0  0
    6.1507    0.1678    0.0000 H   0  0  0  0  0  0  0  0  0  0  0  0
    6.7049    0.0611    0.0000 H   0  0  0  0  0  0  0  0  0  0  0  0
    7.1144    1.4994    0.0000 H   0  0  0  0  0  0  0  0  0  0  0  0
    8.2793    0.5987    0.0000 H   0  0  0  0  0  0  0  0  0  0  0  0
    8.7491    1.3700    0.0000 H   0  0  0  0  0  0  0  0  0  0  0  0
    8.2308    2.1095    0.0000 H   0  0  0  0  0  0  0  0  0  0  0  0
    7.1373   -0.7025    0.0000 H   0  0  0  0  0  0  0  0  0  0  0  0
    7.9315   -0.8368    0.0000 H   0  0  0  0  0  0  0  0  0  0  0  0
    8.4616   -0.2304    0.0000 H   0  0  0  0  0  0  0  0  0  0  0  0
  1  2  1  0  0  0  0
  2  3  1  0  0  0  0
  2  4  1  0  0  0  0
  4  5  1  0  0  0  0
  5  6  1  0  0  0  0
  5  7  1  0  0  0  0
  7  8  1  0  0  0  0
  8  9  1  0  0  0  0
  9 10  1  0  0  0  0
 10 11  1  0  0  0  0
 10 12  1  0  0  0  0
  8 13  1  0  0  0  0
 13 14  1  0  0  0  0
 14 15  1  0  0  0  0
 14 16  1  0  0  0  0
  1 17  1  0  0  0  0
  1 18  1  0  0  0  0
  1 19  1  0  0  0  0
  2 20  1  0  0  0  0
  3 21  1  0  0  0  0
  3 22  1  0  0  0  0
  3 23  1  0  0  0  0
  4 24  1  0  0  0  0
  4 25  1  0  0  0  0
  5 26  1  0  0  0  0
  6 27  1  0  0  0  0
  7 28  1  0  0  0  0
  7 29  1  0  0  0  0
  8 30  1  0  0  0  0
  9 31  1  0  0  0  0
  9 32  1  0  0  0  0
 10 33  1  0  0  0  0
 11 34  1  0  0  0  0
 11 35  1  0  0  0  0
 11 36  1  0  0  0  0
 12 37  1  0  0  0  0
 12 38  1  0  0  0  0
 12 39  1  0  0  0  0
 13 40  1  0  0  0  0
 13 41  1  0  0  0  0
 14 42  1  0  0  0  0
 15 43  1  0  0  0  0
 15 44  1  0  0  0  0
 15 45  1  0  0  0  0
 16 46  1  0  0  0  0
 16 47  1  0  0  0  0
 16 48  1  0  0  0  0
M  END
>  <InChIKey>
InChI=1S/C15H32O/c1-11(2)7-14(8-12(3)4)10-15(16)9-13(5)6/h11-16H,7-10H2,1-6H3

>  <CASRN>
10143-20-1

> <Outcome>
0

>  <Index>
2426

>  <StandardizerResult>
Clear Stereo (ID: ClearStereo)
Wedge Clean (ID: WedgeClean)
Mesomerize (ID: Mesomerize)
Tautomerize (ID: Tautomerize)
Add Explicit Hydrogens (ID: AddExplicitH)
Neutralize (ID: Neutralize)
Clean 2D (ID: Clean2D)

> <knn Distance>
2.82842707633972

> <CpId>
2426

$$$$
2440
  Mrv1532301301811342D          

 33 32  0  0  0  0            999 V2000
    2.2551    2.1429    0.0000 C   0  0  0  0  0  0  0  0  0  0  0  0
    2.9696    2.5554    0.0000 C   0  0  0  0  0  0  0  0  0  0  0  0
    3.6840    2.1429    0.0000 C   0  0  0  0  0  0  0  0  0  0  0  0
    4.3985    2.5554    0.0000 C   0  0  0  0  0  0  0  0  0  0  0  0
    5.1130    2.1429    0.0000 C   0  0  0  0  0  0  0  0  0  0  0  0
    5.1130    1.3179    0.0000 C   0  0  0  0  0  0  0  0  0  0  0  0
    5.8275    0.9054    0.0000 C   0  0  0  0  0  0  0  0  0  0  0  0
    5.8275    2.5554    0.0000 C   0  0  0  0  0  0  0  0  0  0  0  0
    6.5419    2.1429    0.0000 O   0  0  0  0  0  0  0  0  0  0  0  0
    7.2564    2.5554    0.0000 C   0  0  0  0  0  0  0  0  0  0  0  0
    7.2564    3.3804    0.0000 O   0  0  0  0  0  0  0  0  0  0  0  0
    7.9709    2.1429    0.0000 C   0  0  0  0  0  0  0  0  0  0  0  0
    8.6853    2.5554    0.0000 S   0  0  0  0  0  0  0  0  0  0  0  0
    1.8426    2.8574    0.0000 H   0  0  0  0  0  0  0  0  0  0  0  0
    1.5406    1.7304    0.0000 H   0  0  0  0  0  0  0  0  0  0  0  0
    2.6676    1.4284    0.0000 H   0  0  0  0  0  0  0  0  0  0  0  0
    3.3398    3.2927    0.0000 H   0  0  0  0  0  0  0  0  0  0  0  0
    2.5993    3.2927    0.0000 H   0  0  0  0  0  0  0  0  0  0  0  0
    3.3138    1.4057    0.0000 H   0  0  0  0  0  0  0  0  0  0  0  0
    4.0543    1.4057    0.0000 H   0  0  0  0  0  0  0  0  0  0  0  0
    4.7688    3.2927    0.0000 H   0  0  0  0  0  0  0  0  0  0  0  0
    4.0283    3.2927    0.0000 H   0  0  0  0  0  0  0  0  0  0  0  0
    4.3985    1.7304    0.0000 H   0  0  0  0  0  0  0  0  0  0  0  0
    4.4810    0.7876    0.0000 H   0  0  0  0  0  0  0  0  0  0  0  0
    4.9697    0.5054    0.0000 H   0  0  0  0  0  0  0  0  0  0  0  0
    5.9884    0.0963    0.0000 H   0  0  0  0  0  0  0  0  0  0  0  0
    6.6517    0.8694    0.0000 H   0  0  0  0  0  0  0  0  0  0  0  0
    6.0583    1.6975    0.0000 H   0  0  0  0  0  0  0  0  0  0  0  0
    6.1977    3.2927    0.0000 H   0  0  0  0  0  0  0  0  0  0  0  0
    5.4572    3.2927    0.0000 H   0  0  0  0  0  0  0  0  0  0  0  0
    7.6006    1.4057    0.0000 H   0  0  0  0  0  0  0  0  0  0  0  0
    8.3411    1.4057    0.0000 H   0  0  0  0  0  0  0  0  0  0  0  0
    9.3998    2.1429    0.0000 H   0  0  0  0  0  0  0  0  0  0  0  0
  1  2  1  0  0  0  0
  2  3  1  0  0  0  0
  3  4  1  0  0  0  0
  4  5  1  0  0  0  0
  5  6  1  0  0  0  0
  6  7  1  0  0  0  0
  5  8  1  0  0  0  0
  8  9  1  0  0  0  0
  9 10  1  0  0  0  0
 10 11  2  0  0  0  0
 10 12  1  0  0  0  0
 12 13  1  0  0  0  0
  1 14  1  0  0  0  0
  1 15  1  0  0  0  0
  1 16  1  0  0  0  0
  2 17  1  0  0  0  0
  2 18  1  0  0  0  0
  3 19  1  0  0  0  0
  3 20  1  0  0  0  0
  4 21  1  0  0  0  0
  4 22  1  0  0  0  0
  5 23  1  0  0  0  0
  6 24  1  0  0  0  0
  6 25  1  0  0  0  0
  7 26  1  0  0  0  0
  7 27  1  0  0  0  0
  7 28  1  0  0  0  0
  8 29  1  0  0  0  0
  8 30  1  0  0  0  0
 12 31  1  0  0  0  0
 12 32  1  0  0  0  0
 13 33  1  0  0  0  0
M  END
>  <InChIKey>
InChI=1S/C10H20O2S/c1-3-5-6-9(4-2)7-12-10(11)8-13/h9,13H,3-8H2,1-2H3

> <Outcome>
0

>  <Index>
2440

>  <StandardizerResult>
Clear Stereo (ID: ClearStereo)
Wedge Clean (ID: WedgeClean)
Mesomerize (ID: Mesomerize)
Tautomerize (ID: Tautomerize)
Add Explicit Hydrogens (ID: AddExplicitH)
Neutralize (ID: Neutralize)
Clean 2D (ID: Clean2D)

> <knn Distance>
2.82842707633972

> <CpId>
2440

$$$$
2517
  Mrv1532301301811342D          

 14 14  0  0  0  0            999 V2000
    0.7145    2.0625    0.0000 N   0  0  0  0  0  0  0  0  0  0  0  0
    0.7145    1.2375    0.0000 C   0  0  0  0  0  0  0  0  0  0  0  0
    1.4289    0.8250    0.0000 C   0  0  0  0  0  0  0  0  0  0  0  0
    1.4289    0.0000    0.0000 C   0  0  0  0  0  0  0  0  0  0  0  0
    0.7145   -0.4125    0.0000 C   0  0  0  0  0  0  0  0  0  0  0  0
    0.0000    0.0000    0.0000 C   0  0  0  0  0  0  0  0  0  0  0  0
   -0.7145   -0.4125    0.0000 Cl  0  0  0  0  0  0  0  0  0  0  0  0
    0.0000    0.8250    0.0000 C   0  0  0  0  0  0  0  0  0  0  0  0
    1.4289    2.4750    0.0000 H   0  0  0  0  0  0  0  0  0  0  0  0
    0.0000    2.4750    0.0000 H   0  0  0  0  0  0  0  0  0  0  0  0
    2.1434    1.2375    0.0000 H   0  0  0  0  0  0  0  0  0  0  0  0
    2.1434   -0.4125    0.0000 H   0  0  0  0  0  0  0  0  0  0  0  0
    0.7145   -1.2375    0.0000 H   0  0  0  0  0  0  0  0  0  0  0  0
   -0.7145    1.2375    0.0000 H   0  0  0  0  0  0  0  0  0  0  0  0
  1  2  1  0  0  0  0
  2  3  4  0  0  0  0
  3  4  4  0  0  0  0
  4  5  4  0  0  0  0
  5  6  4  0  0  0  0
  6  7  1  0  0  0  0
  6  8  4  0  0  0  0
  2  8  4  0  0  0  0
  1  9  1  0  0  0  0
  1 10  1  0  0  0  0
  3 11  1  0  0  0  0
  4 12  1  0  0  0  0
  5 13  1  0  0  0  0
  8 14  1  0  0  0  0
M  END
>  <InChIKey>
InChI=1S/C6H6ClN/c7-5-2-1-3-6(8)4-5/h1-4H,8H2

>  <CASRN>
108-42-9

> <Outcome>
0

>  <Index>
2517

>  <StandardizerResult>
Dearomatize (ID: Dearomatize)
Clear Stereo (ID: ClearStereo)
Wedge Clean (ID: WedgeClean)
Mesomerize (ID: Mesomerize)
Tautomerize (ID: Tautomerize)
Aromatize (ID: Aromatize)
Add Explicit Hydrogens (ID: AddExplicitH)
Neutralize (ID: Neutralize)
Clean 2D (ID: Clean2D)

> <knn Distance>
2.82842707633972

> <CpId>
2517

$$$$
2581
  Mrv1532301301811342D          

 64 63  0  0  0  0            999 V2000
    6.1925   -5.9223    0.0000 C   0  0  0  0  0  0  0  0  0  0  0  0
    6.3484   -5.1122    0.0000 C   0  0  0  0  0  0  0  0  0  0  0  0
    7.1280   -4.8421    0.0000 O   0  0  0  0  0  0  0  0  0  0  0  0
    7.2839   -4.0320    0.0000 C   0  0  0  0  0  0  0  0  0  0  0  0
    8.0634   -3.7619    0.0000 C   0  0  0  0  0  0  0  0  0  0  0  0
    8.2193   -2.9518    0.0000 P   0  0  0  0  0  0  0  0  0  0  0  0
    7.5957   -2.4117    0.0000 C   0  0  0  0  0  0  0  0  0  0  0  0
    6.8161   -2.6818    0.0000 C   0  0  0  0  0  0  0  0  0  0  0  0
    6.1925   -2.1417    0.0000 O   0  0  0  0  0  0  0  0  0  0  0  0
    5.4129   -2.4117    0.0000 C   0  0  0  0  0  0  0  0  0  0  0  0
    4.7893   -1.8716    0.0000 C   0  0  0  0  0  0  0  0  0  0  0  0
    8.9989   -2.6818    0.0000 C   0  0  0  0  0  0  0  0  0  0  0  0
    9.1548   -1.8716    0.0000 C   0  0  0  0  0  0  0  0  0  0  0  0
    9.9343   -1.6016    0.0000 P   0  0  0  0  0  0  0  0  0  0  0  0
   10.0903   -0.7915    0.0000 C   0  0  0  0  0  0  0  0  0  0  0  0
   10.8698   -0.5214    0.0000 C   0  0  0  0  0  0  0  0  0  0  0  0
   11.0257    0.2887    0.0000 O   0  0  0  0  0  0  0  0  0  0  0  0
   11.8053    0.5588    0.0000 C   0  0  0  0  0  0  0  0  0  0  0  0
   11.9612    1.3689    0.0000 C   0  0  0  0  0  0  0  0  0  0  0  0
   10.5580   -2.1417    0.0000 C   0  0  0  0  0  0  0  0  0  0  0  0
   11.3375   -1.8716    0.0000 C   0  0  0  0  0  0  0  0  0  0  0  0
   11.9612   -2.4117    0.0000 O   0  0  0  0  0  0  0  0  0  0  0  0
   12.7407   -2.1417    0.0000 C   0  0  0  0  0  0  0  0  0  0  0  0
   13.3644   -2.6818    0.0000 C   0  0  0  0  0  0  0  0  0  0  0  0
    5.3824   -5.7664    0.0000 H   0  0  0  0  0  0  0  0  0  0  0  0
    6.0366   -6.7324    0.0000 H   0  0  0  0  0  0  0  0  0  0  0  0
    7.0026   -6.0782    0.0000 H   0  0  0  0  0  0  0  0  0  0  0  0
    6.0335   -4.3496    0.0000 H   0  0  0  0  0  0  0  0  0  0  0  0
    5.5487   -4.9094    0.0000 H   0  0  0  0  0  0  0  0  0  0  0  0
    6.9690   -3.2695    0.0000 H   0  0  0  0  0  0  0  0  0  0  0  0
    6.4842   -3.8292    0.0000 H   0  0  0  0  0  0  0  0  0  0  0  0
    8.3783   -4.5245    0.0000 H   0  0  0  0  0  0  0  0  0  0  0  0
    8.8631   -3.9647    0.0000 H   0  0  0  0  0  0  0  0  0  0  0  0
    8.0986   -1.7577    0.0000 H   0  0  0  0  0  0  0  0  0  0  0  0
    7.3714   -1.6178    0.0000 H   0  0  0  0  0  0  0  0  0  0  0  0
    6.1153   -3.1170    0.0000 H   0  0  0  0  0  0  0  0  0  0  0  0
    6.9720   -1.8716    0.0000 H   0  0  0  0  0  0  0  0  0  0  0  0
    4.9100   -3.0657    0.0000 H   0  0  0  0  0  0  0  0  0  0  0  0
    5.6372   -3.2057    0.0000 H   0  0  0  0  0  0  0  0  0  0  0  0
    5.3294   -1.2480    0.0000 H   0  0  0  0  0  0  0  0  0  0  0  0
    4.1657   -1.3315    0.0000 H   0  0  0  0  0  0  0  0  0  0  0  0
    4.2492   -2.4953    0.0000 H   0  0  0  0  0  0  0  0  0  0  0  0
    9.3138   -3.4443    0.0000 H   0  0  0  0  0  0  0  0  0  0  0  0
    9.7986   -2.8845    0.0000 H   0  0  0  0  0  0  0  0  0  0  0  0
    8.8399   -1.1091    0.0000 H   0  0  0  0  0  0  0  0  0  0  0  0
    8.3551   -1.6689    0.0000 H   0  0  0  0  0  0  0  0  0  0  0  0
    9.7753   -0.0289    0.0000 H   0  0  0  0  0  0  0  0  0  0  0  0
    9.2906   -0.5887    0.0000 H   0  0  0  0  0  0  0  0  0  0  0  0
   11.1847   -1.2839    0.0000 H   0  0  0  0  0  0  0  0  0  0  0  0
   11.6695   -0.7242    0.0000 H   0  0  0  0  0  0  0  0  0  0  0  0
   12.1202   -0.2038    0.0000 H   0  0  0  0  0  0  0  0  0  0  0  0
   12.6050    0.3560    0.0000 H   0  0  0  0  0  0  0  0  0  0  0  0
   12.7713    1.2130    0.0000 H   0  0  0  0  0  0  0  0  0  0  0  0
   12.1171    2.1790    0.0000 H   0  0  0  0  0  0  0  0  0  0  0  0
   11.1510    1.5248    0.0000 H   0  0  0  0  0  0  0  0  0  0  0  0
   10.0551   -2.7957    0.0000 H   0  0  0  0  0  0  0  0  0  0  0  0
   10.7822   -2.9356    0.0000 H   0  0  0  0  0  0  0  0  0  0  0  0
   12.0384   -1.4364    0.0000 H   0  0  0  0  0  0  0  0  0  0  0  0
   11.1816   -2.6818    0.0000 H   0  0  0  0  0  0  0  0  0  0  0  0
   13.2436   -1.4877    0.0000 H   0  0  0  0  0  0  0  0  0  0  0  0
   12.5165   -1.3477    0.0000 H   0  0  0  0  0  0  0  0  0  0  0  0
   12.8243   -3.3054    0.0000 H   0  0  0  0  0  0  0  0  0  0  0  0
   13.9880   -3.2219    0.0000 H   0  0  0  0  0  0  0  0  0  0  0  0
   13.9045   -2.0581    0.0000 H   0  0  0  0  0  0  0  0  0  0  0  0
  1  2  1  0  0  0  0
  2  3  1  0  0  0  0
  3  4  1  0  0  0  0
  4  5  1  0  0  0  0
  5  6  1  0  0  0  0
  6  7  1  0  0  0  0
  7  8  1  0  0  0  0
  8  9  1  0  0  0  0
  9 10  1  0  0  0  0
 10 11  1  0  0  0  0
  6 12  1  0  0  0  0
 12 13  1  0  0  0  0
 13 14  1  0  0  0  0
 14 15  1  0  0  0  0
 15 16  1  0  0  0  0
 16 17  1  0  0  0  0
 17 18  1  0  0  0  0
 18 19  1  0  0  0  0
 14 20  1  0  0  0  0
 20 21  1  0  0  0  0
 21 22  1  0  0  0  0
 22 23  1  0  0  0  0
 23 24  1  0  0  0  0
  1 25  1  0  0  0  0
  1 26  1  0  0  0  0
  1 27  1  0  0  0  0
  2 28  1  0  0  0  0
  2 29  1  0  0  0  0
  4 30  1  0  0  0  0
  4 31  1  0  0  0  0
  5 32  1  0  0  0  0
  5 33  1  0  0  0  0
  7 34  1  0  0  0  0
  7 35  1  0  0  0  0
  8 36  1  0  0  0  0
  8 37  1  0  0  0  0
 10 38  1  0  0  0  0
 10 39  1  0  0  0  0
 11 40  1  0  0  0  0
 11 41  1  0  0  0  0
 11 42  1  0  0  0  0
 12 43  1  0  0  0  0
 12 44  1  0  0  0  0
 13 45  1  0  0  0  0
 13 46  1  0  0  0  0
 15 47  1  0  0  0  0
 15 48  1  0  0  0  0
 16 49  1  0  0  0  0
 16 50  1  0  0  0  0
 18 51  1  0  0  0  0
 18 52  1  0  0  0  0
 19 53  1  0  0  0  0
 19 54  1  0  0  0  0
 19 55  1  0  0  0  0
 20 56  1  0  0  0  0
 20 57  1  0  0  0  0
 21 58  1  0  0  0  0
 21 59  1  0  0  0  0
 23 60  1  0  0  0  0
 23 61  1  0  0  0  0
 24 62  1  0  0  0  0
 24 63  1  0  0  0  0
 24 64  1  0  0  0  0
M  END
>  <InChIKey>
InChI=1S/C18H40O4P2/c1-5-19-9-13-23(14-10-20-6-2)17-18-24(15-11-21-7-3)16-12-22-8-4/h5-18H2,1-4H3

>  <CASRN>
127502-06-1

> <Outcome>
0

>  <Index>
2581

>  <StandardizerResult>
Clear Stereo (ID: ClearStereo)
Wedge Clean (ID: WedgeClean)
Mesomerize (ID: Mesomerize)
Tautomerize (ID: Tautomerize)
Add Explicit Hydrogens (ID: AddExplicitH)
Neutralize (ID: Neutralize)
Clean 2D (ID: Clean2D)

> <knn Distance>
2.82842707633972

> <CpId>
2581

$$$$
2595
  Mrv1532301301811342D          

 74 73  0  0  0  0            999 V2000
   10.9461    7.1447    0.0000 C   0  0  0  0  0  0  0  0  0  0  0  0
   11.6605    7.5572    0.0000 C   0  0  0  0  0  0  0  0  0  0  0  0
   12.3750    7.1447    0.0000 C   0  0  0  0  0  0  0  0  0  0  0  0
   13.0895    7.5572    0.0000 C   0  0  0  0  0  0  0  0  0  0  0  0
   13.0895    8.3822    0.0000 Cl  0  0  0  0  0  0  0  0  0  0  0  0
   13.8039    7.1447    0.0000 C   0  0  0  0  0  0  0  0  0  0  0  0
   14.5184    7.5572    0.0000 C   0  0  0  0  0  0  0  0  0  0  0  0
   15.2329    7.1447    0.0000 C   0  0  0  0  0  0  0  0  0  0  0  0
   15.9474    7.5572    0.0000 C   0  0  0  0  0  0  0  0  0  0  0  0
   15.9474    8.3822    0.0000 Cl  0  0  0  0  0  0  0  0  0  0  0  0
   16.6618    7.1447    0.0000 C   0  0  0  0  0  0  0  0  0  0  0  0
   17.3763    7.5572    0.0000 C   0  0  0  0  0  0  0  0  0  0  0  0
   18.0908    7.1447    0.0000 C   0  0  0  0  0  0  0  0  0  0  0  0
   18.0908    6.3197    0.0000 Cl  0  0  0  0  0  0  0  0  0  0  0  0
   18.8052    7.5572    0.0000 C   0  0  0  0  0  0  0  0  0  0  0  0
   19.5197    7.1447    0.0000 C   0  0  0  0  0  0  0  0  0  0  0  0
   20.2342    7.5572    0.0000 C   0  0  0  0  0  0  0  0  0  0  0  0
   20.2342    8.3822    0.0000 Cl  0  0  0  0  0  0  0  0  0  0  0  0
   20.9487    7.1447    0.0000 C   0  0  0  0  0  0  0  0  0  0  0  0
   21.6631    7.5572    0.0000 C   0  0  0  0  0  0  0  0  0  0  0  0
   22.3776    7.1447    0.0000 C   0  0  0  0  0  0  0  0  0  0  0  0
   22.3776    6.3197    0.0000 Cl  0  0  0  0  0  0  0  0  0  0  0  0
   23.0921    7.5572    0.0000 C   0  0  0  0  0  0  0  0  0  0  0  0
   23.8065    7.1447    0.0000 C   0  0  0  0  0  0  0  0  0  0  0  0
   24.5210    7.5572    0.0000 C   0  0  0  0  0  0  0  0  0  0  0  0
   25.2355    7.1447    0.0000 C   0  0  0  0  0  0  0  0  0  0  0  0
   25.2355    6.3197    0.0000 Cl  0  0  0  0  0  0  0  0  0  0  0  0
   25.9499    7.5572    0.0000 C   0  0  0  0  0  0  0  0  0  0  0  0
   26.6644    7.1447    0.0000 C   0  0  0  0  0  0  0  0  0  0  0  0
   27.3789    7.5572    0.0000 C   0  0  0  0  0  0  0  0  0  0  0  0
   10.5336    7.8592    0.0000 H   0  0  0  0  0  0  0  0  0  0  0  0
   10.2316    6.7322    0.0000 H   0  0  0  0  0  0  0  0  0  0  0  0
   11.3586    6.4302    0.0000 H   0  0  0  0  0  0  0  0  0  0  0  0
   12.0308    8.2944    0.0000 H   0  0  0  0  0  0  0  0  0  0  0  0
   11.2903    8.2944    0.0000 H   0  0  0  0  0  0  0  0  0  0  0  0
   12.0047    6.4075    0.0000 H   0  0  0  0  0  0  0  0  0  0  0  0
   12.7453    6.4075    0.0000 H   0  0  0  0  0  0  0  0  0  0  0  0
   12.3750    7.9697    0.0000 H   0  0  0  0  0  0  0  0  0  0  0  0
   13.4337    6.4075    0.0000 H   0  0  0  0  0  0  0  0  0  0  0  0
   14.1742    6.4075    0.0000 H   0  0  0  0  0  0  0  0  0  0  0  0
   14.8887    8.2944    0.0000 H   0  0  0  0  0  0  0  0  0  0  0  0
   14.1482    8.2944    0.0000 H   0  0  0  0  0  0  0  0  0  0  0  0
   14.8626    6.4075    0.0000 H   0  0  0  0  0  0  0  0  0  0  0  0
   15.6031    6.4075    0.0000 H   0  0  0  0  0  0  0  0  0  0  0  0
   15.2329    7.9697    0.0000 H   0  0  0  0  0  0  0  0  0  0  0  0
   16.2916    6.4075    0.0000 H   0  0  0  0  0  0  0  0  0  0  0  0
   17.0321    6.4075    0.0000 H   0  0  0  0  0  0  0  0  0  0  0  0
   17.7466    8.2944    0.0000 H   0  0  0  0  0  0  0  0  0  0  0  0
   17.0060    8.2944    0.0000 H   0  0  0  0  0  0  0  0  0  0  0  0
   17.3763    6.7322    0.0000 H   0  0  0  0  0  0  0  0  0  0  0  0
   19.1755    8.2944    0.0000 H   0  0  0  0  0  0  0  0  0  0  0  0
   18.4350    8.2944    0.0000 H   0  0  0  0  0  0  0  0  0  0  0  0
   19.1494    6.4075    0.0000 H   0  0  0  0  0  0  0  0  0  0  0  0
   19.8900    6.4075    0.0000 H   0  0  0  0  0  0  0  0  0  0  0  0
   19.5197    7.9697    0.0000 H   0  0  0  0  0  0  0  0  0  0  0  0
   20.5784    6.4075    0.0000 H   0  0  0  0  0  0  0  0  0  0  0  0
   21.3189    6.4075    0.0000 H   0  0  0  0  0  0  0  0  0  0  0  0
   22.0334    8.2944    0.0000 H   0  0  0  0  0  0  0  0  0  0  0  0
   21.2929    8.2944    0.0000 H   0  0  0  0  0  0  0  0  0  0  0  0
   21.6631    6.7322    0.0000 H   0  0  0  0  0  0  0  0  0  0  0  0
   23.4623    8.2944    0.0000 H   0  0  0  0  0  0  0  0  0  0  0  0
   22.7218    8.2944    0.0000 H   0  0  0  0  0  0  0  0  0  0  0  0
   23.4363    6.4075    0.0000 H   0  0  0  0  0  0  0  0  0  0  0  0
   24.1768    6.4075    0.0000 H   0  0  0  0  0  0  0  0  0  0  0  0
   24.8913    8.2944    0.0000 H   0  0  0  0  0  0  0  0  0  0  0  0
   24.1507    8.2944    0.0000 H   0  0  0  0  0  0  0  0  0  0  0  0
   24.5210    6.7322    0.0000 H   0  0  0  0  0  0  0  0  0  0  0  0
   26.3202    8.2944    0.0000 H   0  0  0  0  0  0  0  0  0  0  0  0
   25.5797    8.2944    0.0000 H   0  0  0  0  0  0  0  0  0  0  0  0
   26.2942    6.4075    0.0000 H   0  0  0  0  0  0  0  0  0  0  0  0
   27.0347    6.4075    0.0000 H   0  0  0  0  0  0  0  0  0  0  0  0
   27.7914    6.8427    0.0000 H   0  0  0  0  0  0  0  0  0  0  0  0
   28.0934    7.9697    0.0000 H   0  0  0  0  0  0  0  0  0  0  0  0
   26.9664    8.2717    0.0000 H   0  0  0  0  0  0  0  0  0  0  0  0
  1  2  1  0  0  0  0
  2  3  1  0  0  0  0
  3  4  1  0  0  0  0
  4  5  1  0  0  0  0
  4  6  1  0  0  0  0
  6  7  1  0  0  0  0
  7  8  1  0  0  0  0
  8  9  1  0  0  0  0
  9 10  1  0  0  0  0
  9 11  1  0  0  0  0
 11 12  1  0  0  0  0
 12 13  1  0  0  0  0
 13 14  1  0  0  0  0
 13 15  1  0  0  0  0
 15 16  1  0  0  0  0
 16 17  1  0  0  0  0
 17 18  1  0  0  0  0
 17 19  1  0  0  0  0
 19 20  1  0  0  0  0
 20 21  1  0  0  0  0
 21 22  1  0  0  0  0
 21 23  1  0  0  0  0
 23 24  1  0  0  0  0
 24 25  1  0  0  0  0
 25 26  1  0  0  0  0
 26 27  1  0  0  0  0
 26 28  1  0  0  0  0
 28 29  1  0  0  0  0
 29 30  1  0  0  0  0
  1 31  1  0  0  0  0
  1 32  1  0  0  0  0
  1 33  1  0  0  0  0
  2 34  1  0  0  0  0
  2 35  1  0  0  0  0
  3 36  1  0  0  0  0
  3 37  1  0  0  0  0
  4 38  1  0  0  0  0
  6 39  1  0  0  0  0
  6 40  1  0  0  0  0
  7 41  1  0  0  0  0
  7 42  1  0  0  0  0
  8 43  1  0  0  0  0
  8 44  1  0  0  0  0
  9 45  1  0  0  0  0
 11 46  1  0  0  0  0
 11 47  1  0  0  0  0
 12 48  1  0  0  0  0
 12 49  1  0  0  0  0
 13 50  1  0  0  0  0
 15 51  1  0  0  0  0
 15 52  1  0  0  0  0
 16 53  1  0  0  0  0
 16 54  1  0  0  0  0
 17 55  1  0  0  0  0
 19 56  1  0  0  0  0
 19 57  1  0  0  0  0
 20 58  1  0  0  0  0
 20 59  1  0  0  0  0
 21 60  1  0  0  0  0
 23 61  1  0  0  0  0
 23 62  1  0  0  0  0
 24 63  1  0  0  0  0
 24 64  1  0  0  0  0
 25 65  1  0  0  0  0
 25 66  1  0  0  0  0
 26 67  1  0  0  0  0
 28 68  1  0  0  0  0
 28 69  1  0  0  0  0
 29 70  1  0  0  0  0
 29 71  1  0  0  0  0
 30 72  1  0  0  0  0
 30 73  1  0  0  0  0
 30 74  1  0  0  0  0
M  END
>  <InChIKey>
InChI=1S/C24H44Cl6/c1-3-7-19(25)9-5-11-21(27)13-15-23(29)17-18-24(30)16-14-22(28)12-6-10-20(26)8-4-2/h19-24H,3-18H2,1-2H3

>  <CASRN>
63449-39-8

> <Outcome>
0

>  <Index>
2595

>  <StandardizerResult>
Clear Stereo (ID: ClearStereo)
Wedge Clean (ID: WedgeClean)
Mesomerize (ID: Mesomerize)
Tautomerize (ID: Tautomerize)
Add Explicit Hydrogens (ID: AddExplicitH)
Neutralize (ID: Neutralize)
Clean 2D (ID: Clean2D)

> <knn Distance>
2.82842707633972

> <CpId>
2595

$$$$
2670
  Mrv1532301301811342D          

 44 43  0  0  0  0            999 V2000
    4.7321    3.5759    0.0000 C   0  0  0  0  0  0  0  0  0  0  0  0
    5.4466    3.9884    0.0000 C   0  0  0  0  0  0  0  0  0  0  0  0
    5.4466    4.8134    0.0000 C   0  0  0  0  0  0  0  0  0  0  0  0
    6.1611    3.5759    0.0000 C   0  0  0  0  0  0  0  0  0  0  0  0
    6.8755    3.9884    0.0000 O   0  0  0  0  0  0  0  0  0  0  0  0
    7.5900    3.5759    0.0000 C   0  0  0  0  0  0  0  0  0  0  0  0
    7.5900    2.7509    0.0000 O   0  0  0  0  0  0  0  0  0  0  0  0
    8.3045    3.9884    0.0000 C   0  0  0  0  0  0  0  0  0  0  0  0
    9.0189    3.5759    0.0000 C   0  0  0  0  0  0  0  0  0  0  0  0
    9.7334    3.9884    0.0000 C   0  0  0  0  0  0  0  0  0  0  0  0
   10.4479    3.5759    0.0000 C   0  0  0  0  0  0  0  0  0  0  0  0
   11.1623    3.9884    0.0000 C   0  0  0  0  0  0  0  0  0  0  0  0
   11.1623    4.8134    0.0000 O   0  0  0  0  0  0  0  0  0  0  0  0
   11.8768    3.5759    0.0000 O   0  0  0  0  0  0  0  0  0  0  0  0
   12.5913    3.9884    0.0000 C   0  0  0  0  0  0  0  0  0  0  0  0
   13.3058    3.5759    0.0000 C   0  0  0  0  0  0  0  0  0  0  0  0
   14.0202    3.9884    0.0000 C   0  0  0  0  0  0  0  0  0  0  0  0
   13.3058    2.7509    0.0000 C   0  0  0  0  0  0  0  0  0  0  0  0
    4.3196    4.2904    0.0000 H   0  0  0  0  0  0  0  0  0  0  0  0
    4.0176    3.1634    0.0000 H   0  0  0  0  0  0  0  0  0  0  0  0
    5.1446    2.8614    0.0000 H   0  0  0  0  0  0  0  0  0  0  0  0
    4.7321    4.4009    0.0000 H   0  0  0  0  0  0  0  0  0  0  0  0
    6.2435    4.5999    0.0000 H   0  0  0  0  0  0  0  0  0  0  0  0
    5.8591    5.5279    0.0000 H   0  0  0  0  0  0  0  0  0  0  0  0
    4.8632    5.3967    0.0000 H   0  0  0  0  0  0  0  0  0  0  0  0
    5.7908    2.8386    0.0000 H   0  0  0  0  0  0  0  0  0  0  0  0
    6.5313    2.8386    0.0000 H   0  0  0  0  0  0  0  0  0  0  0  0
    8.6747    4.7256    0.0000 H   0  0  0  0  0  0  0  0  0  0  0  0
    7.9342    4.7256    0.0000 H   0  0  0  0  0  0  0  0  0  0  0  0
    8.6487    2.8386    0.0000 H   0  0  0  0  0  0  0  0  0  0  0  0
    9.3892    2.8386    0.0000 H   0  0  0  0  0  0  0  0  0  0  0  0
   10.1037    4.7256    0.0000 H   0  0  0  0  0  0  0  0  0  0  0  0
    9.3631    4.7256    0.0000 H   0  0  0  0  0  0  0  0  0  0  0  0
   10.0776    2.8386    0.0000 H   0  0  0  0  0  0  0  0  0  0  0  0
   10.8181    2.8386    0.0000 H   0  0  0  0  0  0  0  0  0  0  0  0
   12.9616    4.7256    0.0000 H   0  0  0  0  0  0  0  0  0  0  0  0
   12.2210    4.7256    0.0000 H   0  0  0  0  0  0  0  0  0  0  0  0
   13.3058    4.4009    0.0000 H   0  0  0  0  0  0  0  0  0  0  0  0
   14.2338    3.1915    0.0000 H   0  0  0  0  0  0  0  0  0  0  0  0
   14.8452    3.9884    0.0000 H   0  0  0  0  0  0  0  0  0  0  0  0
   14.2338    4.7853    0.0000 H   0  0  0  0  0  0  0  0  0  0  0  0
   12.4808    2.7509    0.0000 H   0  0  0  0  0  0  0  0  0  0  0  0
   13.3058    1.9259    0.0000 H   0  0  0  0  0  0  0  0  0  0  0  0
   14.1308    2.7509    0.0000 H   0  0  0  0  0  0  0  0  0  0  0  0
  1  2  1  0  0  0  0
  2  3  1  0  0  0  0
  2  4  1  0  0  0  0
  4  5  1  0  0  0  0
  5  6  1  0  0  0  0
  6  7  2  0  0  0  0
  6  8  1  0  0  0  0
  8  9  1  0  0  0  0
  9 10  1  0  0  0  0
 10 11  1  0  0  0  0
 11 12  1  0  0  0  0
 12 13  2  0  0  0  0
 12 14  1  0  0  0  0
 14 15  1  0  0  0  0
 15 16  1  0  0  0  0
 16 17  1  0  0  0  0
 16 18  1  0  0  0  0
  1 19  1  0  0  0  0
  1 20  1  0  0  0  0
  1 21  1  0  0  0  0
  2 22  1  0  0  0  0
  3 23  1  0  0  0  0
  3 24  1  0  0  0  0
  3 25  1  0  0  0  0
  4 26  1  0  0  0  0
  4 27  1  0  0  0  0
  8 28  1  0  0  0  0
  8 29  1  0  0  0  0
  9 30  1  0  0  0  0
  9 31  1  0  0  0  0
 10 32  1  0  0  0  0
 10 33  1  0  0  0  0
 11 34  1  0  0  0  0
 11 35  1  0  0  0  0
 15 36  1  0  0  0  0
 15 37  1  0  0  0  0
 16 38  1  0  0  0  0
 17 39  1  0  0  0  0
 17 40  1  0  0  0  0
 17 41  1  0  0  0  0
 18 42  1  0  0  0  0
 18 43  1  0  0  0  0
 18 44  1  0  0  0  0
M  END
>  <InChIKey>
InChI=1S/C14H26O4/c1-11(2)9-17-13(15)7-5-6-8-14(16)18-10-12(3)4/h11-12H,5-10H2,1-4H3

>  <CASRN>
141-04-8

> <Outcome>
0

>  <Index>
2670

>  <StandardizerResult>
Clear Stereo (ID: ClearStereo)
Wedge Clean (ID: WedgeClean)
Mesomerize (ID: Mesomerize)
Tautomerize (ID: Tautomerize)
Add Explicit Hydrogens (ID: AddExplicitH)
Neutralize (ID: Neutralize)
Clean 2D (ID: Clean2D)

> <knn Distance>
2.82842707633972

> <CpId>
2670

$$$$
2747
  Mrv1532301301811342D          

 20 21  0  0  0  0            999 V2000
    1.4289   -2.4750    0.0000 N   0  0  0  0  0  0  0  0  0  0  0  0
    1.4289   -1.6500    0.0000 C   0  0  0  0  0  0  0  0  0  0  0  0
    0.7145   -1.2375    0.0000 C   0  0  0  0  0  0  0  0  0  0  0  0
    0.7145   -0.4125    0.0000 C   0  0  0  0  0  0  0  0  0  0  0  0
    1.4289   -0.0000    0.0000 C   0  0  0  0  0  0  0  0  0  0  0  0
    2.1434   -0.4125    0.0000 C   0  0  0  0  0  0  0  0  0  0  0  0
    2.8579   -0.0000    0.0000 C   0  0  0  0  0  0  0  0  0  0  0  0
    3.5724   -0.4125    0.0000 C   0  0  0  0  0  0  0  0  0  0  0  0
    3.5724   -1.2375    0.0000 C   0  0  0  0  0  0  0  0  0  0  0  0
    2.8579   -1.6500    0.0000 C   0  0  0  0  0  0  0  0  0  0  0  0
    2.1434   -1.2375    0.0000 C   0  0  0  0  0  0  0  0  0  0  0  0
    0.7145   -2.8875    0.0000 H   0  0  0  0  0  0  0  0  0  0  0  0
    2.1434   -2.8875    0.0000 H   0  0  0  0  0  0  0  0  0  0  0  0
    0.0000   -1.6500    0.0000 H   0  0  0  0  0  0  0  0  0  0  0  0
    0.0000   -0.0000    0.0000 H   0  0  0  0  0  0  0  0  0  0  0  0
    1.4289    0.8250    0.0000 H   0  0  0  0  0  0  0  0  0  0  0  0
    2.8579    0.8250    0.0000 H   0  0  0  0  0  0  0  0  0  0  0  0
    4.2868   -0.0000    0.0000 H   0  0  0  0  0  0  0  0  0  0  0  0
    4.2868   -1.6500    0.0000 H   0  0  0  0  0  0  0  0  0  0  0  0
    2.8579   -2.4750    0.0000 H   0  0  0  0  0  0  0  0  0  0  0  0
  1  2  1  0  0  0  0
  2  3  4  0  0  0  0
  3  4  4  0  0  0  0
  4  5  4  0  0  0  0
  5  6  4  0  0  0  0
  6  7  4  0  0  0  0
  7  8  4  0  0  0  0
  8  9  4  0  0  0  0
  9 10  4  0  0  0  0
 10 11  4  0  0  0  0
  2 11  4  0  0  0  0
  6 11  4  0  0  0  0
  1 12  1  0  0  0  0
  1 13  1  0  0  0  0
  3 14  1  0  0  0  0
  4 15  1  0  0  0  0
  5 16  1  0  0  0  0
  7 17  1  0  0  0  0
  8 18  1  0  0  0  0
  9 19  1  0  0  0  0
 10 20  1  0  0  0  0
M  END
>  <InChIKey>
InChI=1S/C10H9N/c11-10-7-3-5-8-4-1-2-6-9(8)10/h1-7H,11H2

>  <CASRN>
134-32-7

> <Outcome>
0

>  <Index>
2747

>  <StandardizerResult>
Dearomatize (ID: Dearomatize)
Clear Stereo (ID: ClearStereo)
Wedge Clean (ID: WedgeClean)
Mesomerize (ID: Mesomerize)
Tautomerize (ID: Tautomerize)
Aromatize (ID: Aromatize)
Add Explicit Hydrogens (ID: AddExplicitH)
Neutralize (ID: Neutralize)
Clean 2D (ID: Clean2D)

> <knn Distance>
2.82842707633972

> <CpId>
2747

$$$$
2763
  Mrv1532301301811342D          

 26 26  0  0  0  0            999 V2000
    2.3415    1.7581    0.0000 C   0  0  0  0  0  0  0  0  0  0  0  0
    1.7581    1.1747    0.0000 C   0  0  0  0  0  0  0  0  0  0  0  0
    2.0738    0.4125    0.0000 C   0  0  0  0  0  0  0  0  0  0  0  0
    1.7581   -0.3497    0.0000 C   0  0  0  0  0  0  0  0  0  0  0  0
    0.9959   -0.6654    0.0000 C   0  0  0  0  0  0  0  0  0  0  0  0
    0.2337   -0.3497    0.0000 C   0  0  0  0  0  0  0  0  0  0  0  0
   -0.3497   -0.9331    0.0000 C   0  0  0  0  0  0  0  0  0  0  0  0
   -0.0820    0.4125    0.0000 C   0  0  0  0  0  0  0  0  0  0  0  0
    0.2337    1.1747    0.0000 C   0  0  0  0  0  0  0  0  0  0  0  0
    0.9959    1.4904    0.0000 C   0  0  0  0  0  0  0  0  0  0  0  0
    2.9248    1.1747    0.0000 H   0  0  0  0  0  0  0  0  0  0  0  0
    2.9248    2.3414    0.0000 H   0  0  0  0  0  0  0  0  0  0  0  0
    1.7581    2.3414    0.0000 H   0  0  0  0  0  0  0  0  0  0  0  0
    2.8988    0.4125    0.0000 H   0  0  0  0  0  0  0  0  0  0  0  0
    2.0403   -1.1249    0.0000 H   0  0  0  0  0  0  0  0  0  0  0  0
    2.5333   -0.6319    0.0000 H   0  0  0  0  0  0  0  0  0  0  0  0
    0.6472   -1.4131    0.0000 H   0  0  0  0  0  0  0  0  0  0  0  0
    1.3446   -1.4131    0.0000 H   0  0  0  0  0  0  0  0  0  0  0  0
   -0.9330   -0.3497    0.0000 H   0  0  0  0  0  0  0  0  0  0  0  0
   -0.9330   -1.5164    0.0000 H   0  0  0  0  0  0  0  0  0  0  0  0
    0.2337   -1.5164    0.0000 H   0  0  0  0  0  0  0  0  0  0  0  0
   -0.9070    0.4125    0.0000 H   0  0  0  0  0  0  0  0  0  0  0  0
   -0.0485    1.9499    0.0000 H   0  0  0  0  0  0  0  0  0  0  0  0
   -0.5416    1.4569    0.0000 H   0  0  0  0  0  0  0  0  0  0  0  0
    1.3446    2.2381    0.0000 H   0  0  0  0  0  0  0  0  0  0  0  0
    0.6472    2.2381    0.0000 H   0  0  0  0  0  0  0  0  0  0  0  0
  1  2  1  0  0  0  0
  2  3  2  0  0  0  0
  3  4  1  4  0  0  0
  4  5  1  0  0  0  0
  5  6  1  0  0  0  0
  6  7  1  0  0  0  0
  6  8  2  0  0  0  0
  8  9  1  4  0  0  0
  9 10  1  0  0  0  0
  2 10  1  0  0  0  0
  1 11  1  0  0  0  0
  1 12  1  0  0  0  0
  1 13  1  0  0  0  0
  3 14  1  0  0  0  0
  4 15  1  0  0  0  0
  4 16  1  0  0  0  0
  5 17  1  0  0  0  0
  5 18  1  0  0  0  0
  7 19  1  0  0  0  0
  7 20  1  0  0  0  0
  7 21  1  0  0  0  0
  8 22  1  0  0  0  0
  9 23  1  0  0  0  0
  9 24  1  0  0  0  0
 10 25  1  0  0  0  0
 10 26  1  0  0  0  0
M  END
>  <InChIKey>
InChI=1S/C10H16/c1-9-5-3-7-10(2)8-4-6-9/h5,8H,3-4,6-7H2,1-2H3

>  <CASRN>
3760-14-3

> <Outcome>
0

>  <Index>
2763

>  <StandardizerResult>
Clear Stereo (ID: ClearStereo)
Wedge Clean (ID: WedgeClean)
Mesomerize (ID: Mesomerize)
Tautomerize (ID: Tautomerize)
Add Explicit Hydrogens (ID: AddExplicitH)
Neutralize (ID: Neutralize)
Clean 2D (ID: Clean2D)

> <knn Distance>
2.82842707633972

> <CpId>
2763

$$$$
2819
  Mrv1532301301811342D          

 15 14  0  0  0  0            999 V2000
   -0.1914    0.7133    0.0000 O   0  0  0  0  0  0  0  0  0  0  0  0
    0.5230    1.1258    0.0000 C   0  0  0  0  0  0  0  0  0  0  0  0
    1.2375    0.7133    0.0000 C   0  0  0  0  0  0  0  0  0  0  0  0
    1.9520    1.1258    0.0000 C   0  0  0  0  0  0  0  0  0  0  0  0
    2.6664    0.7133    0.0000 C   0  0  0  0  0  0  0  0  0  0  0  0
    3.3809    1.1258    0.0000 O   0  0  0  0  0  0  0  0  0  0  0  0
    2.6664   -0.1117    0.0000 O   0  0  0  0  0  0  0  0  0  0  0  0
   -0.9059    1.1258    0.0000 H   0  0  0  0  0  0  0  0  0  0  0  0
    0.8933    1.8631    0.0000 H   0  0  0  0  0  0  0  0  0  0  0  0
    0.1528    1.8631    0.0000 H   0  0  0  0  0  0  0  0  0  0  0  0
    0.8672   -0.0239    0.0000 H   0  0  0  0  0  0  0  0  0  0  0  0
    1.6078   -0.0239    0.0000 H   0  0  0  0  0  0  0  0  0  0  0  0
    2.3222    1.8631    0.0000 H   0  0  0  0  0  0  0  0  0  0  0  0
    1.5817    1.8631    0.0000 H   0  0  0  0  0  0  0  0  0  0  0  0
    4.0954    0.7133    0.0000 H   0  0  0  0  0  0  0  0  0  0  0  0
  1  2  1  0  0  0  0
  2  3  1  0  0  0  0
  3  4  1  0  0  0  0
  4  5  1  0  0  0  0
  5  6  1  0  0  0  0
  5  7  2  0  0  0  0
  1  8  1  0  0  0  0
  2  9  1  0  0  0  0
  2 10  1  0  0  0  0
  3 11  1  0  0  0  0
  3 12  1  0  0  0  0
  4 13  1  0  0  0  0
  4 14  1  0  0  0  0
  6 15  1  0  0  0  0
M  END
>  <InChIKey>
InChI=1S/C4H8O3/c5-3-1-2-4(6)7/h5H,1-3H2,(H,6,7)

>  <CASRN>
502-85-2

> <Outcome>
0

>  <Index>
2819

>  <StandardizerResult>
Clear Stereo (ID: ClearStereo)
Wedge Clean (ID: WedgeClean)
Mesomerize (ID: Mesomerize)
Tautomerize (ID: Tautomerize)
Add Explicit Hydrogens (ID: AddExplicitH)
Neutralize (ID: Neutralize)
Clean 2D (ID: Clean2D)

> <knn Distance>
2.82842707633972

> <CpId>
2819

$$$$
2838
  Mrv1532301301811342D          

 34 35  0  0  0  0            999 V2000
    2.8548    0.0632    0.0000 C   0  0  0  0  0  0  0  0  0  0  0  0
    2.1403   -0.3493    0.0000 O   0  0  0  0  0  0  0  0  0  0  0  0
    2.1403   -1.1743    0.0000 C   0  0  0  0  0  0  0  0  0  0  0  0
    1.4258   -1.5868    0.0000 C   0  0  0  0  0  0  0  0  0  0  0  0
    1.4258   -2.4118    0.0000 C   0  0  0  0  0  0  0  0  0  0  0  0
    2.1403   -2.8243    0.0000 C   0  0  0  0  0  0  0  0  0  0  0  0
    2.1403   -3.6493    0.0000 C   0  0  0  0  0  0  0  0  0  0  0  0
    2.8548   -4.0618    0.0000 O   0  0  0  0  0  0  0  0  0  0  0  0
    1.4258   -4.0618    0.0000 C   0  0  0  0  0  0  0  0  0  0  0  0
    1.4258   -4.8868    0.0000 C   0  0  0  0  0  0  0  0  0  0  0  0
    0.7114   -5.2993    0.0000 C   0  0  0  0  0  0  0  0  0  0  0  0
   -0.0031   -4.8868    0.0000 C   0  0  0  0  0  0  0  0  0  0  0  0
   -0.7176   -5.2993    0.0000 O   0  0  0  0  0  0  0  0  0  0  0  0
   -0.7176   -6.1243    0.0000 C   0  0  0  0  0  0  0  0  0  0  0  0
   -0.0031   -4.0618    0.0000 C   0  0  0  0  0  0  0  0  0  0  0  0
    0.7114   -3.6493    0.0000 C   0  0  0  0  0  0  0  0  0  0  0  0
    0.7114   -2.8243    0.0000 O   0  0  0  0  0  0  0  0  0  0  0  0
    2.8548   -2.4118    0.0000 C   0  0  0  0  0  0  0  0  0  0  0  0
    3.5692   -2.8243    0.0000 O   0  0  0  0  0  0  0  0  0  0  0  0
    2.8548   -1.5868    0.0000 C   0  0  0  0  0  0  0  0  0  0  0  0
    3.2673   -0.6513    0.0000 H   0  0  0  0  0  0  0  0  0  0  0  0
    3.5692    0.4757    0.0000 H   0  0  0  0  0  0  0  0  0  0  0  0
    2.4423    0.7777    0.0000 H   0  0  0  0  0  0  0  0  0  0  0  0
    0.7114   -1.1743    0.0000 H   0  0  0  0  0  0  0  0  0  0  0  0
    1.4258   -3.2368    0.0000 H   0  0  0  0  0  0  0  0  0  0  0  0
    2.1403   -5.2993    0.0000 H   0  0  0  0  0  0  0  0  0  0  0  0
    0.7114   -6.1243    0.0000 H   0  0  0  0  0  0  0  0  0  0  0  0
   -1.5426   -6.1243    0.0000 H   0  0  0  0  0  0  0  0  0  0  0  0
   -0.7176   -6.9493    0.0000 H   0  0  0  0  0  0  0  0  0  0  0  0
    0.1074   -6.1243    0.0000 H   0  0  0  0  0  0  0  0  0  0  0  0
   -0.7176   -3.6493    0.0000 H   0  0  0  0  0  0  0  0  0  0  0  0
   -0.0031   -2.4118    0.0000 H   0  0  0  0  0  0  0  0  0  0  0  0
    3.5692   -3.6493    0.0000 H   0  0  0  0  0  0  0  0  0  0  0  0
    3.5692   -1.1743    0.0000 H   0  0  0  0  0  0  0  0  0  0  0  0
  1  2  1  0  0  0  0
  2  3  1  0  0  0  0
  3  4  4  0  0  0  0
  4  5  4  0  0  0  0
  5  6  4  0  0  0  0
  6  7  1  0  0  0  0
  7  8  2  0  0  0  0
  7  9  1  0  0  0  0
  9 10  4  0  0  0  0
 10 11  4  0  0  0  0
 11 12  4  0  0  0  0
 12 13  1  0  0  0  0
 13 14  1  0  0  0  0
 12 15  4  0  0  0  0
 15 16  4  0  0  0  0
  9 16  4  0  0  0  0
 16 17  1  0  0  0  0
  6 18  4  0  0  0  0
 18 19  1  0  0  0  0
 18 20  4  0  0  0  0
  3 20  4  0  0  0  0
  1 21  1  0  0  0  0
  1 22  1  0  0  0  0
  1 23  1  0  0  0  0
  4 24  1  0  0  0  0
  5 25  1  0  0  0  0
 10 26  1  0  0  0  0
 11 27  1  0  0  0  0
 14 28  1  0  0  0  0
 14 29  1  0  0  0  0
 14 30  1  0  0  0  0
 15 31  1  0  0  0  0
 17 32  1  0  0  0  0
 19 33  1  0  0  0  0
 20 34  1  0  0  0  0
M  END
>  <InChIKey>
InChI=1S/C15H14O5/c1-19-9-3-5-11(13(16)7-9)15(18)12-6-4-10(20-2)8-14(12)17/h3-8,16-17H,1-2H3

>  <CASRN>
131-54-4

> <Outcome>
0

>  <Index>
2838

>  <StandardizerResult>
Dearomatize (ID: Dearomatize)
Clear Stereo (ID: ClearStereo)
Wedge Clean (ID: WedgeClean)
Mesomerize (ID: Mesomerize)
Tautomerize (ID: Tautomerize)
Aromatize (ID: Aromatize)
Add Explicit Hydrogens (ID: AddExplicitH)
Neutralize (ID: Neutralize)
Clean 2D (ID: Clean2D)

> <knn Distance>
2.82842707633972

> <CpId>
2838

$$$$
3068
  Mrv1532301301811342D          

 25 24  0  0  0  0            999 V2000
    2.9980    2.5566    0.0000 C   0  0  0  0  0  0  0  0  0  0  0  0
    3.7125    2.1441    0.0000 C   0  0  0  0  0  0  0  0  0  0  0  0
    4.4270    2.5566    0.0000 S   0  0  0  0  0  0  0  0  0  0  0  0
    5.1414    2.1441    0.0000 C   0  0  0  0  0  0  0  0  0  0  0  0
    5.8559    2.5566    0.0000 C   0  0  0  0  0  0  0  0  0  0  0  0
    6.5704    2.1441    0.0000 O   0  0  0  0  0  0  0  0  0  0  0  0
    7.2848    2.5566    0.0000 C   0  0  0  0  0  0  0  0  0  0  0  0
    7.2848    3.3816    0.0000 O   0  0  0  0  0  0  0  0  0  0  0  0
    7.9993    2.1441    0.0000 C   0  0  0  0  0  0  0  0  0  0  0  0
    8.7138    2.5566    0.0000 C   0  0  0  0  0  0  0  0  0  0  0  0
    7.9993    1.3191    0.0000 C   0  0  0  0  0  0  0  0  0  0  0  0
    3.4105    3.2711    0.0000 H   0  0  0  0  0  0  0  0  0  0  0  0
    2.2835    2.9691    0.0000 H   0  0  0  0  0  0  0  0  0  0  0  0
    2.5855    1.8421    0.0000 H   0  0  0  0  0  0  0  0  0  0  0  0
    3.3422    1.4069    0.0000 H   0  0  0  0  0  0  0  0  0  0  0  0
    4.0827    1.4069    0.0000 H   0  0  0  0  0  0  0  0  0  0  0  0
    4.7712    1.4069    0.0000 H   0  0  0  0  0  0  0  0  0  0  0  0
    5.5117    1.4069    0.0000 H   0  0  0  0  0  0  0  0  0  0  0  0
    6.2262    3.2939    0.0000 H   0  0  0  0  0  0  0  0  0  0  0  0
    5.4856    3.2939    0.0000 H   0  0  0  0  0  0  0  0  0  0  0  0
    9.1263    1.8421    0.0000 H   0  0  0  0  0  0  0  0  0  0  0  0
    9.4283    2.9691    0.0000 H   0  0  0  0  0  0  0  0  0  0  0  0
    8.3013    3.2711    0.0000 H   0  0  0  0  0  0  0  0  0  0  0  0
    7.2848    0.9066    0.0000 H   0  0  0  0  0  0  0  0  0  0  0  0
    8.7138    0.9066    0.0000 H   0  0  0  0  0  0  0  0  0  0  0  0
  1  2  1  0  0  0  0
  2  3  1  0  0  0  0
  3  4  1  0  0  0  0
  4  5  1  0  0  0  0
  5  6  1  0  0  0  0
  6  7  1  0  0  0  0
  7  8  2  0  0  0  0
  7  9  1  0  0  0  0
  9 10  1  0  0  0  0
  9 11  2  0  0  0  0
  1 12  1  0  0  0  0
  1 13  1  0  0  0  0
  1 14  1  0  0  0  0
  2 15  1  0  0  0  0
  2 16  1  0  0  0  0
  4 17  1  0  0  0  0
  4 18  1  0  0  0  0
  5 19  1  0  0  0  0
  5 20  1  0  0  0  0
 10 21  1  0  0  0  0
 10 22  1  0  0  0  0
 10 23  1  0  0  0  0
 11 24  1  0  0  0  0
 11 25  1  0  0  0  0
M  END
>  <InChIKey>
InChI=1S/C8H14O2S/c1-4-11-6-5-10-8(9)7(2)3/h2,4-6H2,1,3H3

>  <UN GHS>
Non-irritant

>  <CASRN>
14216-25-2

> <Outcome>
0

>  <Index>
3068

>  <StandardizerResult>
Clear Stereo (ID: ClearStereo)
Wedge Clean (ID: WedgeClean)
Mesomerize (ID: Mesomerize)
Tautomerize (ID: Tautomerize)
Add Explicit Hydrogens (ID: AddExplicitH)
Neutralize (ID: Neutralize)
Clean 2D (ID: Clean2D)

> <knn Distance>
2.82842707633972

> <CpId>
3068

$$$$
3123
  Mrv1532301301811342D          

 27 28  0  0  0  0            999 V2000
    1.4284   -1.6503    0.0000 O   0  0  0  0  0  0  0  0  0  0  0  0
    1.4284   -2.4753    0.0000 C   0  0  0  0  0  0  0  0  0  0  0  0
    2.1428   -2.8878    0.0000 C   0  0  0  0  0  0  0  0  0  0  0  0
    2.1428   -3.7128    0.0000 C   0  0  0  0  0  0  0  0  0  0  0  0
    1.4284   -4.1253    0.0000 C   0  0  0  0  0  0  0  0  0  0  0  0
    1.4284   -4.9503    0.0000 O   0  0  0  0  0  0  0  0  0  0  0  0
    2.1428   -5.3628    0.0000 C   0  0  0  0  0  0  0  0  0  0  0  0
    2.1428   -6.1878    0.0000 C   0  0  0  0  0  0  0  0  0  0  0  0
    2.8573   -6.6003    0.0000 C   0  0  0  0  0  0  0  0  0  0  0  0
    2.8573   -7.4253    0.0000 C   0  0  0  0  0  0  0  0  0  0  0  0
    2.1428   -7.8378    0.0000 C   0  0  0  0  0  0  0  0  0  0  0  0
    1.4284   -7.4253    0.0000 C   0  0  0  0  0  0  0  0  0  0  0  0
    1.4284   -6.6003    0.0000 C   0  0  0  0  0  0  0  0  0  0  0  0
    0.7139   -3.7128    0.0000 C   0  0  0  0  0  0  0  0  0  0  0  0
    0.7139   -2.8878    0.0000 C   0  0  0  0  0  0  0  0  0  0  0  0
    2.1428   -1.2378    0.0000 H   0  0  0  0  0  0  0  0  0  0  0  0
    2.8573   -2.4753    0.0000 H   0  0  0  0  0  0  0  0  0  0  0  0
    2.8573   -4.1253    0.0000 H   0  0  0  0  0  0  0  0  0  0  0  0
    2.9664   -5.3149    0.0000 H   0  0  0  0  0  0  0  0  0  0  0  0
    2.5962   -4.6735    0.0000 H   0  0  0  0  0  0  0  0  0  0  0  0
    3.5718   -6.1878    0.0000 H   0  0  0  0  0  0  0  0  0  0  0  0
    3.5718   -7.8378    0.0000 H   0  0  0  0  0  0  0  0  0  0  0  0
    2.1428   -8.6628    0.0000 H   0  0  0  0  0  0  0  0  0  0  0  0
    0.7139   -7.8378    0.0000 H   0  0  0  0  0  0  0  0  0  0  0  0
    0.7139   -6.1878    0.0000 H   0  0  0  0  0  0  0  0  0  0  0  0
   -0.0006   -4.1253    0.0000 H   0  0  0  0  0  0  0  0  0  0  0  0
   -0.0006   -2.4753    0.0000 H   0  0  0  0  0  0  0  0  0  0  0  0
  1  2  1  0  0  0  0
  2  3  4  0  0  0  0
  3  4  4  0  0  0  0
  4  5  4  0  0  0  0
  5  6  1  0  0  0  0
  6  7  1  0  0  0  0
  7  8  1  0  0  0  0
  8  9  4  0  0  0  0
  9 10  4  0  0  0  0
 10 11  4  0  0  0  0
 11 12  4  0  0  0  0
 12 13  4  0  0  0  0
  8 13  4  0  0  0  0
  5 14  4  0  0  0  0
 14 15  4  0  0  0  0
  2 15  4  0  0  0  0
  1 16  1  0  0  0  0
  3 17  1  0  0  0  0
  4 18  1  0  0  0  0
  7 19  1  0  0  0  0
  7 20  1  0  0  0  0
  9 21  1  0  0  0  0
 10 22  1  0  0  0  0
 11 23  1  0  0  0  0
 12 24  1  0  0  0  0
 13 25  1  0  0  0  0
 14 26  1  0  0  0  0
 15 27  1  0  0  0  0
M  END
>  <InChIKey>
InChI=1S/C13H12O2/c14-12-6-8-13(9-7-12)15-10-11-4-2-1-3-5-11/h1-9,14H,10H2

>  <CASRN>
103-16-2

> <Outcome>
0

>  <Index>
3123

>  <StandardizerResult>
Dearomatize (ID: Dearomatize)
Clear Stereo (ID: ClearStereo)
Wedge Clean (ID: WedgeClean)
Mesomerize (ID: Mesomerize)
Tautomerize (ID: Tautomerize)
Aromatize (ID: Aromatize)
Add Explicit Hydrogens (ID: AddExplicitH)
Neutralize (ID: Neutralize)
Clean 2D (ID: Clean2D)

> <knn Distance>
2.82842707633972

> <CpId>
3123

$$$$
3168
  Mrv1532301301811342D          

 55 54  0  0  0  0            999 V2000
    6.5546    4.6953    0.0000 C   0  0  0  0  0  0  0  0  0  0  0  0
    7.2690    4.2828    0.0000 C   0  0  0  0  0  0  0  0  0  0  0  0
    7.2690    3.4578    0.0000 C   0  0  0  0  0  0  0  0  0  0  0  0
    7.9835    4.6953    0.0000 C   0  0  0  0  0  0  0  0  0  0  0  0
    8.6980    4.2828    0.0000 C   0  0  0  0  0  0  0  0  0  0  0  0
    9.4124    4.6953    0.0000 C   0  0  0  0  0  0  0  0  0  0  0  0
   10.1269    4.2828    0.0000 C   0  0  0  0  0  0  0  0  0  0  0  0
   10.1269    3.4578    0.0000 C   0  0  0  0  0  0  0  0  0  0  0  0
   10.8414    4.6953    0.0000 C   0  0  0  0  0  0  0  0  0  0  0  0
   11.5558    4.2828    0.0000 C   0  0  0  0  0  0  0  0  0  0  0  0
   12.2703    4.6953    0.0000 C   0  0  0  0  0  0  0  0  0  0  0  0
   12.9848    4.2828    0.0000 C   0  0  0  0  0  0  0  0  0  0  0  0
   12.9848    3.4578    0.0000 C   0  0  0  0  0  0  0  0  0  0  0  0
   13.6993    4.6953    0.0000 C   0  0  0  0  0  0  0  0  0  0  0  0
   14.4137    4.2828    0.0000 C   0  0  0  0  0  0  0  0  0  0  0  0
   15.1282    4.6953    0.0000 C   0  0  0  0  0  0  0  0  0  0  0  0
   15.8427    4.2828    0.0000 C   0  0  0  0  0  0  0  0  0  0  0  0
   16.5571    4.6953    0.0000 C   0  0  0  0  0  0  0  0  0  0  0  0
   15.8427    3.4578    0.0000 O   0  0  0  0  0  0  0  0  0  0  0  0
    6.9671    5.4098    0.0000 H   0  0  0  0  0  0  0  0  0  0  0  0
    5.8401    5.1078    0.0000 H   0  0  0  0  0  0  0  0  0  0  0  0
    6.1421    3.9808    0.0000 H   0  0  0  0  0  0  0  0  0  0  0  0
    6.5546    3.8703    0.0000 H   0  0  0  0  0  0  0  0  0  0  0  0
    6.6857    2.8744    0.0000 H   0  0  0  0  0  0  0  0  0  0  0  0
    7.6815    2.7433    0.0000 H   0  0  0  0  0  0  0  0  0  0  0  0
    8.0659    3.6713    0.0000 H   0  0  0  0  0  0  0  0  0  0  0  0
    8.3538    5.4325    0.0000 H   0  0  0  0  0  0  0  0  0  0  0  0
    7.6132    5.4325    0.0000 H   0  0  0  0  0  0  0  0  0  0  0  0
    9.1948    3.6241    0.0000 H   0  0  0  0  0  0  0  0  0  0  0  0
    8.6980    5.1078    0.0000 H   0  0  0  0  0  0  0  0  0  0  0  0
   10.0444    5.2256    0.0000 H   0  0  0  0  0  0  0  0  0  0  0  0
    9.5557    5.5078    0.0000 H   0  0  0  0  0  0  0  0  0  0  0  0
    9.4124    3.8703    0.0000 H   0  0  0  0  0  0  0  0  0  0  0  0
    9.7133    2.7440    0.0000 H   0  0  0  0  0  0  0  0  0  0  0  0
   10.6566    2.8253    0.0000 H   0  0  0  0  0  0  0  0  0  0  0  0
   10.9023    3.7396    0.0000 H   0  0  0  0  0  0  0  0  0  0  0  0
   11.5644    5.0926    0.0000 H   0  0  0  0  0  0  0  0  0  0  0  0
   10.8763    5.5196    0.0000 H   0  0  0  0  0  0  0  0  0  0  0  0
   11.6491    3.4631    0.0000 H   0  0  0  0  0  0  0  0  0  0  0  0
   12.2925    3.9114    0.0000 H   0  0  0  0  0  0  0  0  0  0  0  0
   12.9000    5.2283    0.0000 H   0  0  0  0  0  0  0  0  0  0  0  0
   12.4081    5.5087    0.0000 H   0  0  0  0  0  0  0  0  0  0  0  0
   13.6993    3.8703    0.0000 H   0  0  0  0  0  0  0  0  0  0  0  0
   12.2535    3.0759    0.0000 H   0  0  0  0  0  0  0  0  0  0  0  0
   12.9615    2.6331    0.0000 H   0  0  0  0  0  0  0  0  0  0  0  0
   13.6934    3.0353    0.0000 H   0  0  0  0  0  0  0  0  0  0  0  0
   14.4224    5.0923    0.0000 H   0  0  0  0  0  0  0  0  0  0  0  0
   13.7348    5.5195    0.0000 H   0  0  0  0  0  0  0  0  0  0  0  0
   14.5570    3.4703    0.0000 H   0  0  0  0  0  0  0  0  0  0  0  0
   15.0457    3.7525    0.0000 H   0  0  0  0  0  0  0  0  0  0  0  0
   15.7579    5.2283    0.0000 H   0  0  0  0  0  0  0  0  0  0  0  0
   15.2659    5.5087    0.0000 H   0  0  0  0  0  0  0  0  0  0  0  0
   16.7578    3.8951    0.0000 H   0  0  0  0  0  0  0  0  0  0  0  0
   17.3817    4.6687    0.0000 H   0  0  0  0  0  0  0  0  0  0  0  0
   16.8090    5.4809    0.0000 H   0  0  0  0  0  0  0  0  0  0  0  0
  1  2  1  0  0  0  0
  2  3  1  0  0  0  0
  2  4  1  0  0  0  0
  4  5  1  0  0  0  0
  5  6  1  0  0  0  0
  6  7  1  0  0  0  0
  7  8  1  0  0  0  0
  7  9  1  0  0  0  0
  9 10  1  0  0  0  0
 10 11  1  0  0  0  0
 11 12  1  0  0  0  0
 12 13  1  0  0  0  0
 12 14  1  0  0  0  0
 14 15  1  0  0  0  0
 15 16  1  0  0  0  0
 16 17  1  0  0  0  0
 17 18  1  0  0  0  0
 17 19  2  0  0  0  0
  1 20  1  0  0  0  0
  1 21  1  0  0  0  0
  1 22  1  0  0  0  0
  2 23  1  0  0  0  0
  3 24  1  0  0  0  0
  3 25  1  0  0  0  0
  3 26  1  0  0  0  0
  4 27  1  0  0  0  0
  4 28  1  0  0  0  0
  5 29  1  0  0  0  0
  5 30  1  0  0  0  0
  6 31  1  0  0  0  0
  6 32  1  0  0  0  0
  7 33  1  0  0  0  0
  8 34  1  0  0  0  0
  8 35  1  0  0  0  0
  8 36  1  0  0  0  0
  9 37  1  0  0  0  0
  9 38  1  0  0  0  0
 10 39  1  0  0  0  0
 10 40  1  0  0  0  0
 11 41  1  0  0  0  0
 11 42  1  0  0  0  0
 12 43  1  0  0  0  0
 13 44  1  0  0  0  0
 13 45  1  0  0  0  0
 13 46  1  0  0  0  0
 14 47  1  0  0  0  0
 14 48  1  0  0  0  0
 15 49  1  0  0  0  0
 15 50  1  0  0  0  0
 16 51  1  0  0  0  0
 16 52  1  0  0  0  0
 18 53  1  0  0  0  0
 18 54  1  0  0  0  0
 18 55  1  0  0  0  0
M  END
>  <InChIKey>
InChI=1S/C18H36O/c1-15(2)9-6-10-16(3)11-7-12-17(4)13-8-14-18(5)19/h15-17H,6-14H2,1-5H3

>  <UN GHS>
Non-irritant

>  <CASRN>
502-69-2

> <Outcome>
0

>  <Index>
3168

>  <StandardizerResult>
Clear Stereo (ID: ClearStereo)
Wedge Clean (ID: WedgeClean)
Mesomerize (ID: Mesomerize)
Tautomerize (ID: Tautomerize)
Add Explicit Hydrogens (ID: AddExplicitH)
Neutralize (ID: Neutralize)
Clean 2D (ID: Clean2D)

> <knn Distance>
2.82842707633972

> <CpId>
3168

$$$$
3175
  Mrv1532301301811342D          

 22 22  0  0  0  0            999 V2000
    0.0190    2.4417    0.0000 C   0  0  0  0  0  0  0  0  0  0  0  0
    0.7335    2.0292    0.0000 O   0  0  0  0  0  0  0  0  0  0  0  0
    0.7335    1.2042    0.0000 C   0  0  0  0  0  0  0  0  0  0  0  0
    1.4479    0.7917    0.0000 C   0  0  0  0  0  0  0  0  0  0  0  0
    1.4479   -0.0333    0.0000 C   0  0  0  0  0  0  0  0  0  0  0  0
    0.7335   -0.4458    0.0000 C   0  0  0  0  0  0  0  0  0  0  0  0
    0.7335   -1.2708    0.0000 C   0  0  0  0  0  0  0  0  0  0  0  0
    1.4479   -1.6833    0.0000 O   0  0  0  0  0  0  0  0  0  0  0  0
    0.0190   -0.0333    0.0000 C   0  0  0  0  0  0  0  0  0  0  0  0
    0.0190    0.7917    0.0000 C   0  0  0  0  0  0  0  0  0  0  0  0
   -0.6955    1.2042    0.0000 O   0  0  0  0  0  0  0  0  0  0  0  0
   -0.6955    2.0292    0.0000 C   0  0  0  0  0  0  0  0  0  0  0  0
    0.7335    2.8542    0.0000 H   0  0  0  0  0  0  0  0  0  0  0  0
    0.0190    3.2667    0.0000 H   0  0  0  0  0  0  0  0  0  0  0  0
   -0.6955    2.8542    0.0000 H   0  0  0  0  0  0  0  0  0  0  0  0
    2.1624    1.2042    0.0000 H   0  0  0  0  0  0  0  0  0  0  0  0
    2.1624   -0.4458    0.0000 H   0  0  0  0  0  0  0  0  0  0  0  0
    0.0190   -1.6833    0.0000 H   0  0  0  0  0  0  0  0  0  0  0  0
   -0.6955   -0.4458    0.0000 H   0  0  0  0  0  0  0  0  0  0  0  0
   -1.4707    2.3114    0.0000 H   0  0  0  0  0  0  0  0  0  0  0  0
   -1.4707    1.7471    0.0000 H   0  0  0  0  0  0  0  0  0  0  0  0
    0.0190    1.6167    0.0000 H   0  0  0  0  0  0  0  0  0  0  0  0
  1  2  1  0  0  0  0
  2  3  1  0  0  0  0
  3  4  4  0  0  0  0
  4  5  4  0  0  0  0
  5  6  4  0  0  0  0
  6  7  1  0  0  0  0
  7  8  2  0  0  0  0
  6  9  4  0  0  0  0
  9 10  4  0  0  0  0
  3 10  4  0  0  0  0
 10 11  1  0  0  0  0
 11 12  1  0  0  0  0
  1 13  1  0  0  0  0
  1 14  1  0  0  0  0
  1 15  1  0  0  0  0
  4 16  1  0  0  0  0
  5 17  1  0  0  0  0
  7 18  1  0  0  0  0
  9 19  1  0  0  0  0
 12 20  1  0  0  0  0
 12 21  1  0  0  0  0
 12 22  1  0  0  0  0
M  END
>  <InChIKey>
InChI=1S/C9H10O3/c1-11-8-4-3-7(6-10)5-9(8)12-2/h3-6H,1-2H3

>  <UN GHS>
Non-irritant

>  <CASRN>
120-14-9

> <Outcome>
0

>  <Index>
3175

>  <StandardizerResult>
Dearomatize (ID: Dearomatize)
Clear Stereo (ID: ClearStereo)
Wedge Clean (ID: WedgeClean)
Mesomerize (ID: Mesomerize)
Tautomerize (ID: Tautomerize)
Aromatize (ID: Aromatize)
Add Explicit Hydrogens (ID: AddExplicitH)
Neutralize (ID: Neutralize)
Clean 2D (ID: Clean2D)

> <knn Distance>
2.82842707633972

> <CpId>
3175

$$$$
3252
  Mrv1532301301811342D          

103102  0  0  0  0            999 V2000
   12.1833    7.8594    0.0000 C   0  0  0  0  0  0  0  0  0  0  0  0
   12.8977    8.2719    0.0000 C   0  0  0  0  0  0  0  0  0  0  0  0
   13.6122    7.8594    0.0000 C   0  0  0  0  0  0  0  0  0  0  0  0
   14.3267    8.2719    0.0000 C   0  0  0  0  0  0  0  0  0  0  0  0
   15.0411    7.8594    0.0000 C   0  0  0  0  0  0  0  0  0  0  0  0
   15.7556    8.2719    0.0000 C   0  0  0  0  0  0  0  0  0  0  0  0
   16.4701    7.8594    0.0000 C   0  0  0  0  0  0  0  0  0  0  0  0
   17.1846    8.2719    0.0000 C   0  0  0  0  0  0  0  0  0  0  0  0
   17.8990    7.8594    0.0000 C   0  0  0  0  0  0  0  0  0  0  0  0
   18.6135    8.2719    0.0000 C   0  0  0  0  0  0  0  0  0  0  0  0
   19.3280    7.8594    0.0000 C   0  0  0  0  0  0  0  0  0  0  0  0
   20.0424    8.2719    0.0000 C   0  0  0  0  0  0  0  0  0  0  0  0
   20.7569    7.8594    0.0000 C   0  0  0  0  0  0  0  0  0  0  0  0
   21.4714    8.2719    0.0000 C   0  0  0  0  0  0  0  0  0  0  0  0
   22.1859    7.8594    0.0000 C   0  0  0  0  0  0  0  0  0  0  0  0
   22.9003    8.2719    0.0000 C   0  0  0  0  0  0  0  0  0  0  0  0
   23.6148    7.8594    0.0000 O   0  0  0  0  0  0  0  0  0  0  0  0
   24.3293    8.2719    0.0000 C   0  0  0  0  0  0  0  0  0  0  0  0
   24.3293    9.0969    0.0000 O   0  0  0  0  0  0  0  0  0  0  0  0
   25.0437    7.8594    0.0000 C   0  0  0  0  0  0  0  0  0  0  0  0
   25.7582    8.2719    0.0000 C   0  0  0  0  0  0  0  0  0  0  0  0
   26.4727    7.8594    0.0000 C   0  0  0  0  0  0  0  0  0  0  0  0
   27.1872    8.2719    0.0000 C   0  0  0  0  0  0  0  0  0  0  0  0
   27.9016    7.8594    0.0000 C   0  0  0  0  0  0  0  0  0  0  0  0
   28.6161    8.2719    0.0000 C   0  0  0  0  0  0  0  0  0  0  0  0
   29.3306    7.8594    0.0000 C   0  0  0  0  0  0  0  0  0  0  0  0
   30.0450    8.2719    0.0000 C   0  0  0  0  0  0  0  0  0  0  0  0
   30.7595    7.8594    0.0000 C   0  0  0  0  0  0  0  0  0  0  0  0
   31.4740    8.2719    0.0000 C   0  0  0  0  0  0  0  0  0  0  0  0
   31.4740    9.0969    0.0000 C   0  0  0  0  0  0  0  0  0  0  0  0
   30.7595    9.5094    0.0000 O   0  0  0  0  0  0  0  0  0  0  0  0
   32.1884    9.5094    0.0000 C   0  0  0  0  0  0  0  0  0  0  0  0
   32.1884   10.3344    0.0000 C   0  0  0  0  0  0  0  0  0  0  0  0
   32.9029   10.7469    0.0000 C   0  0  0  0  0  0  0  0  0  0  0  0
   32.9029   11.5719    0.0000 C   0  0  0  0  0  0  0  0  0  0  0  0
   33.6174   11.9844    0.0000 C   0  0  0  0  0  0  0  0  0  0  0  0
   33.6174   12.8094    0.0000 C   0  0  0  0  0  0  0  0  0  0  0  0
   11.7708    8.5738    0.0000 H   0  0  0  0  0  0  0  0  0  0  0  0
   11.4688    7.4469    0.0000 H   0  0  0  0  0  0  0  0  0  0  0  0
   12.5958    7.1449    0.0000 H   0  0  0  0  0  0  0  0  0  0  0  0
   13.2680    9.0091    0.0000 H   0  0  0  0  0  0  0  0  0  0  0  0
   12.5275    9.0091    0.0000 H   0  0  0  0  0  0  0  0  0  0  0  0
   13.2419    7.1221    0.0000 H   0  0  0  0  0  0  0  0  0  0  0  0
   13.9825    7.1221    0.0000 H   0  0  0  0  0  0  0  0  0  0  0  0
   14.6969    9.0091    0.0000 H   0  0  0  0  0  0  0  0  0  0  0  0
   13.9564    9.0091    0.0000 H   0  0  0  0  0  0  0  0  0  0  0  0
   14.6709    7.1221    0.0000 H   0  0  0  0  0  0  0  0  0  0  0  0
   15.4114    7.1221    0.0000 H   0  0  0  0  0  0  0  0  0  0  0  0
   16.1259    9.0091    0.0000 H   0  0  0  0  0  0  0  0  0  0  0  0
   15.3854    9.0091    0.0000 H   0  0  0  0  0  0  0  0  0  0  0  0
   16.0998    7.1221    0.0000 H   0  0  0  0  0  0  0  0  0  0  0  0
   16.8403    7.1221    0.0000 H   0  0  0  0  0  0  0  0  0  0  0  0
   17.5548    9.0091    0.0000 H   0  0  0  0  0  0  0  0  0  0  0  0
   16.8143    9.0091    0.0000 H   0  0  0  0  0  0  0  0  0  0  0  0
   17.5288    7.1221    0.0000 H   0  0  0  0  0  0  0  0  0  0  0  0
   18.2693    7.1221    0.0000 H   0  0  0  0  0  0  0  0  0  0  0  0
   18.9838    9.0091    0.0000 H   0  0  0  0  0  0  0  0  0  0  0  0
   18.2432    9.0091    0.0000 H   0  0  0  0  0  0  0  0  0  0  0  0
   18.9577    7.1221    0.0000 H   0  0  0  0  0  0  0  0  0  0  0  0
   19.6982    7.1221    0.0000 H   0  0  0  0  0  0  0  0  0  0  0  0
   20.4127    9.0091    0.0000 H   0  0  0  0  0  0  0  0  0  0  0  0
   19.6722    9.0091    0.0000 H   0  0  0  0  0  0  0  0  0  0  0  0
   20.3867    7.1221    0.0000 H   0  0  0  0  0  0  0  0  0  0  0  0
   21.1272    7.1221    0.0000 H   0  0  0  0  0  0  0  0  0  0  0  0
   21.8416    9.0091    0.0000 H   0  0  0  0  0  0  0  0  0  0  0  0
   21.1011    9.0091    0.0000 H   0  0  0  0  0  0  0  0  0  0  0  0
   21.8156    7.1221    0.0000 H   0  0  0  0  0  0  0  0  0  0  0  0
   22.5561    7.1221    0.0000 H   0  0  0  0  0  0  0  0  0  0  0  0
   23.2706    9.0091    0.0000 H   0  0  0  0  0  0  0  0  0  0  0  0
   22.5301    9.0091    0.0000 H   0  0  0  0  0  0  0  0  0  0  0  0
   24.6735    7.1221    0.0000 H   0  0  0  0  0  0  0  0  0  0  0  0
   25.4140    7.1221    0.0000 H   0  0  0  0  0  0  0  0  0  0  0  0
   26.1285    9.0091    0.0000 H   0  0  0  0  0  0  0  0  0  0  0  0
   25.3879    9.0091    0.0000 H   0  0  0  0  0  0  0  0  0  0  0  0
   26.1024    7.1221    0.0000 H   0  0  0  0  0  0  0  0  0  0  0  0
   26.8429    7.1221    0.0000 H   0  0  0  0  0  0  0  0  0  0  0  0
   27.5574    9.0091    0.0000 H   0  0  0  0  0  0  0  0  0  0  0  0
   26.8169    9.0091    0.0000 H   0  0  0  0  0  0  0  0  0  0  0  0
   27.5314    7.1221    0.0000 H   0  0  0  0  0  0  0  0  0  0  0  0
   28.2719    7.1221    0.0000 H   0  0  0  0  0  0  0  0  0  0  0  0
   28.9864    9.0091    0.0000 H   0  0  0  0  0  0  0  0  0  0  0  0
   28.2458    9.0091    0.0000 H   0  0  0  0  0  0  0  0  0  0  0  0
   28.9603    7.1221    0.0000 H   0  0  0  0  0  0  0  0  0  0  0  0
   29.7008    7.1221    0.0000 H   0  0  0  0  0  0  0  0  0  0  0  0
   30.0450    9.0969    0.0000 H   0  0  0  0  0  0  0  0  0  0  0  0
   30.7595    7.0344    0.0000 H   0  0  0  0  0  0  0  0  0  0  0  0
   31.9273    7.5826    0.0000 H   0  0  0  0  0  0  0  0  0  0  0  0
   32.2976    8.2239    0.0000 H   0  0  0  0  0  0  0  0  0  0  0  0
   30.7595    8.6844    0.0000 H   0  0  0  0  0  0  0  0  0  0  0  0
   30.7595   10.3344    0.0000 H   0  0  0  0  0  0  0  0  0  0  0  0
   32.6418    8.8201    0.0000 H   0  0  0  0  0  0  0  0  0  0  0  0
   33.0121    9.4614    0.0000 H   0  0  0  0  0  0  0  0  0  0  0  0
   31.7351   11.0236    0.0000 H   0  0  0  0  0  0  0  0  0  0  0  0
   31.3648   10.3823    0.0000 H   0  0  0  0  0  0  0  0  0  0  0  0
   33.3563   10.0576    0.0000 H   0  0  0  0  0  0  0  0  0  0  0  0
   33.7265   10.6989    0.0000 H   0  0  0  0  0  0  0  0  0  0  0  0
   32.4496   12.2611    0.0000 H   0  0  0  0  0  0  0  0  0  0  0  0
   32.0793   11.6198    0.0000 H   0  0  0  0  0  0  0  0  0  0  0  0
   34.0707   11.2951    0.0000 H   0  0  0  0  0  0  0  0  0  0  0  0
   34.4410   11.9364    0.0000 H   0  0  0  0  0  0  0  0  0  0  0  0
   34.4424   12.8094    0.0000 H   0  0  0  0  0  0  0  0  0  0  0  0
   33.6174   13.6344    0.0000 H   0  0  0  0  0  0  0  0  0  0  0  0
   32.7924   12.8094    0.0000 H   0  0  0  0  0  0  0  0  0  0  0  0
  1  2  1  0  0  0  0
  2  3  1  0  0  0  0
  3  4  1  0  0  0  0
  4  5  1  0  0  0  0
  5  6  1  0  0  0  0
  6  7  1  0  0  0  0
  7  8  1  0  0  0  0
  8  9  1  0  0  0  0
  9 10  1  0  0  0  0
 10 11  1  0  0  0  0
 11 12  1  0  0  0  0
 12 13  1  0  0  0  0
 13 14  1  0  0  0  0
 14 15  1  0  0  0  0
 15 16  1  0  0  0  0
 16 17  1  0  0  0  0
 17 18  1  0  0  0  0
 18 19  2  0  0  0  0
 18 20  1  0  0  0  0
 20 21  1  0  0  0  0
 21 22  1  0  0  0  0
 22 23  1  0  0  0  0
 23 24  1  0  0  0  0
 24 25  1  0  0  0  0
 25 26  1  0  0  0  0
 27 26  1  0  0  0  0
 27 28  2  0  0  0  0
 28 29  1  0  0  0  0
 29 30  1  0  0  0  0
 30 31  1  0  0  0  0
 30 32  1  0  0  0  0
 32 33  1  0  0  0  0
 33 34  1  0  0  0  0
 34 35  1  0  0  0  0
 35 36  1  0  0  0  0
 36 37  1  0  0  0  0
  1 38  1  0  0  0  0
  1 39  1  0  0  0  0
  1 40  1  0  0  0  0
  2 41  1  0  0  0  0
  2 42  1  0  0  0  0
  3 43  1  0  0  0  0
  3 44  1  0  0  0  0
  4 45  1  0  0  0  0
  4 46  1  0  0  0  0
  5 47  1  0  0  0  0
  5 48  1  0  0  0  0
  6 49  1  0  0  0  0
  6 50  1  0  0  0  0
  7 51  1  0  0  0  0
  7 52  1  0  0  0  0
  8 53  1  0  0  0  0
  8 54  1  0  0  0  0
  9 55  1  0  0  0  0
  9 56  1  0  0  0  0
 10 57  1  0  0  0  0
 10 58  1  0  0  0  0
 11 59  1  0  0  0  0
 11 60  1  0  0  0  0
 12 61  1  0  0  0  0
 12 62  1  0  0  0  0
 13 63  1  0  0  0  0
 13 64  1  0  0  0  0
 14 65  1  0  0  0  0
 14 66  1  0  0  0  0
 15 67  1  0  0  0  0
 15 68  1  0  0  0  0
 16 69  1  0  0  0  0
 16 70  1  0  0  0  0
 20 71  1  0  0  0  0
 20 72  1  0  0  0  0
 21 73  1  0  0  0  0
 21 74  1  0  0  0  0
 22 75  1  0  0  0  0
 22 76  1  0  0  0  0
 23 77  1  0  0  0  0
 23 78  1  0  0  0  0
 24 79  1  0  0  0  0
 24 80  1  0  0  0  0
 25 81  1  0  0  0  0
 25 82  1  0  0  0  0
 26 83  1  0  0  0  0
 26 84  1  0  0  0  0
 27 85  1  4  0  0  0
 28 86  1  0  0  0  0
 29 87  1  0  0  0  0
 29 88  1  0  0  0  0
 30 89  1  0  0  0  0
 31 90  1  0  0  0  0
 32 91  1  0  0  0  0
 32 92  1  0  0  0  0
 33 93  1  0  0  0  0
 33 94  1  0  0  0  0
 34 95  1  0  0  0  0
 34 96  1  0  0  0  0
 35 97  1  0  0  0  0
 35 98  1  0  0  0  0
 36 99  1  0  0  0  0
 36100  1  0  0  0  0
 37101  1  0  0  0  0
 37102  1  0  0  0  0
 37103  1  0  0  0  0
M  END
>  <InChIKey>
InChI=1S/C34H66O3/c1-3-5-7-9-10-11-12-13-14-15-18-21-24-28-32-37-34(36)31-27-23-20-17-16-19-22-26-30-33(35)29-25-8-6-4-2/h22,26,33,35H,3-21,23-25,27-32H2,1-2H3

>  <CASRN>
10401-55-5

> <Outcome>
0

>  <Index>
3252

>  <StandardizerResult>
Clear Stereo (ID: ClearStereo)
Wedge Clean (ID: WedgeClean)
Mesomerize (ID: Mesomerize)
Tautomerize (ID: Tautomerize)
Add Explicit Hydrogens (ID: AddExplicitH)
Neutralize (ID: Neutralize)
Clean 2D (ID: Clean2D)

> <knn Distance>
2.82842707633972

> <CpId>
3252

$$$$
3255
  Mrv1532301301811342D          

 45 45  0  0  0  0            999 V2000
    2.1434   -6.1875    0.0000 C   0  0  0  0  0  0  0  0  0  0  0  0
    2.8579   -6.6000    0.0000 C   0  0  0  0  0  0  0  0  0  0  0  0
    3.5724   -6.1875    0.0000 C   0  0  0  0  0  0  0  0  0  0  0  0
    4.2868   -6.6000    0.0000 C   0  0  0  0  0  0  0  0  0  0  0  0
    5.0013   -6.1875    0.0000 C   0  0  0  0  0  0  0  0  0  0  0  0
    5.7158   -6.6000    0.0000 C   0  0  0  0  0  0  0  0  0  0  0  0
    6.4302   -6.1875    0.0000 C   0  0  0  0  0  0  0  0  0  0  0  0
    7.1447   -6.6000    0.0000 C   0  0  0  0  0  0  0  0  0  0  0  0
    7.8592   -6.1875    0.0000 C   0  0  0  0  0  0  0  0  0  0  0  0
    8.5737   -6.6000    0.0000 C   0  0  0  0  0  0  0  0  0  0  0  0
    9.2881   -6.1875    0.0000 C   0  0  0  0  0  0  0  0  0  0  0  0
   10.0026   -6.6000    0.0000 C   0  0  0  0  0  0  0  0  0  0  0  0
   10.7171   -6.1875    0.0000 C   0  0  0  0  0  0  0  0  0  0  0  0
   11.4315   -6.6000    0.0000 C   0  0  0  0  0  0  0  0  0  0  0  0
   11.4315   -7.4250    0.0000 C   0  0  0  0  0  0  0  0  0  0  0  0
   10.7171   -7.8375    0.0000 C   0  0  0  0  0  0  0  0  0  0  0  0
   10.0026   -7.4250    0.0000 C   0  0  0  0  0  0  0  0  0  0  0  0
    2.5559   -5.4730    0.0000 H   0  0  0  0  0  0  0  0  0  0  0  0
    1.4289   -5.7750    0.0000 H   0  0  0  0  0  0  0  0  0  0  0  0
    1.7309   -6.9020    0.0000 H   0  0  0  0  0  0  0  0  0  0  0  0
    2.4876   -7.3372    0.0000 H   0  0  0  0  0  0  0  0  0  0  0  0
    3.2281   -7.3372    0.0000 H   0  0  0  0  0  0  0  0  0  0  0  0
    3.9426   -5.4503    0.0000 H   0  0  0  0  0  0  0  0  0  0  0  0
    3.2021   -5.4503    0.0000 H   0  0  0  0  0  0  0  0  0  0  0  0
    3.9166   -7.3372    0.0000 H   0  0  0  0  0  0  0  0  0  0  0  0
    4.6571   -7.3372    0.0000 H   0  0  0  0  0  0  0  0  0  0  0  0
    5.3716   -5.4503    0.0000 H   0  0  0  0  0  0  0  0  0  0  0  0
    4.6310   -5.4503    0.0000 H   0  0  0  0  0  0  0  0  0  0  0  0
    5.3455   -7.3372    0.0000 H   0  0  0  0  0  0  0  0  0  0  0  0
    6.0860   -7.3372    0.0000 H   0  0  0  0  0  0  0  0  0  0  0  0
    6.8005   -5.4503    0.0000 H   0  0  0  0  0  0  0  0  0  0  0  0
    6.0600   -5.4503    0.0000 H   0  0  0  0  0  0  0  0  0  0  0  0
    6.7745   -7.3372    0.0000 H   0  0  0  0  0  0  0  0  0  0  0  0
    7.5150   -7.3372    0.0000 H   0  0  0  0  0  0  0  0  0  0  0  0
    8.2294   -5.4503    0.0000 H   0  0  0  0  0  0  0  0  0  0  0  0
    7.4889   -5.4503    0.0000 H   0  0  0  0  0  0  0  0  0  0  0  0
    8.2034   -7.3372    0.0000 H   0  0  0  0  0  0  0  0  0  0  0  0
    8.9439   -7.3372    0.0000 H   0  0  0  0  0  0  0  0  0  0  0  0
    9.6584   -5.4503    0.0000 H   0  0  0  0  0  0  0  0  0  0  0  0
    8.9179   -5.4503    0.0000 H   0  0  0  0  0  0  0  0  0  0  0  0
   10.7171   -5.3625    0.0000 H   0  0  0  0  0  0  0  0  0  0  0  0
   12.1460   -6.1875    0.0000 H   0  0  0  0  0  0  0  0  0  0  0  0
   12.1460   -7.8375    0.0000 H   0  0  0  0  0  0  0  0  0  0  0  0
   10.7171   -8.6625    0.0000 H   0  0  0  0  0  0  0  0  0  0  0  0
    9.2881   -7.8375    0.0000 H   0  0  0  0  0  0  0  0  0  0  0  0
  1  2  1  0  0  0  0
  2  3  1  0  0  0  0
  3  4  1  0  0  0  0
  4  5  1  0  0  0  0
  5  6  1  0  0  0  0
  6  7  1  0  0  0  0
  7  8  1  0  0  0  0
  8  9  1  0  0  0  0
  9 10  1  0  0  0  0
 10 11  1  0  0  0  0
 11 12  1  0  0  0  0
 12 13  4  0  0  0  0
 13 14  4  0  0  0  0
 14 15  4  0  0  0  0
 15 16  4  0  0  0  0
 16 17  4  0  0  0  0
 12 17  4  0  0  0  0
  1 18  1  0  0  0  0
  1 19  1  0  0  0  0
  1 20  1  0  0  0  0
  2 21  1  0  0  0  0
  2 22  1  0  0  0  0
  3 23  1  0  0  0  0
  3 24  1  0  0  0  0
  4 25  1  0  0  0  0
  4 26  1  0  0  0  0
  5 27  1  0  0  0  0
  5 28  1  0  0  0  0
  6 29  1  0  0  0  0
  6 30  1  0  0  0  0
  7 31  1  0  0  0  0
  7 32  1  0  0  0  0
  8 33  1  0  0  0  0
  8 34  1  0  0  0  0
  9 35  1  0  0  0  0
  9 36  1  0  0  0  0
 10 37  1  0  0  0  0
 10 38  1  0  0  0  0
 11 39  1  0  0  0  0
 11 40  1  0  0  0  0
 13 41  1  0  0  0  0
 14 42  1  0  0  0  0
 15 43  1  0  0  0  0
 16 44  1  0  0  0  0
 17 45  1  0  0  0  0
M  END
>  <InChIKey>
InChI=1S/C17H28/c1-2-3-4-5-6-7-8-9-11-14-17-15-12-10-13-16-17/h10,12-13,15-16H,2-9,11,14H2,1H3

>  <CASRN>
6742-54-7

> <Outcome>
0

>  <Index>
3255

>  <StandardizerResult>
Dearomatize (ID: Dearomatize)
Clear Stereo (ID: ClearStereo)
Wedge Clean (ID: WedgeClean)
Mesomerize (ID: Mesomerize)
Tautomerize (ID: Tautomerize)
Aromatize (ID: Aromatize)
Add Explicit Hydrogens (ID: AddExplicitH)
Neutralize (ID: Neutralize)
Clean 2D (ID: Clean2D)

> <knn Distance>
2.82842707633972

> <CpId>
3255

$$$$
3341
  Mrv1532301301811342D          

 22 21  0  0  0  0            999 V2000
    1.0461    1.4289    0.0000 O   0  0  0  0  0  0  0  0  0  0  0  0
    1.7605    1.8414    0.0000 C   0  0  0  0  0  0  0  0  0  0  0  0
    2.4750    1.4289    0.0000 C   0  0  0  0  0  0  0  0  0  0  0  0
    3.1895    1.8414    0.0000 C   0  0  0  0  0  0  0  0  0  0  0  0
    3.9039    1.4289    0.0000 C   0  0  0  0  0  0  0  0  0  0  0  0
    4.6184    1.8414    0.0000 C   0  0  0  0  0  0  0  0  0  0  0  0
    5.3329    1.4289    0.0000 C   0  0  0  0  0  0  0  0  0  0  0  0
    6.0474    1.8414    0.0000 O   0  0  0  0  0  0  0  0  0  0  0  0
    0.3316    1.8414    0.0000 H   0  0  0  0  0  0  0  0  0  0  0  0
    2.1308    2.5786    0.0000 H   0  0  0  0  0  0  0  0  0  0  0  0
    1.3903    2.5786    0.0000 H   0  0  0  0  0  0  0  0  0  0  0  0
    2.1047    0.6917    0.0000 H   0  0  0  0  0  0  0  0  0  0  0  0
    2.8453    0.6917    0.0000 H   0  0  0  0  0  0  0  0  0  0  0  0
    3.5597    2.5786    0.0000 H   0  0  0  0  0  0  0  0  0  0  0  0
    2.8192    2.5786    0.0000 H   0  0  0  0  0  0  0  0  0  0  0  0
    3.5337    0.6917    0.0000 H   0  0  0  0  0  0  0  0  0  0  0  0
    4.2742    0.6917    0.0000 H   0  0  0  0  0  0  0  0  0  0  0  0
    4.9887    2.5786    0.0000 H   0  0  0  0  0  0  0  0  0  0  0  0
    4.2482    2.5786    0.0000 H   0  0  0  0  0  0  0  0  0  0  0  0
    4.9626    0.6917    0.0000 H   0  0  0  0  0  0  0  0  0  0  0  0
    5.7031    0.6917    0.0000 H   0  0  0  0  0  0  0  0  0  0  0  0
    6.7618    1.4289    0.0000 H   0  0  0  0  0  0  0  0  0  0  0  0
  1  2  1  0  0  0  0
  2  3  1  0  0  0  0
  3  4  1  0  0  0  0
  4  5  1  0  0  0  0
  5  6  1  0  0  0  0
  6  7  1  0  0  0  0
  7  8  1  0  0  0  0
  1  9  1  0  0  0  0
  2 10  1  0  0  0  0
  2 11  1  0  0  0  0
  3 12  1  0  0  0  0
  3 13  1  0  0  0  0
  4 14  1  0  0  0  0
  4 15  1  0  0  0  0
  5 16  1  0  0  0  0
  5 17  1  0  0  0  0
  6 18  1  0  0  0  0
  6 19  1  0  0  0  0
  7 20  1  0  0  0  0
  7 21  1  0  0  0  0
  8 22  1  0  0  0  0
M  END
>  <InChIKey>
InChI=1S/C6H14O2/c7-5-3-1-2-4-6-8/h7-8H,1-6H2

>  <CASRN>
629-11-8

> <Outcome>
0

>  <Index>
3341

>  <StandardizerResult>
Clear Stereo (ID: ClearStereo)
Wedge Clean (ID: WedgeClean)
Mesomerize (ID: Mesomerize)
Tautomerize (ID: Tautomerize)
Add Explicit Hydrogens (ID: AddExplicitH)
Neutralize (ID: Neutralize)
Clean 2D (ID: Clean2D)

> <knn Distance>
2.82842707633972

> <CpId>
3341

$$$$
7
  Mrv1532301301811342D          

 23 23  0  0  0  0            999 V2000
   -0.7145    3.7125    0.0000 C   0  0  0  0  0  0  0  0  0  0  0  0
   -0.0000    3.3000    0.0000 C   0  0  0  0  0  0  0  0  0  0  0  0
    0.7145    3.7125    0.0000 O   0  0  0  0  0  0  0  0  0  0  0  0
   -0.0000    2.4750    0.0000 C   0  0  0  0  0  0  0  0  0  0  0  0
    0.7145    2.0625    0.0000 C   0  0  0  0  0  0  0  0  0  0  0  0
    0.7145    1.2375    0.0000 C   0  0  0  0  0  0  0  0  0  0  0  0
    1.4289    0.8250    0.0000 C   0  0  0  0  0  0  0  0  0  0  0  0
    1.4289   -0.0000    0.0000 C   0  0  0  0  0  0  0  0  0  0  0  0
    0.7145   -0.4125    0.0000 C   0  0  0  0  0  0  0  0  0  0  0  0
   -0.0000   -0.0000    0.0000 C   0  0  0  0  0  0  0  0  0  0  0  0
   -0.0000    0.8250    0.0000 C   0  0  0  0  0  0  0  0  0  0  0  0
   -0.3020    4.4270    0.0000 H   0  0  0  0  0  0  0  0  0  0  0  0
   -1.4289    4.1250    0.0000 H   0  0  0  0  0  0  0  0  0  0  0  0
   -1.1270    2.9980    0.0000 H   0  0  0  0  0  0  0  0  0  0  0  0
   -0.8236    2.4270    0.0000 H   0  0  0  0  0  0  0  0  0  0  0  0
   -0.4533    1.7857    0.0000 H   0  0  0  0  0  0  0  0  0  0  0  0
    1.5381    2.1105    0.0000 H   0  0  0  0  0  0  0  0  0  0  0  0
    1.1678    2.7518    0.0000 H   0  0  0  0  0  0  0  0  0  0  0  0
    2.1434    1.2375    0.0000 H   0  0  0  0  0  0  0  0  0  0  0  0
    2.1434   -0.4125    0.0000 H   0  0  0  0  0  0  0  0  0  0  0  0
    0.7145   -1.2375    0.0000 H   0  0  0  0  0  0  0  0  0  0  0  0
   -0.7145   -0.4125    0.0000 H   0  0  0  0  0  0  0  0  0  0  0  0
   -0.7145    1.2375    0.0000 H   0  0  0  0  0  0  0  0  0  0  0  0
  1  2  1  0  0  0  0
  2  3  2  0  0  0  0
  2  4  1  0  0  0  0
  4  5  1  0  0  0  0
  5  6  1  0  0  0  0
  6  7  4  0  0  0  0
  7  8  4  0  0  0  0
  8  9  4  0  0  0  0
  9 10  4  0  0  0  0
 10 11  4  0  0  0  0
  6 11  4  0  0  0  0
  1 12  1  0  0  0  0
  1 13  1  0  0  0  0
  1 14  1  0  0  0  0
  4 15  1  0  0  0  0
  4 16  1  0  0  0  0
  5 17  1  0  0  0  0
  5 18  1  0  0  0  0
  7 19  1  0  0  0  0
  8 20  1  0  0  0  0
  9 21  1  0  0  0  0
 10 22  1  0  0  0  0
 11 23  1  0  0  0  0
M  END
>  <InChIKey>
AKGGYBADQZYZPD-UHFFFAOYSA-N

>  <UN GHS>
Non-irritant

>  <CASRN>
2550-26-7

> <Outcome>
0

>  <Index>
7

>  <StandardizerResult>
Dearomatize (ID: Dearomatize)
Clear Stereo (ID: ClearStereo)
Wedge Clean (ID: WedgeClean)
Mesomerize (ID: Mesomerize)
Tautomerize (ID: Tautomerize)
Aromatize (ID: Aromatize)
Add Explicit Hydrogens (ID: AddExplicitH)
Neutralize (ID: Neutralize)
Clean 2D (ID: Clean2D)

> <knn Distance>
3.0

> <CpId>
7

$$$$
39
  Mrv1532301301811342D          

 14 14  0  0  0  0            999 V2000
    0.7145    2.0625    0.0000 Cl  0  0  0  0  0  0  0  0  0  0  0  0
    0.7145    1.2375    0.0000 C   0  0  0  0  0  0  0  0  0  0  0  0
    1.4289    0.8250    0.0000 C   0  0  0  0  0  0  0  0  0  0  0  0
    1.4289   -0.0000    0.0000 C   0  0  0  0  0  0  0  0  0  0  0  0
    0.7145   -0.4125    0.0000 C   0  0  0  0  0  0  0  0  0  0  0  0
   -0.0000   -0.0000    0.0000 C   0  0  0  0  0  0  0  0  0  0  0  0
   -0.0000    0.8250    0.0000 C   0  0  0  0  0  0  0  0  0  0  0  0
   -0.7145    1.2375    0.0000 N   0  0  0  0  0  0  0  0  0  0  0  0
   -1.4289    0.8250    0.0000 O   0  0  0  0  0  0  0  0  0  0  0  0
   -0.7145    2.0625    0.0000 O   0  0  0  0  0  0  0  0  0  0  0  0
    2.1434    1.2375    0.0000 H   0  0  0  0  0  0  0  0  0  0  0  0
    2.1434   -0.4125    0.0000 H   0  0  0  0  0  0  0  0  0  0  0  0
    0.7145   -1.2375    0.0000 H   0  0  0  0  0  0  0  0  0  0  0  0
   -0.7145   -0.4125    0.0000 H   0  0  0  0  0  0  0  0  0  0  0  0
  1  2  1  0  0  0  0
  2  3  4  0  0  0  0
  3  4  4  0  0  0  0
  4  5  4  0  0  0  0
  5  6  4  0  0  0  0
  6  7  4  0  0  0  0
  2  7  4  0  0  0  0
  7  8  1  0  0  0  0
  8  9  2  0  0  0  0
  8 10  2  0  0  0  0
  3 11  1  0  0  0  0
  4 12  1  0  0  0  0
  5 13  1  0  0  0  0
  6 14  1  0  0  0  0
M  END
>  <InChIKey>
BFCFYVKQTRLZHA-UHFFFAOYSA-N

>  <UN GHS>
Non-irritant

>  <CASRN>
88-73-3

> <Outcome>
0

>  <Index>
39

>  <StandardizerResult>
Dearomatize (ID: Dearomatize)
Clear Stereo (ID: ClearStereo)
Wedge Clean (ID: WedgeClean)
Mesomerize (ID: Mesomerize)
Tautomerize (ID: Tautomerize)
Aromatize (ID: Aromatize)
Add Explicit Hydrogens (ID: AddExplicitH)
Neutralize (ID: Neutralize)
Clean 2D (ID: Clean2D)

> <knn Distance>
3.0

> <CpId>
39

$$$$
67
  Mrv1532301301811342D          

 22 21  0  0  0  0            999 V2000
    2.2836   -2.9684    0.0000 N   0  0  0  0  0  0  0  0  0  0  0  0
    2.9980   -2.5559    0.0000 C   0  0  0  0  0  0  0  0  0  0  0  0
    3.7125   -2.1434    0.0000 C   0  0  0  0  0  0  0  0  0  0  0  0
    4.4270   -2.5559    0.0000 C   0  0  0  0  0  0  0  0  0  0  0  0
    5.1414   -2.1434    0.0000 C   0  0  0  0  0  0  0  0  0  0  0  0
    5.8559   -2.5559    0.0000 C   0  0  0  0  0  0  0  0  0  0  0  0
    6.5704   -2.1434    0.0000 C   0  0  0  0  0  0  0  0  0  0  0  0
    7.2849   -2.5559    0.0000 C   0  0  0  0  0  0  0  0  0  0  0  0
    7.9993   -2.1434    0.0000 C   0  0  0  0  0  0  0  0  0  0  0  0
    8.7138   -1.7309    0.0000 N   0  0  0  0  0  0  0  0  0  0  0  0
    4.0828   -1.4062    0.0000 H   0  0  0  0  0  0  0  0  0  0  0  0
    3.3422   -1.4062    0.0000 H   0  0  0  0  0  0  0  0  0  0  0  0
    4.0567   -3.2931    0.0000 H   0  0  0  0  0  0  0  0  0  0  0  0
    4.7972   -3.2931    0.0000 H   0  0  0  0  0  0  0  0  0  0  0  0
    5.5117   -1.4062    0.0000 H   0  0  0  0  0  0  0  0  0  0  0  0
    4.7712   -1.4062    0.0000 H   0  0  0  0  0  0  0  0  0  0  0  0
    5.4857   -3.2931    0.0000 H   0  0  0  0  0  0  0  0  0  0  0  0
    6.2262   -3.2931    0.0000 H   0  0  0  0  0  0  0  0  0  0  0  0
    6.9406   -1.4062    0.0000 H   0  0  0  0  0  0  0  0  0  0  0  0
    6.2001   -1.4062    0.0000 H   0  0  0  0  0  0  0  0  0  0  0  0
    6.9146   -3.2931    0.0000 H   0  0  0  0  0  0  0  0  0  0  0  0
    7.6551   -3.2931    0.0000 H   0  0  0  0  0  0  0  0  0  0  0  0
  1  2  3  0  0  0  0
  2  3  1  0  0  0  0
  3  4  1  0  0  0  0
  4  5  1  0  0  0  0
  5  6  1  0  0  0  0
  6  7  1  0  0  0  0
  7  8  1  0  0  0  0
  8  9  1  0  0  0  0
  9 10  3  0  0  0  0
  3 11  1  0  0  0  0
  3 12  1  0  0  0  0
  4 13  1  0  0  0  0
  4 14  1  0  0  0  0
  5 15  1  0  0  0  0
  5 16  1  0  0  0  0
  6 17  1  0  0  0  0
  6 18  1  0  0  0  0
  7 19  1  0  0  0  0
  7 20  1  0  0  0  0
  8 21  1  0  0  0  0
  8 22  1  0  0  0  0
M  END
>  <InChIKey>
BTNXBLUGMAMSSH-UHFFFAOYSA-N

>  <UN GHS>
Non-irritant

>  <CASRN>
629-40-3

> <Outcome>
0

>  <Index>
67

>  <StandardizerResult>
Clear Stereo (ID: ClearStereo)
Wedge Clean (ID: WedgeClean)
Mesomerize (ID: Mesomerize)
Tautomerize (ID: Tautomerize)
Add Explicit Hydrogens (ID: AddExplicitH)
Neutralize (ID: Neutralize)
Clean 2D (ID: Clean2D)

> <knn Distance>
3.0

> <CpId>
67

$$$$
70
  Mrv1532301301811342D          

  6  5  0  0  0  0            999 V2000
    1.2375    0.7145    0.0000 O   0  0  0  0  0  0  0  0  0  0  0  0
    0.8250    0.0000    0.0000 C   0  0  0  0  0  0  0  0  0  0  0  0
    1.2375   -0.7145    0.0000 O   0  0  0  0  0  0  0  0  0  0  0  0
   -0.0000    0.0000    0.0000 O   0  0  0  0  0  0  0  0  0  0  0  0
    2.0625    0.7145    0.0000 H   0  0  0  0  0  0  0  0  0  0  0  0
    0.8250   -1.4289    0.0000 H   0  0  0  0  0  0  0  0  0  0  0  0
  1  2  1  0  0  0  0
  2  3  1  0  0  0  0
  2  4  2  0  0  0  0
  1  5  1  0  0  0  0
  3  6  1  0  0  0  0
M  END
>  <InChIKey>
BVKZGUZCCUSVTD-UHFFFAOYSA-N

>  <UN GHS>
Non-irritant

>  <CASRN>
10361-29-2

> <Outcome>
0

>  <Index>
70

>  <StandardizerResult>
Clear Stereo (ID: ClearStereo)
Wedge Clean (ID: WedgeClean)
Mesomerize (ID: Mesomerize)
Tautomerize (ID: Tautomerize)
Add Explicit Hydrogens (ID: AddExplicitH)
Neutralize (ID: Neutralize)
Clean 2D (ID: Clean2D)

> <knn Distance>
3.0

> <CpId>
70

$$$$
126
  Mrv1532301301811342D          

 17 16  0  0  0  0            999 V2000
    0.8250   -0.8250    0.0000 C   0  0  0  0  0  0  0  0  0  0  0  0
    0.8250    0.0000    0.0000 Si  0  0  0  0  0  0  0  0  0  0  0  0
    0.8250    0.8250    0.0000 C   0  0  0  0  0  0  0  0  0  0  0  0
    1.6500   -0.0000    0.0000 C   0  0  0  0  0  0  0  0  0  0  0  0
    0.0000    0.0000    0.0000 C   0  0  0  0  0  0  0  0  0  0  0  0
    0.0000   -0.8250    0.0000 H   0  0  0  0  0  0  0  0  0  0  0  0
    0.8250   -1.6500    0.0000 H   0  0  0  0  0  0  0  0  0  0  0  0
    1.6500   -0.8250    0.0000 H   0  0  0  0  0  0  0  0  0  0  0  0
    1.6500    0.8250    0.0000 H   0  0  0  0  0  0  0  0  0  0  0  0
    0.8250    1.6500    0.0000 H   0  0  0  0  0  0  0  0  0  0  0  0
    0.0000    0.8250    0.0000 H   0  0  0  0  0  0  0  0  0  0  0  0
    2.2334   -0.5834    0.0000 H   0  0  0  0  0  0  0  0  0  0  0  0
    2.4750   -0.0000    0.0000 H   0  0  0  0  0  0  0  0  0  0  0  0
    2.2334    0.5834    0.0000 H   0  0  0  0  0  0  0  0  0  0  0  0
   -0.5834    0.5834    0.0000 H   0  0  0  0  0  0  0  0  0  0  0  0
   -0.8250    0.0000    0.0000 H   0  0  0  0  0  0  0  0  0  0  0  0
   -0.5834   -0.5834    0.0000 H   0  0  0  0  0  0  0  0  0  0  0  0
  1  2  1  0  0  0  0
  2  3  1  0  0  0  0
  2  4  1  0  0  0  0
  2  5  1  0  0  0  0
  1  6  1  0  0  0  0
  1  7  1  0  0  0  0
  1  8  1  0  0  0  0
  3  9  1  0  0  0  0
  3 10  1  0  0  0  0
  3 11  1  0  0  0  0
  4 12  1  0  0  0  0
  4 13  1  0  0  0  0
  4 14  1  0  0  0  0
  5 15  1  0  0  0  0
  5 16  1  0  0  0  0
  5 17  1  0  0  0  0
M  END
>  <InChIKey>
CZDYPVPMEAXLPK-UHFFFAOYSA-N

>  <UN GHS>
Non-irritant

>  <CASRN>
75-76-3

> <Outcome>
0

>  <Index>
126

>  <StandardizerResult>
Clear Stereo (ID: ClearStereo)
Wedge Clean (ID: WedgeClean)
Mesomerize (ID: Mesomerize)
Tautomerize (ID: Tautomerize)
Add Explicit Hydrogens (ID: AddExplicitH)
Neutralize (ID: Neutralize)
Clean 2D (ID: Clean2D)

> <knn Distance>
3.0

> <CpId>
126

$$$$
138
  Mrv1532301301811342D          

111110  0  0  0  0            999 V2000
   20.3230   12.5587    0.0000 C   0  0  0  0  0  0  0  0  0  0  0  0
   21.0375   12.1462    0.0000 C   0  0  0  0  0  0  0  0  0  0  0  0
   21.7520   12.5587    0.0000 C   0  0  0  0  0  0  0  0  0  0  0  0
   22.4664   12.1462    0.0000 C   0  0  0  0  0  0  0  0  0  0  0  0
   23.1809   12.5587    0.0000 C   0  0  0  0  0  0  0  0  0  0  0  0
   23.8954   12.1462    0.0000 C   0  0  0  0  0  0  0  0  0  0  0  0
   24.6099   12.5587    0.0000 C   0  0  0  0  0  0  0  0  0  0  0  0
   25.3243   12.1462    0.0000 C   0  0  0  0  0  0  0  0  0  0  0  0
   26.0388   12.5587    0.0000 C   0  0  0  0  0  0  0  0  0  0  0  0
   26.7533   12.1462    0.0000 C   0  0  0  0  0  0  0  0  0  0  0  0
   27.4677   12.5587    0.0000 C   0  0  0  0  0  0  0  0  0  0  0  0
   28.1822   12.1462    0.0000 C   0  0  0  0  0  0  0  0  0  0  0  0
   28.8967   12.5587    0.0000 C   0  0  0  0  0  0  0  0  0  0  0  0
   29.6111   12.1462    0.0000 C   0  0  0  0  0  0  0  0  0  0  0  0
   30.3256   12.5587    0.0000 C   0  0  0  0  0  0  0  0  0  0  0  0
   31.0401   12.1462    0.0000 C   0  0  0  0  0  0  0  0  0  0  0  0
   31.7546   12.5587    0.0000 C   0  0  0  0  0  0  0  0  0  0  0  0
   32.4690   12.1462    0.0000 C   0  0  0  0  0  0  0  0  0  0  0  0
   33.1835   12.5587    0.0000 N   0  0  0  0  0  0  0  0  0  0  0  0
   33.8980   12.1462    0.0000 C   0  0  0  0  0  0  0  0  0  0  0  0
   33.8980   11.3212    0.0000 O   0  0  0  0  0  0  0  0  0  0  0  0
   34.6124   12.5587    0.0000 C   0  0  0  0  0  0  0  0  0  0  0  0
   35.3269   12.1462    0.0000 C   0  0  0  0  0  0  0  0  0  0  0  0
   36.0414   12.5587    0.0000 C   0  0  0  0  0  0  0  0  0  0  0  0
   36.7559   12.1462    0.0000 C   0  0  0  0  0  0  0  0  0  0  0  0
   37.4703   12.5587    0.0000 C   0  0  0  0  0  0  0  0  0  0  0  0
   38.1848   12.1462    0.0000 C   0  0  0  0  0  0  0  0  0  0  0  0
   38.8993   12.5587    0.0000 C   0  0  0  0  0  0  0  0  0  0  0  0
   39.6137   12.1462    0.0000 C   0  0  0  0  0  0  0  0  0  0  0  0
   40.3282   12.5587    0.0000 C   0  0  0  0  0  0  0  0  0  0  0  0
   41.0427   12.1462    0.0000 C   0  0  0  0  0  0  0  0  0  0  0  0
   41.7572   12.5587    0.0000 C   0  0  0  0  0  0  0  0  0  0  0  0
   42.4716   12.1462    0.0000 C   0  0  0  0  0  0  0  0  0  0  0  0
   43.1861   12.5587    0.0000 C   0  0  0  0  0  0  0  0  0  0  0  0
   43.9006   12.1462    0.0000 C   0  0  0  0  0  0  0  0  0  0  0  0
   44.6150   12.5587    0.0000 C   0  0  0  0  0  0  0  0  0  0  0  0
   45.3295   12.1462    0.0000 C   0  0  0  0  0  0  0  0  0  0  0  0
   46.0440   12.5587    0.0000 C   0  0  0  0  0  0  0  0  0  0  0  0
   20.7355   13.2731    0.0000 H   0  0  0  0  0  0  0  0  0  0  0  0
   19.6086   12.9712    0.0000 H   0  0  0  0  0  0  0  0  0  0  0  0
   19.9105   11.8442    0.0000 H   0  0  0  0  0  0  0  0  0  0  0  0
   20.6672   11.4089    0.0000 H   0  0  0  0  0  0  0  0  0  0  0  0
   21.4078   11.4089    0.0000 H   0  0  0  0  0  0  0  0  0  0  0  0
   22.1222   13.2959    0.0000 H   0  0  0  0  0  0  0  0  0  0  0  0
   21.3817   13.2959    0.0000 H   0  0  0  0  0  0  0  0  0  0  0  0
   22.0962   11.4089    0.0000 H   0  0  0  0  0  0  0  0  0  0  0  0
   22.8367   11.4089    0.0000 H   0  0  0  0  0  0  0  0  0  0  0  0
   23.5512   13.2959    0.0000 H   0  0  0  0  0  0  0  0  0  0  0  0
   22.8107   13.2959    0.0000 H   0  0  0  0  0  0  0  0  0  0  0  0
   23.5251   11.4089    0.0000 H   0  0  0  0  0  0  0  0  0  0  0  0
   24.2656   11.4089    0.0000 H   0  0  0  0  0  0  0  0  0  0  0  0
   24.9801   13.2959    0.0000 H   0  0  0  0  0  0  0  0  0  0  0  0
   24.2396   13.2959    0.0000 H   0  0  0  0  0  0  0  0  0  0  0  0
   24.9541   11.4089    0.0000 H   0  0  0  0  0  0  0  0  0  0  0  0
   25.6946   11.4089    0.0000 H   0  0  0  0  0  0  0  0  0  0  0  0
   26.4091   13.2959    0.0000 H   0  0  0  0  0  0  0  0  0  0  0  0
   25.6685   13.2959    0.0000 H   0  0  0  0  0  0  0  0  0  0  0  0
   26.3830   11.4089    0.0000 H   0  0  0  0  0  0  0  0  0  0  0  0
   27.1235   11.4089    0.0000 H   0  0  0  0  0  0  0  0  0  0  0  0
   27.8380   13.2959    0.0000 H   0  0  0  0  0  0  0  0  0  0  0  0
   27.0975   13.2959    0.0000 H   0  0  0  0  0  0  0  0  0  0  0  0
   27.8119   11.4089    0.0000 H   0  0  0  0  0  0  0  0  0  0  0  0
   28.5525   11.4089    0.0000 H   0  0  0  0  0  0  0  0  0  0  0  0
   29.2669   13.2959    0.0000 H   0  0  0  0  0  0  0  0  0  0  0  0
   28.5264   13.2959    0.0000 H   0  0  0  0  0  0  0  0  0  0  0  0
   29.2409   11.4089    0.0000 H   0  0  0  0  0  0  0  0  0  0  0  0
   29.9814   11.4089    0.0000 H   0  0  0  0  0  0  0  0  0  0  0  0
   30.6959   13.2959    0.0000 H   0  0  0  0  0  0  0  0  0  0  0  0
   29.9554   13.2959    0.0000 H   0  0  0  0  0  0  0  0  0  0  0  0
   30.6698   11.4089    0.0000 H   0  0  0  0  0  0  0  0  0  0  0  0
   31.4104   11.4089    0.0000 H   0  0  0  0  0  0  0  0  0  0  0  0
   32.1248   13.2959    0.0000 H   0  0  0  0  0  0  0  0  0  0  0  0
   31.3843   13.2959    0.0000 H   0  0  0  0  0  0  0  0  0  0  0  0
   32.0988   11.4089    0.0000 H   0  0  0  0  0  0  0  0  0  0  0  0
   32.8393   11.4089    0.0000 H   0  0  0  0  0  0  0  0  0  0  0  0
   33.1835   13.3837    0.0000 H   0  0  0  0  0  0  0  0  0  0  0  0
   34.9827   13.2959    0.0000 H   0  0  0  0  0  0  0  0  0  0  0  0
   34.2422   13.2959    0.0000 H   0  0  0  0  0  0  0  0  0  0  0  0
   34.9567   11.4089    0.0000 H   0  0  0  0  0  0  0  0  0  0  0  0
   35.6972   11.4089    0.0000 H   0  0  0  0  0  0  0  0  0  0  0  0
   36.4116   13.2959    0.0000 H   0  0  0  0  0  0  0  0  0  0  0  0
   35.6711   13.2959    0.0000 H   0  0  0  0  0  0  0  0  0  0  0  0
   36.3856   11.4089    0.0000 H   0  0  0  0  0  0  0  0  0  0  0  0
   37.1261   11.4089    0.0000 H   0  0  0  0  0  0  0  0  0  0  0  0
   37.8406   13.2959    0.0000 H   0  0  0  0  0  0  0  0  0  0  0  0
   37.1001   13.2959    0.0000 H   0  0  0  0  0  0  0  0  0  0  0  0
   37.8145   11.4089    0.0000 H   0  0  0  0  0  0  0  0  0  0  0  0
   38.5551   11.4089    0.0000 H   0  0  0  0  0  0  0  0  0  0  0  0
   39.2695   13.2959    0.0000 H   0  0  0  0  0  0  0  0  0  0  0  0
   38.5290   13.2959    0.0000 H   0  0  0  0  0  0  0  0  0  0  0  0
   39.2435   11.4089    0.0000 H   0  0  0  0  0  0  0  0  0  0  0  0
   39.9840   11.4089    0.0000 H   0  0  0  0  0  0  0  0  0  0  0  0
   40.6985   13.2959    0.0000 H   0  0  0  0  0  0  0  0  0  0  0  0
   39.9580   13.2959    0.0000 H   0  0  0  0  0  0  0  0  0  0  0  0
   40.6724   11.4089    0.0000 H   0  0  0  0  0  0  0  0  0  0  0  0
   41.4129   11.4089    0.0000 H   0  0  0  0  0  0  0  0  0  0  0  0
   42.1274   13.2959    0.0000 H   0  0  0  0  0  0  0  0  0  0  0  0
   41.3869   13.2959    0.0000 H   0  0  0  0  0  0  0  0  0  0  0  0
   42.1014   11.4089    0.0000 H   0  0  0  0  0  0  0  0  0  0  0  0
   42.8419   11.4089    0.0000 H   0  0  0  0  0  0  0  0  0  0  0  0
   43.5564   13.2959    0.0000 H   0  0  0  0  0  0  0  0  0  0  0  0
   42.8158   13.2959    0.0000 H   0  0  0  0  0  0  0  0  0  0  0  0
   43.5303   11.4089    0.0000 H   0  0  0  0  0  0  0  0  0  0  0  0
   44.2708   11.4089    0.0000 H   0  0  0  0  0  0  0  0  0  0  0  0
   44.9853   13.2959    0.0000 H   0  0  0  0  0  0  0  0  0  0  0  0
   44.2448   13.2959    0.0000 H   0  0  0  0  0  0  0  0  0  0  0  0
   44.9593   11.4089    0.0000 H   0  0  0  0  0  0  0  0  0  0  0  0
   45.6998   11.4089    0.0000 H   0  0  0  0  0  0  0  0  0  0  0  0
   46.4565   11.8442    0.0000 H   0  0  0  0  0  0  0  0  0  0  0  0
   46.7585   12.9712    0.0000 H   0  0  0  0  0  0  0  0  0  0  0  0
   45.6315   13.2731    0.0000 H   0  0  0  0  0  0  0  0  0  0  0  0
  1  2  1  0  0  0  0
  2  3  1  0  0  0  0
  3  4  1  0  0  0  0
  4  5  1  0  0  0  0
  5  6  1  0  0  0  0
  6  7  1  0  0  0  0
  7  8  1  0  0  0  0
  8  9  1  0  0  0  0
  9 10  1  0  0  0  0
 10 11  1  0  0  0  0
 11 12  1  0  0  0  0
 12 13  1  0  0  0  0
 13 14  1  0  0  0  0
 14 15  1  0  0  0  0
 15 16  1  0  0  0  0
 16 17  1  0  0  0  0
 17 18  1  0  0  0  0
 18 19  1  0  0  0  0
 19 20  1  0  0  0  0
 20 21  2  0  0  0  0
 20 22  1  0  0  0  0
 22 23  1  0  0  0  0
 23 24  1  0  0  0  0
 24 25  1  0  0  0  0
 25 26  1  0  0  0  0
 26 27  1  0  0  0  0
 27 28  1  0  0  0  0
 28 29  1  0  0  0  0
 29 30  1  0  0  0  0
 30 31  1  0  0  0  0
 31 32  1  0  0  0  0
 32 33  1  0  0  0  0
 33 34  1  0  0  0  0
 34 35  1  0  0  0  0
 35 36  1  0  0  0  0
 36 37  1  0  0  0  0
 37 38  1  0  0  0  0
  1 39  1  0  0  0  0
  1 40  1  0  0  0  0
  1 41  1  0  0  0  0
  2 42  1  0  0  0  0
  2 43  1  0  0  0  0
  3 44  1  0  0  0  0
  3 45  1  0  0  0  0
  4 46  1  0  0  0  0
  4 47  1  0  0  0  0
  5 48  1  0  0  0  0
  5 49  1  0  0  0  0
  6 50  1  0  0  0  0
  6 51  1  0  0  0  0
  7 52  1  0  0  0  0
  7 53  1  0  0  0  0
  8 54  1  0  0  0  0
  8 55  1  0  0  0  0
  9 56  1  0  0  0  0
  9 57  1  0  0  0  0
 10 58  1  0  0  0  0
 10 59  1  0  0  0  0
 11 60  1  0  0  0  0
 11 61  1  0  0  0  0
 12 62  1  0  0  0  0
 12 63  1  0  0  0  0
 13 64  1  0  0  0  0
 13 65  1  0  0  0  0
 14 66  1  0  0  0  0
 14 67  1  0  0  0  0
 15 68  1  0  0  0  0
 15 69  1  0  0  0  0
 16 70  1  0  0  0  0
 16 71  1  0  0  0  0
 17 72  1  0  0  0  0
 17 73  1  0  0  0  0
 18 74  1  0  0  0  0
 18 75  1  0  0  0  0
 19 76  1  0  0  0  0
 22 77  1  0  0  0  0
 22 78  1  0  0  0  0
 23 79  1  0  0  0  0
 23 80  1  0  0  0  0
 24 81  1  0  0  0  0
 24 82  1  0  0  0  0
 25 83  1  0  0  0  0
 25 84  1  0  0  0  0
 26 85  1  0  0  0  0
 26 86  1  0  0  0  0
 27 87  1  0  0  0  0
 27 88  1  0  0  0  0
 28 89  1  0  0  0  0
 28 90  1  0  0  0  0
 29 91  1  0  0  0  0
 29 92  1  0  0  0  0
 30 93  1  0  0  0  0
 30 94  1  0  0  0  0
 31 95  1  0  0  0  0
 31 96  1  0  0  0  0
 32 97  1  0  0  0  0
 32 98  1  0  0  0  0
 33 99  1  0  0  0  0
 33100  1  0  0  0  0
 34101  1  0  0  0  0
 34102  1  0  0  0  0
 35103  1  0  0  0  0
 35104  1  0  0  0  0
 36105  1  0  0  0  0
 36106  1  0  0  0  0
 37107  1  0  0  0  0
 37108  1  0  0  0  0
 38109  1  0  0  0  0
 38110  1  0  0  0  0
 38111  1  0  0  0  0
M  END
>  <InChIKey>
DJWFNQUDPJTSAD-UHFFFAOYSA-N

>  <UN GHS>
Non-irritant

>  <CASRN>
13276-08-9

> <Outcome>
0

>  <Index>
138

>  <StandardizerResult>
Clear Stereo (ID: ClearStereo)
Wedge Clean (ID: WedgeClean)
Mesomerize (ID: Mesomerize)
Tautomerize (ID: Tautomerize)
Add Explicit Hydrogens (ID: AddExplicitH)
Neutralize (ID: Neutralize)
Clean 2D (ID: Clean2D)

> <knn Distance>
3.0

> <CpId>
138

$$$$
150
  Mrv1532301301811342D          

 42 42  0  0  0  0            999 V2000
   -1.4293   -4.1244    0.0000 C   0  0  0  0  0  0  0  0  0  0  0  0
   -0.7148   -3.7119    0.0000 C   0  0  0  0  0  0  0  0  0  0  0  0
   -0.7148   -2.8869    0.0000 C   0  0  0  0  0  0  0  0  0  0  0  0
   -0.0004   -2.4744    0.0000 C   0  0  0  0  0  0  0  0  0  0  0  0
   -0.0004   -1.6494    0.0000 O   0  0  0  0  0  0  0  0  0  0  0  0
    0.7141   -1.2369    0.0000 C   0  0  0  0  0  0  0  0  0  0  0  0
    1.4286   -1.6494    0.0000 O   0  0  0  0  0  0  0  0  0  0  0  0
    0.7141   -0.4119    0.0000 C   0  0  0  0  0  0  0  0  0  0  0  0
   -0.0004    0.0006    0.0000 C   0  0  0  0  0  0  0  0  0  0  0  0
   -0.0004    0.8256    0.0000 C   0  0  0  0  0  0  0  0  0  0  0  0
    0.7141    1.2381    0.0000 C   0  0  0  0  0  0  0  0  0  0  0  0
    1.4286    0.8256    0.0000 C   0  0  0  0  0  0  0  0  0  0  0  0
    1.4286    0.0006    0.0000 C   0  0  0  0  0  0  0  0  0  0  0  0
    2.1431   -0.4119    0.0000 C   0  0  0  0  0  0  0  0  0  0  0  0
    2.1431   -1.2369    0.0000 O   0  0  0  0  0  0  0  0  0  0  0  0
    2.8575    0.0006    0.0000 O   0  0  0  0  0  0  0  0  0  0  0  0
    3.5720   -0.4119    0.0000 C   0  0  0  0  0  0  0  0  0  0  0  0
    4.2865    0.0006    0.0000 C   0  0  0  0  0  0  0  0  0  0  0  0
    5.0009   -0.4119    0.0000 C   0  0  0  0  0  0  0  0  0  0  0  0
    5.7154    0.0006    0.0000 C   0  0  0  0  0  0  0  0  0  0  0  0
   -1.8418   -3.4099    0.0000 H   0  0  0  0  0  0  0  0  0  0  0  0
   -2.1438   -4.5369    0.0000 H   0  0  0  0  0  0  0  0  0  0  0  0
   -1.0168   -4.8388    0.0000 H   0  0  0  0  0  0  0  0  0  0  0  0
   -0.2615   -4.4011    0.0000 H   0  0  0  0  0  0  0  0  0  0  0  0
    0.1088   -3.7598    0.0000 H   0  0  0  0  0  0  0  0  0  0  0  0
   -1.1682   -2.1976    0.0000 H   0  0  0  0  0  0  0  0  0  0  0  0
   -1.5384   -2.8389    0.0000 H   0  0  0  0  0  0  0  0  0  0  0  0
    0.4530   -3.1636    0.0000 H   0  0  0  0  0  0  0  0  0  0  0  0
    0.8232   -2.5223    0.0000 H   0  0  0  0  0  0  0  0  0  0  0  0
   -0.7148   -0.4119    0.0000 H   0  0  0  0  0  0  0  0  0  0  0  0
   -0.7148    1.2381    0.0000 H   0  0  0  0  0  0  0  0  0  0  0  0
    0.7141    2.0631    0.0000 H   0  0  0  0  0  0  0  0  0  0  0  0
    2.1431    1.2381    0.0000 H   0  0  0  0  0  0  0  0  0  0  0  0
    3.2017   -1.1491    0.0000 H   0  0  0  0  0  0  0  0  0  0  0  0
    3.9423   -1.1491    0.0000 H   0  0  0  0  0  0  0  0  0  0  0  0
    4.6567    0.7379    0.0000 H   0  0  0  0  0  0  0  0  0  0  0  0
    3.9162    0.7379    0.0000 H   0  0  0  0  0  0  0  0  0  0  0  0
    4.6307   -1.1491    0.0000 H   0  0  0  0  0  0  0  0  0  0  0  0
    5.3712   -1.1491    0.0000 H   0  0  0  0  0  0  0  0  0  0  0  0
    6.1279   -0.7138    0.0000 H   0  0  0  0  0  0  0  0  0  0  0  0
    6.4299    0.4131    0.0000 H   0  0  0  0  0  0  0  0  0  0  0  0
    5.3029    0.7151    0.0000 H   0  0  0  0  0  0  0  0  0  0  0  0
  1  2  1  0  0  0  0
  2  3  1  0  0  0  0
  3  4  1  0  0  0  0
  4  5  1  0  0  0  0
  5  6  1  0  0  0  0
  6  7  2  0  0  0  0
  6  8  1  0  0  0  0
  8  9  4  0  0  0  0
  9 10  4  0  0  0  0
 10 11  4  0  0  0  0
 11 12  4  0  0  0  0
 12 13  4  0  0  0  0
  8 13  4  0  0  0  0
 13 14  1  0  0  0  0
 14 15  2  0  0  0  0
 14 16  1  0  0  0  0
 16 17  1  0  0  0  0
 17 18  1  0  0  0  0
 18 19  1  0  0  0  0
 19 20  1  0  0  0  0
  1 21  1  0  0  0  0
  1 22  1  0  0  0  0
  1 23  1  0  0  0  0
  2 24  1  0  0  0  0
  2 25  1  0  0  0  0
  3 26  1  0  0  0  0
  3 27  1  0  0  0  0
  4 28  1  0  0  0  0
  4 29  1  0  0  0  0
  9 30  1  0  0  0  0
 10 31  1  0  0  0  0
 11 32  1  0  0  0  0
 12 33  1  0  0  0  0
 17 34  1  0  0  0  0
 17 35  1  0  0  0  0
 18 36  1  0  0  0  0
 18 37  1  0  0  0  0
 19 38  1  0  0  0  0
 19 39  1  0  0  0  0
 20 40  1  0  0  0  0
 20 41  1  0  0  0  0
 20 42  1  0  0  0  0
M  END
>  <InChIKey>
DOIRQSBPFJWKBE-UHFFFAOYSA-N

>  <UN GHS>
Non-irritant

>  <CASRN>
84-74-2

> <Outcome>
0

>  <Index>
150

>  <StandardizerResult>
Dearomatize (ID: Dearomatize)
Clear Stereo (ID: ClearStereo)
Wedge Clean (ID: WedgeClean)
Mesomerize (ID: Mesomerize)
Tautomerize (ID: Tautomerize)
Aromatize (ID: Aromatize)
Add Explicit Hydrogens (ID: AddExplicitH)
Neutralize (ID: Neutralize)
Clean 2D (ID: Clean2D)

> <knn Distance>
3.0

> <CpId>
150

$$$$
218
  Mrv1532301301811342D          

 36 37  0  0  0  0            999 V2000
    0.6514   -2.9262    0.0000 C   0  0  0  0  0  0  0  0  0  0  0  0
    1.3659   -2.5137    0.0000 C   0  0  0  0  0  0  0  0  0  0  0  0
    2.0803   -2.9262    0.0000 C   0  0  0  0  0  0  0  0  0  0  0  0
    1.3659   -1.6887    0.0000 C   0  0  0  0  0  0  0  0  0  0  0  0
    0.6514   -1.2762    0.0000 C   0  0  0  0  0  0  0  0  0  0  0  0
    0.6514   -0.4512    0.0000 C   0  0  0  0  0  0  0  0  0  0  0  0
    1.3659   -0.0387    0.0000 C   0  0  0  0  0  0  0  0  0  0  0  0
    2.0803   -0.4512    0.0000 C   0  0  0  0  0  0  0  0  0  0  0  0
    2.7948   -0.0387    0.0000 C   0  0  0  0  0  0  0  0  0  0  0  0
    3.5093   -0.4512    0.0000 C   0  0  0  0  0  0  0  0  0  0  0  0
    3.5093   -1.2762    0.0000 C   0  0  0  0  0  0  0  0  0  0  0  0
    2.7948   -1.6887    0.0000 C   0  0  0  0  0  0  0  0  0  0  0  0
    2.0803   -1.2762    0.0000 C   0  0  0  0  0  0  0  0  0  0  0  0
    2.7948    0.7863    0.0000 C   0  0  0  0  0  0  0  0  0  0  0  0
    2.0803    1.1988    0.0000 C   0  0  0  0  0  0  0  0  0  0  0  0
    3.5093    1.1988    0.0000 C   0  0  0  0  0  0  0  0  0  0  0  0
    0.2389   -2.2117    0.0000 H   0  0  0  0  0  0  0  0  0  0  0  0
   -0.0631   -3.3387    0.0000 H   0  0  0  0  0  0  0  0  0  0  0  0
    1.0639   -3.6406    0.0000 H   0  0  0  0  0  0  0  0  0  0  0  0
    1.3659   -3.3387    0.0000 H   0  0  0  0  0  0  0  0  0  0  0  0
    2.2939   -3.7231    0.0000 H   0  0  0  0  0  0  0  0  0  0  0  0
    2.9053   -2.9262    0.0000 H   0  0  0  0  0  0  0  0  0  0  0  0
    2.2939   -2.1293    0.0000 H   0  0  0  0  0  0  0  0  0  0  0  0
   -0.0631   -1.6887    0.0000 H   0  0  0  0  0  0  0  0  0  0  0  0
   -0.0631   -0.0387    0.0000 H   0  0  0  0  0  0  0  0  0  0  0  0
    1.3659    0.7863    0.0000 H   0  0  0  0  0  0  0  0  0  0  0  0
    4.2238   -0.0387    0.0000 H   0  0  0  0  0  0  0  0  0  0  0  0
    4.2238   -1.6887    0.0000 H   0  0  0  0  0  0  0  0  0  0  0  0
    3.2759   -2.3589    0.0000 H   0  0  0  0  0  0  0  0  0  0  0  0
    2.0803    0.3738    0.0000 H   0  0  0  0  0  0  0  0  0  0  0  0
    2.7948    1.6113    0.0000 H   0  0  0  0  0  0  0  0  0  0  0  0
    2.0803    2.0238    0.0000 H   0  0  0  0  0  0  0  0  0  0  0  0
    1.3659    1.6113    0.0000 H   0  0  0  0  0  0  0  0  0  0  0  0
    3.7228    0.4019    0.0000 H   0  0  0  0  0  0  0  0  0  0  0  0
    4.3343    1.1988    0.0000 H   0  0  0  0  0  0  0  0  0  0  0  0
    3.7228    1.9957    0.0000 H   0  0  0  0  0  0  0  0  0  0  0  0
  1  2  1  0  0  0  0
  2  3  1  0  0  0  0
  2  4  1  0  0  0  0
  4  5  4  0  0  0  0
  5  6  4  0  0  0  0
  6  7  4  0  0  0  0
  7  8  4  0  0  0  0
  8  9  4  0  0  0  0
  9 10  4  0  0  0  0
 10 11  4  0  0  0  0
 11 12  4  0  0  0  0
 12 13  4  0  0  0  0
  4 13  4  0  0  0  0
  8 13  4  0  0  0  0
  9 14  1  0  0  0  0
 14 15  1  0  0  0  0
 14 16  1  0  0  0  0
  1 17  1  0  0  0  0
  1 18  1  0  0  0  0
  1 19  1  0  0  0  0
  2 20  1  0  0  0  0
  3 21  1  0  0  0  0
  3 22  1  0  0  0  0
  3 23  1  0  0  0  0
  5 24  1  0  0  0  0
  6 25  1  0  0  0  0
  7 26  1  0  0  0  0
 10 27  1  0  0  0  0
 11 28  1  0  0  0  0
 12 29  1  0  0  0  0
 14 30  1  0  0  0  0
 15 31  1  0  0  0  0
 15 32  1  0  0  0  0
 15 33  1  0  0  0  0
 16 34  1  0  0  0  0
 16 35  1  0  0  0  0
 16 36  1  0  0  0  0
M  END
>  <InChIKey>
GFZWCYSEPXDDRI-UHFFFAOYSA-N

>  <UN GHS>
Non-irritant

>  <CASRN>
38640-62-9

> <Outcome>
0

>  <Index>
218

>  <StandardizerResult>
Dearomatize (ID: Dearomatize)
Clear Stereo (ID: ClearStereo)
Wedge Clean (ID: WedgeClean)
Mesomerize (ID: Mesomerize)
Tautomerize (ID: Tautomerize)
Aromatize (ID: Aromatize)
Add Explicit Hydrogens (ID: AddExplicitH)
Neutralize (ID: Neutralize)
Clean 2D (ID: Clean2D)

> <knn Distance>
3.0

> <CpId>
218

$$$$
239
  Mrv1532301301811342D          

 27 27  0  0  0  0            999 V2000
    0.0797    2.5601    0.0000 C   0  0  0  0  0  0  0  0  0  0  0  0
    0.7942    2.1476    0.0000 C   0  0  0  0  0  0  0  0  0  0  0  0
    1.5087    2.5601    0.0000 C   0  0  0  0  0  0  0  0  0  0  0  0
    0.7942    1.3226    0.0000 C   0  0  0  0  0  0  0  0  0  0  0  0
    1.5087    0.9101    0.0000 C   0  0  0  0  0  0  0  0  0  0  0  0
    1.5087    0.0851    0.0000 C   0  0  0  0  0  0  0  0  0  0  0  0
    0.7942   -0.3274    0.0000 C   0  0  0  0  0  0  0  0  0  0  0  0
    0.0797    0.0851    0.0000 C   0  0  0  0  0  0  0  0  0  0  0  0
    0.0797    0.9101    0.0000 C   0  0  0  0  0  0  0  0  0  0  0  0
    0.4922    3.2746    0.0000 H   0  0  0  0  0  0  0  0  0  0  0  0
   -0.6347    2.9726    0.0000 H   0  0  0  0  0  0  0  0  0  0  0  0
   -0.3328    1.8457    0.0000 H   0  0  0  0  0  0  0  0  0  0  0  0
    0.7942    2.9726    0.0000 H   0  0  0  0  0  0  0  0  0  0  0  0
    1.7222    1.7633    0.0000 H   0  0  0  0  0  0  0  0  0  0  0  0
    2.3337    2.5601    0.0000 H   0  0  0  0  0  0  0  0  0  0  0  0
    1.7222    3.3570    0.0000 H   0  0  0  0  0  0  0  0  0  0  0  0
    0.0797    1.7351    0.0000 H   0  0  0  0  0  0  0  0  0  0  0  0
    2.3275    0.8092    0.0000 H   0  0  0  0  0  0  0  0  0  0  0  0
    0.7942    0.4976    0.0000 H   0  0  0  0  0  0  0  0  0  0  0  0
    1.9620   -0.6041    0.0000 H   0  0  0  0  0  0  0  0  0  0  0  0
    2.3323    0.0372    0.0000 H   0  0  0  0  0  0  0  0  0  0  0  0
    0.4240   -1.0646    0.0000 H   0  0  0  0  0  0  0  0  0  0  0  0
    1.1645   -1.0646    0.0000 H   0  0  0  0  0  0  0  0  0  0  0  0
   -0.7439    0.0372    0.0000 H   0  0  0  0  0  0  0  0  0  0  0  0
   -0.3736   -0.6041    0.0000 H   0  0  0  0  0  0  0  0  0  0  0  0
   -0.6955    1.1923    0.0000 H   0  0  0  0  0  0  0  0  0  0  0  0
   -0.6955    0.6280    0.0000 H   0  0  0  0  0  0  0  0  0  0  0  0
  1  2  1  0  0  0  0
  2  3  1  0  0  0  0
  2  4  1  0  0  0  0
  4  5  1  0  0  0  0
  5  6  1  0  0  0  0
  6  7  1  0  0  0  0
  7  8  1  0  0  0  0
  8  9  1  0  0  0  0
  4  9  1  0  0  0  0
  1 10  1  0  0  0  0
  1 11  1  0  0  0  0
  1 12  1  0  0  0  0
  2 13  1  0  0  0  0
  3 14  1  0  0  0  0
  3 15  1  0  0  0  0
  3 16  1  0  0  0  0
  4 17  1  0  0  0  0
  5 18  1  0  0  0  0
  5 19  1  0  0  0  0
  6 20  1  0  0  0  0
  6 21  1  0  0  0  0
  7 22  1  0  0  0  0
  7 23  1  0  0  0  0
  8 24  1  0  0  0  0
  8 25  1  0  0  0  0
  9 26  1  0  0  0  0
  9 27  1  0  0  0  0
M  END
>  <InChIKey>
GWESVXSMPKAFAS-UHFFFAOYSA-N

>  <UN GHS>
Non-irritant

>  <CASRN>
696-29-7

> <Outcome>
0

>  <Index>
239

>  <StandardizerResult>
Clear Stereo (ID: ClearStereo)
Wedge Clean (ID: WedgeClean)
Mesomerize (ID: Mesomerize)
Tautomerize (ID: Tautomerize)
Add Explicit Hydrogens (ID: AddExplicitH)
Neutralize (ID: Neutralize)
Clean 2D (ID: Clean2D)

> <knn Distance>
3.0

> <CpId>
239

$$$$
244
  Mrv1532301301811342D          

 24 23  0  0  0  0            999 V2000
    0.9771    1.4845    0.0000 C   0  0  0  0  0  0  0  0  0  0  0  0
    1.6916    1.8970    0.0000 C   0  0  0  0  0  0  0  0  0  0  0  0
    1.6916    2.7220    0.0000 C   0  0  0  0  0  0  0  0  0  0  0  0
    2.4061    1.4845    0.0000 O   0  0  0  0  0  0  0  0  0  0  0  0
    3.1206    1.8970    0.0000 C   0  0  0  0  0  0  0  0  0  0  0  0
    3.8350    1.4845    0.0000 C   0  0  0  0  0  0  0  0  0  0  0  0
    4.5495    1.8970    0.0000 O   0  0  0  0  0  0  0  0  0  0  0  0
    5.2640    1.4845    0.0000 C   0  0  0  0  0  0  0  0  0  0  0  0
    5.9784    1.8970    0.0000 C   0  0  0  0  0  0  0  0  0  0  0  0
    5.2640    0.6595    0.0000 O   0  0  0  0  0  0  0  0  0  0  0  0
    0.5646    2.1989    0.0000 H   0  0  0  0  0  0  0  0  0  0  0  0
    0.2627    1.0720    0.0000 H   0  0  0  0  0  0  0  0  0  0  0  0
    1.3896    0.7700    0.0000 H   0  0  0  0  0  0  0  0  0  0  0  0
    0.9771    2.3095    0.0000 H   0  0  0  0  0  0  0  0  0  0  0  0
    2.4885    2.5084    0.0000 H   0  0  0  0  0  0  0  0  0  0  0  0
    2.1041    3.4364    0.0000 H   0  0  0  0  0  0  0  0  0  0  0  0
    1.1083    3.3053    0.0000 H   0  0  0  0  0  0  0  0  0  0  0  0
    3.6174    2.5556    0.0000 H   0  0  0  0  0  0  0  0  0  0  0  0
    3.1206    1.0720    0.0000 H   0  0  0  0  0  0  0  0  0  0  0  0
    3.9783    0.6720    0.0000 H   0  0  0  0  0  0  0  0  0  0  0  0
    4.4670    0.9542    0.0000 H   0  0  0  0  0  0  0  0  0  0  0  0
    6.3909    1.1825    0.0000 H   0  0  0  0  0  0  0  0  0  0  0  0
    6.6929    2.3095    0.0000 H   0  0  0  0  0  0  0  0  0  0  0  0
    5.5659    2.6114    0.0000 H   0  0  0  0  0  0  0  0  0  0  0  0
  1  2  1  0  0  0  0
  2  3  1  0  0  0  0
  2  4  1  0  0  0  0
  4  5  1  0  0  0  0
  5  6  1  0  0  0  0
  6  7  1  0  0  0  0
  7  8  1  0  0  0  0
  8  9  1  0  0  0  0
  8 10  2  0  0  0  0
  1 11  1  0  0  0  0
  1 12  1  0  0  0  0
  1 13  1  0  0  0  0
  2 14  1  0  0  0  0
  3 15  1  0  0  0  0
  3 16  1  0  0  0  0
  3 17  1  0  0  0  0
  5 18  1  0  0  0  0
  5 19  1  0  0  0  0
  6 20  1  0  0  0  0
  6 21  1  0  0  0  0
  9 22  1  0  0  0  0
  9 23  1  0  0  0  0
  9 24  1  0  0  0  0
M  END
>  <InChIKey>
HCDJVEYJSSTYSW-UHFFFAOYSA-N

>  <UN GHS>
Non-irritant

>  <CASRN>
19234-20-9

> <Outcome>
0

>  <Index>
244

>  <StandardizerResult>
Clear Stereo (ID: ClearStereo)
Wedge Clean (ID: WedgeClean)
Mesomerize (ID: Mesomerize)
Tautomerize (ID: Tautomerize)
Add Explicit Hydrogens (ID: AddExplicitH)
Neutralize (ID: Neutralize)
Clean 2D (ID: Clean2D)

> <knn Distance>
3.0

> <CpId>
244

$$$$
246
  Mrv1532301301811342D          

 48 49  0  0  0  0            999 V2000
    2.1213    0.4529    0.0000 C   0  0  0  0  0  0  0  0  0  0  0  0
    2.1213   -0.3721    0.0000 C   0  0  0  0  0  0  0  0  0  0  0  0
    1.2963   -0.3721    0.0000 C   0  0  0  0  0  0  0  0  0  0  0  0
    2.9463   -0.3721    0.0000 C   0  0  0  0  0  0  0  0  0  0  0  0
    2.1213   -1.1971    0.0000 C   0  0  0  0  0  0  0  0  0  0  0  0
    2.8358   -1.6096    0.0000 C   0  0  0  0  0  0  0  0  0  0  0  0
    2.8358   -2.4346    0.0000 C   0  0  0  0  0  0  0  0  0  0  0  0
    3.5503   -2.8471    0.0000 C   0  0  0  0  0  0  0  0  0  0  0  0
    3.5503   -3.6721    0.0000 C   0  0  0  0  0  0  0  0  0  0  0  0
    4.2647   -4.0846    0.0000 C   0  0  0  0  0  0  0  0  0  0  0  0
    4.2647   -4.9096    0.0000 C   0  0  0  0  0  0  0  0  0  0  0  0
    3.5503   -5.3221    0.0000 C   0  0  0  0  0  0  0  0  0  0  0  0
    2.8358   -4.9096    0.0000 C   0  0  0  0  0  0  0  0  0  0  0  0
    2.8358   -4.0846    0.0000 C   0  0  0  0  0  0  0  0  0  0  0  0
    2.1213   -2.8471    0.0000 C   0  0  0  0  0  0  0  0  0  0  0  0
    1.4069   -2.4346    0.0000 C   0  0  0  0  0  0  0  0  0  0  0  0
    1.4069   -1.6096    0.0000 C   0  0  0  0  0  0  0  0  0  0  0  0
    0.6924   -1.1971    0.0000 O   0  0  0  0  0  0  0  0  0  0  0  0
    0.6924   -2.8471    0.0000 C   0  0  0  0  0  0  0  0  0  0  0  0
   -0.0221   -3.2596    0.0000 C   0  0  0  0  0  0  0  0  0  0  0  0
    0.2799   -2.1326    0.0000 C   0  0  0  0  0  0  0  0  0  0  0  0
    1.1049   -3.5615    0.0000 C   0  0  0  0  0  0  0  0  0  0  0  0
    2.9463    0.4529    0.0000 H   0  0  0  0  0  0  0  0  0  0  0  0
    2.1213    1.2779    0.0000 H   0  0  0  0  0  0  0  0  0  0  0  0
    1.2963    0.4529    0.0000 H   0  0  0  0  0  0  0  0  0  0  0  0
    0.5341   -0.0564    0.0000 H   0  0  0  0  0  0  0  0  0  0  0  0
    0.7130   -0.9554    0.0000 H   0  0  0  0  0  0  0  0  0  0  0  0
    1.6120   -1.1343    0.0000 H   0  0  0  0  0  0  0  0  0  0  0  0
    2.6306   -1.1343    0.0000 H   0  0  0  0  0  0  0  0  0  0  0  0
    3.5297   -0.9554    0.0000 H   0  0  0  0  0  0  0  0  0  0  0  0
    3.7085   -0.0564    0.0000 H   0  0  0  0  0  0  0  0  0  0  0  0
    3.5933   -1.9365    0.0000 H   0  0  0  0  0  0  0  0  0  0  0  0
    4.3750   -2.8665    0.0000 H   0  0  0  0  0  0  0  0  0  0  0  0
    4.9792   -3.6721    0.0000 H   0  0  0  0  0  0  0  0  0  0  0  0
    4.9792   -5.3221    0.0000 H   0  0  0  0  0  0  0  0  0  0  0  0
    3.5503   -6.1471    0.0000 H   0  0  0  0  0  0  0  0  0  0  0  0
    2.1213   -5.3221    0.0000 H   0  0  0  0  0  0  0  0  0  0  0  0
    2.1213   -3.6721    0.0000 H   0  0  0  0  0  0  0  0  0  0  0  0
    1.4069   -3.2596    0.0000 H   0  0  0  0  0  0  0  0  0  0  0  0
   -0.4346   -2.5451    0.0000 H   0  0  0  0  0  0  0  0  0  0  0  0
   -0.7366   -3.6721    0.0000 H   0  0  0  0  0  0  0  0  0  0  0  0
    0.3904   -3.9740    0.0000 H   0  0  0  0  0  0  0  0  0  0  0  0
    1.0978   -2.0249    0.0000 H   0  0  0  0  0  0  0  0  0  0  0  0
    0.4934   -1.3357    0.0000 H   0  0  0  0  0  0  0  0  0  0  0  0
   -0.3746   -1.6304    0.0000 H   0  0  0  0  0  0  0  0  0  0  0  0
    0.9439   -4.3707    0.0000 H   0  0  0  0  0  0  0  0  0  0  0  0
    1.6071   -4.2161    0.0000 H   0  0  0  0  0  0  0  0  0  0  0  0
    1.9281   -3.6155    0.0000 H   0  0  0  0  0  0  0  0  0  0  0  0
  1  2  1  0  0  0  0
  2  3  1  0  0  0  0
  2  4  1  0  0  0  0
  2  5  1  0  0  0  0
  5  6  2  0  0  0  0
  6  7  1  0  0  0  0
  7  8  2  0  0  0  0
  8  9  1  4  0  0  0
  9 10  4  0  0  0  0
 10 11  4  0  0  0  0
 11 12  4  0  0  0  0
 12 13  4  0  0  0  0
 13 14  4  0  0  0  0
  9 14  4  0  0  0  0
  7 15  1  0  0  0  0
 15 16  2  0  0  0  0
 16 17  1  0  0  0  0
  5 17  1  0  0  0  0
 17 18  2  0  0  0  0
 16 19  1  0  0  0  0
 19 20  1  0  0  0  0
 19 21  1  0  0  0  0
 19 22  1  0  0  0  0
  1 23  1  0  0  0  0
  1 24  1  0  0  0  0
  1 25  1  0  0  0  0
  3 26  1  0  0  0  0
  3 27  1  0  0  0  0
  3 28  1  0  0  0  0
  4 29  1  0  0  0  0
  4 30  1  0  0  0  0
  4 31  1  0  0  0  0
  6 32  1  0  0  0  0
  8 33  1  0  0  0  0
 10 34  1  0  0  0  0
 11 35  1  0  0  0  0
 12 36  1  0  0  0  0
 13 37  1  0  0  0  0
 14 38  1  0  0  0  0
 15 39  1  0  0  0  0
 20 40  1  0  0  0  0
 20 41  1  0  0  0  0
 20 42  1  0  0  0  0
 21 43  1  0  0  0  0
 21 44  1  0  0  0  0
 21 45  1  0  0  0  0
 22 46  1  0  0  0  0
 22 47  1  0  0  0  0
 22 48  1  0  0  0  0
M  END
>  <InChIKey>
HCUWXYBKPSKTAB-UHFFFAOYSA-N

>  <UN GHS>
Non-irritant

>  <CASRN>
7078-98-0

> <Outcome>
0

>  <Index>
246

>  <StandardizerResult>
Dearomatize (ID: Dearomatize)
Clear Stereo (ID: ClearStereo)
Wedge Clean (ID: WedgeClean)
Mesomerize (ID: Mesomerize)
Tautomerize (ID: Tautomerize)
Aromatize (ID: Aromatize)
Add Explicit Hydrogens (ID: AddExplicitH)
Neutralize (ID: Neutralize)
Clean 2D (ID: Clean2D)

> <knn Distance>
3.0

> <CpId>
246

$$$$
265
  Mrv1532301301811342D          

 72 72  0  0  0  0            999 V2000
   -7.1852    3.3149    0.0000 C   0  0  0  0  0  0  0  0  0  0  0  0
   -6.4707    3.7274    0.0000 C   0  0  0  0  0  0  0  0  0  0  0  0
   -5.7563    3.3149    0.0000 C   0  0  0  0  0  0  0  0  0  0  0  0
   -5.0418    3.7274    0.0000 C   0  0  0  0  0  0  0  0  0  0  0  0
   -4.3273    3.3149    0.0000 C   0  0  0  0  0  0  0  0  0  0  0  0
   -4.3273    2.4899    0.0000 C   0  0  0  0  0  0  0  0  0  0  0  0
   -3.6129    2.0774    0.0000 C   0  0  0  0  0  0  0  0  0  0  0  0
   -3.6129    3.7274    0.0000 C   0  0  0  0  0  0  0  0  0  0  0  0
   -2.8984    3.3149    0.0000 O   0  0  0  0  0  0  0  0  0  0  0  0
   -2.1839    3.7274    0.0000 C   0  0  0  0  0  0  0  0  0  0  0  0
   -2.1839    4.5524    0.0000 O   0  0  0  0  0  0  0  0  0  0  0  0
   -1.4694    3.3149    0.0000 C   0  0  0  0  0  0  0  0  0  0  0  0
   -0.7550    3.7274    0.0000 C   0  0  0  0  0  0  0  0  0  0  0  0
   -0.0405    3.3149    0.0000 C   0  0  0  0  0  0  0  0  0  0  0  0
   -0.0405    2.4899    0.0000 C   0  0  0  0  0  0  0  0  0  0  0  0
   -0.7550    2.0774    0.0000 C   0  0  0  0  0  0  0  0  0  0  0  0
   -1.4694    2.4899    0.0000 C   0  0  0  0  0  0  0  0  0  0  0  0
    0.6740    2.0774    0.0000 C   0  0  0  0  0  0  0  0  0  0  0  0
    0.6740    1.2524    0.0000 O   0  0  0  0  0  0  0  0  0  0  0  0
    1.3884    2.4899    0.0000 O   0  0  0  0  0  0  0  0  0  0  0  0
    2.1029    2.0774    0.0000 C   0  0  0  0  0  0  0  0  0  0  0  0
    2.8174    2.4899    0.0000 C   0  0  0  0  0  0  0  0  0  0  0  0
    2.8174    3.3149    0.0000 C   0  0  0  0  0  0  0  0  0  0  0  0
    3.5318    3.7274    0.0000 C   0  0  0  0  0  0  0  0  0  0  0  0
    3.5318    2.0774    0.0000 C   0  0  0  0  0  0  0  0  0  0  0  0
    4.2463    2.4899    0.0000 C   0  0  0  0  0  0  0  0  0  0  0  0
    4.9608    2.0774    0.0000 C   0  0  0  0  0  0  0  0  0  0  0  0
    5.6753    2.4899    0.0000 C   0  0  0  0  0  0  0  0  0  0  0  0
   -7.5977    4.0293    0.0000 H   0  0  0  0  0  0  0  0  0  0  0  0
   -7.8997    2.9024    0.0000 H   0  0  0  0  0  0  0  0  0  0  0  0
   -6.7727    2.6004    0.0000 H   0  0  0  0  0  0  0  0  0  0  0  0
   -6.1005    4.4646    0.0000 H   0  0  0  0  0  0  0  0  0  0  0  0
   -6.8410    4.4646    0.0000 H   0  0  0  0  0  0  0  0  0  0  0  0
   -6.1265    2.5776    0.0000 H   0  0  0  0  0  0  0  0  0  0  0  0
   -5.3860    2.5776    0.0000 H   0  0  0  0  0  0  0  0  0  0  0  0
   -4.6715    4.4646    0.0000 H   0  0  0  0  0  0  0  0  0  0  0  0
   -5.4121    4.4646    0.0000 H   0  0  0  0  0  0  0  0  0  0  0  0
   -5.0418    2.9024    0.0000 H   0  0  0  0  0  0  0  0  0  0  0  0
   -4.9593    1.9596    0.0000 H   0  0  0  0  0  0  0  0  0  0  0  0
   -4.4706    1.6774    0.0000 H   0  0  0  0  0  0  0  0  0  0  0  0
   -3.4519    1.2682    0.0000 H   0  0  0  0  0  0  0  0  0  0  0  0
   -2.7886    2.0414    0.0000 H   0  0  0  0  0  0  0  0  0  0  0  0
   -3.3820    2.8694    0.0000 H   0  0  0  0  0  0  0  0  0  0  0  0
   -3.2426    4.4646    0.0000 H   0  0  0  0  0  0  0  0  0  0  0  0
   -3.9831    4.4646    0.0000 H   0  0  0  0  0  0  0  0  0  0  0  0
   -2.1839    2.9024    0.0000 H   0  0  0  0  0  0  0  0  0  0  0  0
   -0.3847    4.4646    0.0000 H   0  0  0  0  0  0  0  0  0  0  0  0
   -1.1252    4.4646    0.0000 H   0  0  0  0  0  0  0  0  0  0  0  0
    0.7831    3.3628    0.0000 H   0  0  0  0  0  0  0  0  0  0  0  0
    0.4128    4.0042    0.0000 H   0  0  0  0  0  0  0  0  0  0  0  0
   -0.0405    1.6649    0.0000 H   0  0  0  0  0  0  0  0  0  0  0  0
   -1.3870    1.5471    0.0000 H   0  0  0  0  0  0  0  0  0  0  0  0
   -0.8982    1.2649    0.0000 H   0  0  0  0  0  0  0  0  0  0  0  0
   -2.1652    2.0466    0.0000 H   0  0  0  0  0  0  0  0  0  0  0  0
   -0.7550    2.9024    0.0000 H   0  0  0  0  0  0  0  0  0  0  0  0
    1.7326    1.3401    0.0000 H   0  0  0  0  0  0  0  0  0  0  0  0
    2.4732    1.3401    0.0000 H   0  0  0  0  0  0  0  0  0  0  0  0
    2.1029    2.9024    0.0000 H   0  0  0  0  0  0  0  0  0  0  0  0
    2.6741    4.1273    0.0000 H   0  0  0  0  0  0  0  0  0  0  0  0
    2.1854    3.8452    0.0000 H   0  0  0  0  0  0  0  0  0  0  0  0
    3.7627    2.9353    0.0000 H   0  0  0  0  0  0  0  0  0  0  0  0
    4.3561    3.7634    0.0000 H   0  0  0  0  0  0  0  0  0  0  0  0
    3.6928    4.5365    0.0000 H   0  0  0  0  0  0  0  0  0  0  0  0
    3.1616    1.3401    0.0000 H   0  0  0  0  0  0  0  0  0  0  0  0
    3.9021    1.3401    0.0000 H   0  0  0  0  0  0  0  0  0  0  0  0
    4.7350    3.1546    0.0000 H   0  0  0  0  0  0  0  0  0  0  0  0
    4.2463    1.6649    0.0000 H   0  0  0  0  0  0  0  0  0  0  0  0
    5.1040    1.2649    0.0000 H   0  0  0  0  0  0  0  0  0  0  0  0
    5.5928    1.5471    0.0000 H   0  0  0  0  0  0  0  0  0  0  0  0
    6.4565    2.2247    0.0000 H   0  0  0  0  0  0  0  0  0  0  0  0
    6.1185    3.1857    0.0000 H   0  0  0  0  0  0  0  0  0  0  0  0
    5.1048    3.0858    0.0000 H   0  0  0  0  0  0  0  0  0  0  0  0
  1  2  1  0  0  0  0
  2  3  1  0  0  0  0
  3  4  1  0  0  0  0
  4  5  1  0  0  0  0
  5  6  1  0  0  0  0
  6  7  1  0  0  0  0
  5  8  1  0  0  0  0
  8  9  1  0  0  0  0
  9 10  1  0  0  0  0
 10 11  2  0  0  0  0
 10 12  1  0  0  0  0
 12 13  1  0  0  0  0
 13 14  1  0  0  0  0
 14 15  1  0  0  0  0
 15 16  1  0  0  0  0
 16 17  1  0  0  0  0
 12 17  1  0  0  0  0
 15 18  1  0  0  0  0
 18 19  2  0  0  0  0
 18 20  1  0  0  0  0
 20 21  1  0  0  0  0
 21 22  1  0  0  0  0
 22 23  1  0  0  0  0
 23 24  1  0  0  0  0
 22 25  1  0  0  0  0
 25 26  1  0  0  0  0
 26 27  1  0  0  0  0
 27 28  1  0  0  0  0
  1 29  1  0  0  0  0
  1 30  1  0  0  0  0
  1 31  1  0  0  0  0
  2 32  1  0  0  0  0
  2 33  1  0  0  0  0
  3 34  1  0  0  0  0
  3 35  1  0  0  0  0
  4 36  1  0  0  0  0
  4 37  1  0  0  0  0
  5 38  1  0  0  0  0
  6 39  1  0  0  0  0
  6 40  1  0  0  0  0
  7 41  1  0  0  0  0
  7 42  1  0  0  0  0
  7 43  1  0  0  0  0
  8 44  1  0  0  0  0
  8 45  1  0  0  0  0
 12 46  1  0  0  0  0
 13 47  1  0  0  0  0
 13 48  1  0  0  0  0
 14 49  1  0  0  0  0
 14 50  1  0  0  0  0
 15 51  1  0  0  0  0
 16 52  1  0  0  0  0
 16 53  1  0  0  0  0
 17 54  1  0  0  0  0
 17 55  1  0  0  0  0
 21 56  1  0  0  0  0
 21 57  1  0  0  0  0
 22 58  1  0  0  0  0
 23 59  1  0  0  0  0
 23 60  1  0  0  0  0
 24 61  1  0  0  0  0
 24 62  1  0  0  0  0
 24 63  1  0  0  0  0
 25 64  1  0  0  0  0
 25 65  1  0  0  0  0
 26 66  1  0  0  0  0
 26 67  1  0  0  0  0
 27 68  1  0  0  0  0
 27 69  1  0  0  0  0
 28 70  1  0  0  0  0
 28 71  1  0  0  0  0
 28 72  1  0  0  0  0
M  END
>  <InChIKey>
HOQGHOMLEVKTBY-UHFFFAOYSA-N

>  <UN GHS>
Non-irritant

>  <CASRN>
84731-70-4

> <Outcome>
0

>  <Index>
265

>  <StandardizerResult>
Clear Stereo (ID: ClearStereo)
Wedge Clean (ID: WedgeClean)
Mesomerize (ID: Mesomerize)
Tautomerize (ID: Tautomerize)
Add Explicit Hydrogens (ID: AddExplicitH)
Neutralize (ID: Neutralize)
Clean 2D (ID: Clean2D)

> <knn Distance>
3.0

> <CpId>
265

$$$$
291
  Mrv1532301301811342D          

 36 37  0  0  0  0            999 V2000
   -0.0616   -2.4080    0.0000 C   0  0  0  0  0  0  0  0  0  0  0  0
   -0.0616   -1.5830    0.0000 C   0  0  0  0  0  0  0  0  0  0  0  0
   -0.7761   -1.1705    0.0000 C   0  0  0  0  0  0  0  0  0  0  0  0
    0.6529   -1.1705    0.0000 C   0  0  0  0  0  0  0  0  0  0  0  0
    0.6529   -0.3455    0.0000 C   0  0  0  0  0  0  0  0  0  0  0  0
    1.3673    0.0670    0.0000 C   0  0  0  0  0  0  0  0  0  0  0  0
    2.0818   -0.3455    0.0000 C   0  0  0  0  0  0  0  0  0  0  0  0
    2.7963    0.0670    0.0000 C   0  0  0  0  0  0  0  0  0  0  0  0
    3.5107   -0.3455    0.0000 C   0  0  0  0  0  0  0  0  0  0  0  0
    3.5107   -1.1705    0.0000 C   0  0  0  0  0  0  0  0  0  0  0  0
    2.7963   -1.5830    0.0000 C   0  0  0  0  0  0  0  0  0  0  0  0
    2.0818   -1.1705    0.0000 C   0  0  0  0  0  0  0  0  0  0  0  0
    1.3673   -1.5830    0.0000 C   0  0  0  0  0  0  0  0  0  0  0  0
    1.3673   -2.4080    0.0000 C   0  0  0  0  0  0  0  0  0  0  0  0
    0.6529   -2.8205    0.0000 C   0  0  0  0  0  0  0  0  0  0  0  0
    2.0818   -2.8205    0.0000 C   0  0  0  0  0  0  0  0  0  0  0  0
   -0.7761   -1.9955    0.0000 H   0  0  0  0  0  0  0  0  0  0  0  0
   -0.7761   -2.8205    0.0000 H   0  0  0  0  0  0  0  0  0  0  0  0
   -0.0616   -3.2330    0.0000 H   0  0  0  0  0  0  0  0  0  0  0  0
    0.6529   -1.9955    0.0000 H   0  0  0  0  0  0  0  0  0  0  0  0
   -0.1927   -0.5871    0.0000 H   0  0  0  0  0  0  0  0  0  0  0  0
   -1.1886   -0.4560    0.0000 H   0  0  0  0  0  0  0  0  0  0  0  0
   -1.5730   -1.3840    0.0000 H   0  0  0  0  0  0  0  0  0  0  0  0
    0.3308    0.4141    0.0000 H   0  0  0  0  0  0  0  0  0  0  0  0
    1.3673    0.8920    0.0000 H   0  0  0  0  0  0  0  0  0  0  0  0
    2.7963    0.8920    0.0000 H   0  0  0  0  0  0  0  0  0  0  0  0
    4.2252    0.0670    0.0000 H   0  0  0  0  0  0  0  0  0  0  0  0
    4.2252   -1.5830    0.0000 H   0  0  0  0  0  0  0  0  0  0  0  0
    2.7963   -2.4080    0.0000 H   0  0  0  0  0  0  0  0  0  0  0  0
    1.3673   -3.2330    0.0000 H   0  0  0  0  0  0  0  0  0  0  0  0
    0.2404   -3.5349    0.0000 H   0  0  0  0  0  0  0  0  0  0  0  0
    0.6529   -3.6455    0.0000 H   0  0  0  0  0  0  0  0  0  0  0  0
    1.0654   -3.5349    0.0000 H   0  0  0  0  0  0  0  0  0  0  0  0
    2.2251   -3.6329    0.0000 H   0  0  0  0  0  0  0  0  0  0  0  0
    2.7138   -3.3508    0.0000 H   0  0  0  0  0  0  0  0  0  0  0  0
    2.0818   -1.9955    0.0000 H   0  0  0  0  0  0  0  0  0  0  0  0
  1  2  1  0  0  0  0
  2  3  1  0  0  0  0
  2  4  1  0  0  0  0
  4  5  4  0  0  0  0
  5  6  4  0  0  0  0
  6  7  4  0  0  0  0
  7  8  4  0  0  0  0
  8  9  4  0  0  0  0
  9 10  4  0  0  0  0
 10 11  4  0  0  0  0
 11 12  4  0  0  0  0
  7 12  4  0  0  0  0
 12 13  4  0  0  0  0
  4 13  4  0  0  0  0
 13 14  1  0  0  0  0
 14 15  1  0  0  0  0
 14 16  1  0  0  0  0
  1 17  1  0  0  0  0
  1 18  1  0  0  0  0
  1 19  1  0  0  0  0
  2 20  1  0  0  0  0
  3 21  1  0  0  0  0
  3 22  1  0  0  0  0
  3 23  1  0  0  0  0
  5 24  1  0  0  0  0
  6 25  1  0  0  0  0
  8 26  1  0  0  0  0
  9 27  1  0  0  0  0
 10 28  1  0  0  0  0
 11 29  1  0  0  0  0
 14 30  1  0  0  0  0
 15 31  1  0  0  0  0
 15 32  1  0  0  0  0
 15 33  1  0  0  0  0
 16 34  1  0  0  0  0
 16 35  1  0  0  0  0
 16 36  1  0  0  0  0
M  END
>  <InChIKey>
IAUKWGFWINVWKS-UHFFFAOYSA-N

>  <UN GHS>
Non-irritant

>  <CASRN>
38640-62-9

> <Outcome>
0

>  <Index>
291

>  <StandardizerResult>
Dearomatize (ID: Dearomatize)
Clear Stereo (ID: ClearStereo)
Wedge Clean (ID: WedgeClean)
Mesomerize (ID: Mesomerize)
Tautomerize (ID: Tautomerize)
Aromatize (ID: Aromatize)
Add Explicit Hydrogens (ID: AddExplicitH)
Neutralize (ID: Neutralize)
Clean 2D (ID: Clean2D)

> <knn Distance>
3.0

> <CpId>
291

$$$$
325
  Mrv1532301301811342D          

 43 42  0  0  0  0            999 V2000
    3.0668   -2.4025    0.0000 C   0  0  0  0  0  0  0  0  0  0  0  0
    2.3523   -1.9900    0.0000 C   0  0  0  0  0  0  0  0  0  0  0  0
    1.6378   -2.4025    0.0000 O   0  0  0  0  0  0  0  0  0  0  0  0
    0.9234   -1.9900    0.0000 C   0  0  0  0  0  0  0  0  0  0  0  0
    0.2089   -2.4025    0.0000 C   0  0  0  0  0  0  0  0  0  0  0  0
   -0.5056   -1.9900    0.0000 O   0  0  0  0  0  0  0  0  0  0  0  0
   -1.2200   -2.4025    0.0000 C   0  0  0  0  0  0  0  0  0  0  0  0
   -1.9345   -1.9900    0.0000 C   0  0  0  0  0  0  0  0  0  0  0  0
   -2.6490   -2.4025    0.0000 O   0  0  0  0  0  0  0  0  0  0  0  0
   -3.3635   -1.9900    0.0000 C   0  0  0  0  0  0  0  0  0  0  0  0
   -4.0779   -2.4025    0.0000 C   0  0  0  0  0  0  0  0  0  0  0  0
   -1.9345   -1.1650    0.0000 O   0  0  0  0  0  0  0  0  0  0  0  0
   -1.2200   -0.7525    0.0000 C   0  0  0  0  0  0  0  0  0  0  0  0
   -1.2200    0.0725    0.0000 C   0  0  0  0  0  0  0  0  0  0  0  0
    0.9234   -1.1650    0.0000 O   0  0  0  0  0  0  0  0  0  0  0  0
    0.2089   -0.7525    0.0000 C   0  0  0  0  0  0  0  0  0  0  0  0
    0.2089    0.0725    0.0000 C   0  0  0  0  0  0  0  0  0  0  0  0
    2.6543   -3.1170    0.0000 H   0  0  0  0  0  0  0  0  0  0  0  0
    3.7813   -2.8150    0.0000 H   0  0  0  0  0  0  0  0  0  0  0  0
    3.4793   -1.6880    0.0000 H   0  0  0  0  0  0  0  0  0  0  0  0
    2.7226   -1.2528    0.0000 H   0  0  0  0  0  0  0  0  0  0  0  0
    1.9821   -1.2528    0.0000 H   0  0  0  0  0  0  0  0  0  0  0  0
    0.9234   -2.8150    0.0000 H   0  0  0  0  0  0  0  0  0  0  0  0
   -0.4231   -2.9328    0.0000 H   0  0  0  0  0  0  0  0  0  0  0  0
    0.0656   -3.2150    0.0000 H   0  0  0  0  0  0  0  0  0  0  0  0
   -1.9431   -2.7998    0.0000 H   0  0  0  0  0  0  0  0  0  0  0  0
   -1.2550   -3.2268    0.0000 H   0  0  0  0  0  0  0  0  0  0  0  0
   -2.6490   -1.5775    0.0000 H   0  0  0  0  0  0  0  0  0  0  0  0
   -3.5067   -1.1776    0.0000 H   0  0  0  0  0  0  0  0  0  0  0  0
   -3.9954   -1.4597    0.0000 H   0  0  0  0  0  0  0  0  0  0  0  0
   -4.8591   -2.1373    0.0000 H   0  0  0  0  0  0  0  0  0  0  0  0
   -4.5212   -3.0983    0.0000 H   0  0  0  0  0  0  0  0  0  0  0  0
   -3.5074   -2.9985    0.0000 H   0  0  0  0  0  0  0  0  0  0  0  0
   -0.7667   -1.4418    0.0000 H   0  0  0  0  0  0  0  0  0  0  0  0
   -0.3964   -0.8005    0.0000 H   0  0  0  0  0  0  0  0  0  0  0  0
   -0.3950    0.0725    0.0000 H   0  0  0  0  0  0  0  0  0  0  0  0
   -1.2200    0.8975    0.0000 H   0  0  0  0  0  0  0  0  0  0  0  0
   -2.0450    0.0725    0.0000 H   0  0  0  0  0  0  0  0  0  0  0  0
    0.0270   -1.5572    0.0000 H   0  0  0  0  0  0  0  0  0  0  0  0
    0.9234   -0.3400    0.0000 H   0  0  0  0  0  0  0  0  0  0  0  0
    0.9711    0.3882    0.0000 H   0  0  0  0  0  0  0  0  0  0  0  0
    0.4224    0.8694    0.0000 H   0  0  0  0  0  0  0  0  0  0  0  0
   -0.2933    0.7270    0.0000 H   0  0  0  0  0  0  0  0  0  0  0  0
  1  2  1  0  0  0  0
  2  3  1  0  0  0  0
  3  4  1  0  0  0  0
  4  5  1  0  0  0  0
  5  6  1  0  0  0  0
  6  7  1  0  0  0  0
  7  8  1  0  0  0  0
  8  9  1  0  0  0  0
  9 10  1  0  0  0  0
 10 11  1  0  0  0  0
  8 12  1  0  0  0  0
 12 13  1  0  0  0  0
 13 14  1  0  0  0  0
  4 15  1  0  0  0  0
 15 16  1  0  0  0  0
 16 17  1  0  0  0  0
  1 18  1  0  0  0  0
  1 19  1  0  0  0  0
  1 20  1  0  0  0  0
  2 21  1  0  0  0  0
  2 22  1  0  0  0  0
  4 23  1  0  0  0  0
  5 24  1  0  0  0  0
  5 25  1  0  0  0  0
  7 26  1  0  0  0  0
  7 27  1  0  0  0  0
  8 28  1  0  0  0  0
 10 29  1  0  0  0  0
 10 30  1  0  0  0  0
 11 31  1  0  0  0  0
 11 32  1  0  0  0  0
 11 33  1  0  0  0  0
 13 34  1  0  0  0  0
 13 35  1  0  0  0  0
 14 36  1  0  0  0  0
 14 37  1  0  0  0  0
 14 38  1  0  0  0  0
 16 39  1  0  0  0  0
 16 40  1  0  0  0  0
 17 41  1  0  0  0  0
 17 42  1  0  0  0  0
 17 43  1  0  0  0  0
M  END
>  <InChIKey>
ISSXEHJFYXCGSK-UHFFFAOYSA-N

>  <UN GHS>
Non-irritant

>  <CASRN>
23235-61-2

> <Outcome>
0

>  <Index>
325

>  <StandardizerResult>
Clear Stereo (ID: ClearStereo)
Wedge Clean (ID: WedgeClean)
Mesomerize (ID: Mesomerize)
Tautomerize (ID: Tautomerize)
Add Explicit Hydrogens (ID: AddExplicitH)
Neutralize (ID: Neutralize)
Clean 2D (ID: Clean2D)

> <knn Distance>
3.0

> <CpId>
325

$$$$
345
  Mrv1532301301811342D          

 27 26  0  0  0  0            999 V2000
    4.2355    3.2704    0.0000 C   0  0  0  0  0  0  0  0  0  0  0  0
    4.9500    2.8579    0.0000 O   0  0  0  0  0  0  0  0  0  0  0  0
    5.6645    3.2704    0.0000 C   0  0  0  0  0  0  0  0  0  0  0  0
    6.3789    2.8579    0.0000 C   0  0  0  0  0  0  0  0  0  0  0  0
    7.0934    3.2704    0.0000 O   0  0  0  0  0  0  0  0  0  0  0  0
    7.8079    2.8579    0.0000 C   0  0  0  0  0  0  0  0  0  0  0  0
    8.5224    3.2704    0.0000 C   0  0  0  0  0  0  0  0  0  0  0  0
    9.2368    2.8579    0.0000 O   0  0  0  0  0  0  0  0  0  0  0  0
    9.9513    3.2704    0.0000 C   0  0  0  0  0  0  0  0  0  0  0  0
   10.6658    2.8579    0.0000 C   0  0  0  0  0  0  0  0  0  0  0  0
   11.3802    3.2704    0.0000 O   0  0  0  0  0  0  0  0  0  0  0  0
    4.6480    3.9849    0.0000 H   0  0  0  0  0  0  0  0  0  0  0  0
    3.5211    3.6829    0.0000 H   0  0  0  0  0  0  0  0  0  0  0  0
    3.8230    2.5559    0.0000 H   0  0  0  0  0  0  0  0  0  0  0  0
    6.0347    4.0076    0.0000 H   0  0  0  0  0  0  0  0  0  0  0  0
    5.2942    4.0076    0.0000 H   0  0  0  0  0  0  0  0  0  0  0  0
    6.0087    2.1207    0.0000 H   0  0  0  0  0  0  0  0  0  0  0  0
    6.7492    2.1207    0.0000 H   0  0  0  0  0  0  0  0  0  0  0  0
    7.4376    2.1207    0.0000 H   0  0  0  0  0  0  0  0  0  0  0  0
    8.1781    2.1207    0.0000 H   0  0  0  0  0  0  0  0  0  0  0  0
    8.8926    4.0076    0.0000 H   0  0  0  0  0  0  0  0  0  0  0  0
    8.1521    4.0076    0.0000 H   0  0  0  0  0  0  0  0  0  0  0  0
   10.3216    4.0076    0.0000 H   0  0  0  0  0  0  0  0  0  0  0  0
    9.5810    4.0076    0.0000 H   0  0  0  0  0  0  0  0  0  0  0  0
   10.2955    2.1207    0.0000 H   0  0  0  0  0  0  0  0  0  0  0  0
   11.0360    2.1207    0.0000 H   0  0  0  0  0  0  0  0  0  0  0  0
   12.0947    2.8579    0.0000 H   0  0  0  0  0  0  0  0  0  0  0  0
  1  2  1  0  0  0  0
  2  3  1  0  0  0  0
  3  4  1  0  0  0  0
  4  5  1  0  0  0  0
  5  6  1  0  0  0  0
  6  7  1  0  0  0  0
  7  8  1  0  0  0  0
  8  9  1  0  0  0  0
  9 10  1  0  0  0  0
 10 11  1  0  0  0  0
  1 12  1  0  0  0  0
  1 13  1  0  0  0  0
  1 14  1  0  0  0  0
  3 15  1  0  0  0  0
  3 16  1  0  0  0  0
  4 17  1  0  0  0  0
  4 18  1  0  0  0  0
  6 19  1  0  0  0  0
  6 20  1  0  0  0  0
  7 21  1  0  0  0  0
  7 22  1  0  0  0  0
  9 23  1  0  0  0  0
  9 24  1  0  0  0  0
 10 25  1  0  0  0  0
 10 26  1  0  0  0  0
 11 27  1  0  0  0  0
M  END
>  <InChIKey>
JLGLQAWTXXGVEM-UHFFFAOYSA-N

>  <UN GHS>
Non-irritant

>  <CASRN>
112-35-6

> <Outcome>
0

>  <Index>
345

>  <StandardizerResult>
Clear Stereo (ID: ClearStereo)
Wedge Clean (ID: WedgeClean)
Mesomerize (ID: Mesomerize)
Tautomerize (ID: Tautomerize)
Add Explicit Hydrogens (ID: AddExplicitH)
Neutralize (ID: Neutralize)
Clean 2D (ID: Clean2D)

> <knn Distance>
3.0

> <CpId>
345

$$$$
447
  Mrv1532301301811342D          

 42 42  0  0  0  0            999 V2000
   -5.7158    3.3000    0.0000 C   0  0  0  0  0  0  0  0  0  0  0  0
   -5.0013    3.7125    0.0000 C   0  0  0  0  0  0  0  0  0  0  0  0
   -4.2868    3.3000    0.0000 C   0  0  0  0  0  0  0  0  0  0  0  0
   -3.5724    3.7125    0.0000 C   0  0  0  0  0  0  0  0  0  0  0  0
   -2.8579    3.3000    0.0000 O   0  0  0  0  0  0  0  0  0  0  0  0
   -2.1434    3.7125    0.0000 C   0  0  0  0  0  0  0  0  0  0  0  0
   -2.1434    4.5375    0.0000 O   0  0  0  0  0  0  0  0  0  0  0  0
   -1.4289    3.3000    0.0000 C   0  0  0  0  0  0  0  0  0  0  0  0
   -0.7145    3.7125    0.0000 C   0  0  0  0  0  0  0  0  0  0  0  0
   -0.0000    3.3000    0.0000 C   0  0  0  0  0  0  0  0  0  0  0  0
   -0.0000    2.4750    0.0000 C   0  0  0  0  0  0  0  0  0  0  0  0
   -0.7145    2.0625    0.0000 C   0  0  0  0  0  0  0  0  0  0  0  0
   -1.4289    2.4750    0.0000 C   0  0  0  0  0  0  0  0  0  0  0  0
    0.7145    2.0625    0.0000 C   0  0  0  0  0  0  0  0  0  0  0  0
    0.7145    1.2375    0.0000 O   0  0  0  0  0  0  0  0  0  0  0  0
    1.4289    2.4750    0.0000 O   0  0  0  0  0  0  0  0  0  0  0  0
    2.1434    2.0625    0.0000 C   0  0  0  0  0  0  0  0  0  0  0  0
    2.8579    2.4750    0.0000 C   0  0  0  0  0  0  0  0  0  0  0  0
    3.5724    2.0625    0.0000 C   0  0  0  0  0  0  0  0  0  0  0  0
    4.2868    2.4750    0.0000 C   0  0  0  0  0  0  0  0  0  0  0  0
   -6.1283    4.0145    0.0000 H   0  0  0  0  0  0  0  0  0  0  0  0
   -6.4302    2.8875    0.0000 H   0  0  0  0  0  0  0  0  0  0  0  0
   -5.3033    2.5855    0.0000 H   0  0  0  0  0  0  0  0  0  0  0  0
   -4.6310    4.4497    0.0000 H   0  0  0  0  0  0  0  0  0  0  0  0
   -5.3716    4.4497    0.0000 H   0  0  0  0  0  0  0  0  0  0  0  0
   -4.6571    2.5628    0.0000 H   0  0  0  0  0  0  0  0  0  0  0  0
   -3.9166    2.5628    0.0000 H   0  0  0  0  0  0  0  0  0  0  0  0
   -3.2021    4.4497    0.0000 H   0  0  0  0  0  0  0  0  0  0  0  0
   -3.9426    4.4497    0.0000 H   0  0  0  0  0  0  0  0  0  0  0  0
   -0.7145    4.5375    0.0000 H   0  0  0  0  0  0  0  0  0  0  0  0
    0.7145    3.7125    0.0000 H   0  0  0  0  0  0  0  0  0  0  0  0
   -0.7145    1.2375    0.0000 H   0  0  0  0  0  0  0  0  0  0  0  0
   -2.1434    2.0625    0.0000 H   0  0  0  0  0  0  0  0  0  0  0  0
    1.7731    1.3253    0.0000 H   0  0  0  0  0  0  0  0  0  0  0  0
    2.5137    1.3253    0.0000 H   0  0  0  0  0  0  0  0  0  0  0  0
    3.2281    3.2122    0.0000 H   0  0  0  0  0  0  0  0  0  0  0  0
    2.4876    3.2122    0.0000 H   0  0  0  0  0  0  0  0  0  0  0  0
    3.2021    1.3253    0.0000 H   0  0  0  0  0  0  0  0  0  0  0  0
    3.9426    1.3253    0.0000 H   0  0  0  0  0  0  0  0  0  0  0  0
    4.6993    1.7605    0.0000 H   0  0  0  0  0  0  0  0  0  0  0  0
    5.0013    2.8875    0.0000 H   0  0  0  0  0  0  0  0  0  0  0  0
    3.8743    3.1895    0.0000 H   0  0  0  0  0  0  0  0  0  0  0  0
  1  2  1  0  0  0  0
  2  3  1  0  0  0  0
  3  4  1  0  0  0  0
  4  5  1  0  0  0  0
  5  6  1  0  0  0  0
  6  7  2  0  0  0  0
  6  8  1  0  0  0  0
  8  9  4  0  0  0  0
  9 10  4  0  0  0  0
 10 11  4  0  0  0  0
 11 12  4  0  0  0  0
 12 13  4  0  0  0  0
  8 13  4  0  0  0  0
 11 14  1  0  0  0  0
 14 15  2  0  0  0  0
 14 16  1  0  0  0  0
 16 17  1  0  0  0  0
 17 18  1  0  0  0  0
 18 19  1  0  0  0  0
 19 20  1  0  0  0  0
  1 21  1  0  0  0  0
  1 22  1  0  0  0  0
  1 23  1  0  0  0  0
  2 24  1  0  0  0  0
  2 25  1  0  0  0  0
  3 26  1  0  0  0  0
  3 27  1  0  0  0  0
  4 28  1  0  0  0  0
  4 29  1  0  0  0  0
  9 30  1  0  0  0  0
 10 31  1  0  0  0  0
 12 32  1  0  0  0  0
 13 33  1  0  0  0  0
 17 34  1  0  0  0  0
 17 35  1  0  0  0  0
 18 36  1  0  0  0  0
 18 37  1  0  0  0  0
 19 38  1  0  0  0  0
 19 39  1  0  0  0  0
 20 40  1  0  0  0  0
 20 41  1  0  0  0  0
 20 42  1  0  0  0  0
M  END
>  <InChIKey>
LQLQDKBJAIILIQ-UHFFFAOYSA-N

>  <UN GHS>
Non-irritant

>  <CASRN>
1962-75-0

> <Outcome>
0

>  <Index>
447

>  <StandardizerResult>
Dearomatize (ID: Dearomatize)
Clear Stereo (ID: ClearStereo)
Wedge Clean (ID: WedgeClean)
Mesomerize (ID: Mesomerize)
Tautomerize (ID: Tautomerize)
Aromatize (ID: Aromatize)
Add Explicit Hydrogens (ID: AddExplicitH)
Neutralize (ID: Neutralize)
Clean 2D (ID: Clean2D)

> <knn Distance>
3.0

> <CpId>
447

$$$$
484
  Mrv1532301301811342D          

 23 22  0  0  0  0            999 V2000
    3.9040    0.6031    0.0000 C   0  0  0  0  0  0  0  0  0  0  0  0
    3.9040    1.4281    0.0000 C   0  0  0  0  0  0  0  0  0  0  0  0
    3.1895    1.8406    0.0000 C   0  0  0  0  0  0  0  0  0  0  0  0
    2.4750    1.4281    0.0000 O   0  0  0  0  0  0  0  0  0  0  0  0
    1.7605    1.8406    0.0000 C   0  0  0  0  0  0  0  0  0  0  0  0
    1.0461    1.4281    0.0000 C   0  0  0  0  0  0  0  0  0  0  0  0
    1.7605    2.6656    0.0000 O   0  0  0  0  0  0  0  0  0  0  0  0
    4.6184    1.8406    0.0000 O   0  0  0  0  0  0  0  0  0  0  0  0
    5.3329    1.4281    0.0000 C   0  0  0  0  0  0  0  0  0  0  0  0
    6.0474    1.8406    0.0000 C   0  0  0  0  0  0  0  0  0  0  0  0
    5.3329    0.6031    0.0000 O   0  0  0  0  0  0  0  0  0  0  0  0
    3.0790    0.6031    0.0000 H   0  0  0  0  0  0  0  0  0  0  0  0
    3.9040   -0.2219    0.0000 H   0  0  0  0  0  0  0  0  0  0  0  0
    4.7290    0.6031    0.0000 H   0  0  0  0  0  0  0  0  0  0  0  0
    3.1895    1.0156    0.0000 H   0  0  0  0  0  0  0  0  0  0  0  0
    3.5597    2.5779    0.0000 H   0  0  0  0  0  0  0  0  0  0  0  0
    2.8192    2.5779    0.0000 H   0  0  0  0  0  0  0  0  0  0  0  0
    0.6336    2.1426    0.0000 H   0  0  0  0  0  0  0  0  0  0  0  0
    0.3316    1.0156    0.0000 H   0  0  0  0  0  0  0  0  0  0  0  0
    1.4586    0.7137    0.0000 H   0  0  0  0  0  0  0  0  0  0  0  0
    6.4599    1.1262    0.0000 H   0  0  0  0  0  0  0  0  0  0  0  0
    6.7618    2.2531    0.0000 H   0  0  0  0  0  0  0  0  0  0  0  0
    5.6349    2.5551    0.0000 H   0  0  0  0  0  0  0  0  0  0  0  0
  1  2  1  0  0  0  0
  2  3  1  0  0  0  0
  3  4  1  0  0  0  0
  4  5  1  0  0  0  0
  5  6  1  0  0  0  0
  5  7  2  0  0  0  0
  2  8  1  0  0  0  0
  8  9  1  0  0  0  0
  9 10  1  0  0  0  0
  9 11  2  0  0  0  0
  1 12  1  0  0  0  0
  1 13  1  0  0  0  0
  1 14  1  0  0  0  0
  2 15  1  0  0  0  0
  3 16  1  0  0  0  0
  3 17  1  0  0  0  0
  6 18  1  0  0  0  0
  6 19  1  0  0  0  0
  6 20  1  0  0  0  0
 10 21  1  0  0  0  0
 10 22  1  0  0  0  0
 10 23  1  0  0  0  0
M  END
>  <InChIKey>
MLHOXUWWKVQEJB-UHFFFAOYSA-N

>  <UN GHS>
Non-irritant

>  <CASRN>
623-84-7

> <Outcome>
0

>  <Index>
484

>  <StandardizerResult>
Clear Stereo (ID: ClearStereo)
Wedge Clean (ID: WedgeClean)
Mesomerize (ID: Mesomerize)
Tautomerize (ID: Tautomerize)
Add Explicit Hydrogens (ID: AddExplicitH)
Neutralize (ID: Neutralize)
Clean 2D (ID: Clean2D)

> <knn Distance>
3.0

> <CpId>
484

$$$$
491
  Mrv1532301301811342D          

 26 26  0  0  0  0            999 V2000
    1.7581    2.3280    0.0000 C   0  0  0  0  0  0  0  0  0  0  0  0
    1.7581    1.5030    0.0000 C   0  0  0  0  0  0  0  0  0  0  0  0
    2.4726    1.0905    0.0000 C   0  0  0  0  0  0  0  0  0  0  0  0
    1.0436    1.0905    0.0000 C   0  0  0  0  0  0  0  0  0  0  0  0
    1.0436    0.2655    0.0000 C   0  0  0  0  0  0  0  0  0  0  0  0
    0.3292   -0.1470    0.0000 C   0  0  0  0  0  0  0  0  0  0  0  0
   -0.3853    0.2655    0.0000 C   0  0  0  0  0  0  0  0  0  0  0  0
   -1.0998   -0.1470    0.0000 C   0  0  0  0  0  0  0  0  0  0  0  0
   -0.3853    1.0905    0.0000 C   0  0  0  0  0  0  0  0  0  0  0  0
    0.3292    1.5030    0.0000 C   0  0  0  0  0  0  0  0  0  0  0  0
    2.5831    2.3280    0.0000 H   0  0  0  0  0  0  0  0  0  0  0  0
    1.7581    3.1530    0.0000 H   0  0  0  0  0  0  0  0  0  0  0  0
    0.9331    2.3280    0.0000 H   0  0  0  0  0  0  0  0  0  0  0  0
    2.0601    0.3760    0.0000 H   0  0  0  0  0  0  0  0  0  0  0  0
    3.1870    0.6780    0.0000 H   0  0  0  0  0  0  0  0  0  0  0  0
    2.8851    1.8049    0.0000 H   0  0  0  0  0  0  0  0  0  0  0  0
    1.4970   -0.4238    0.0000 H   0  0  0  0  0  0  0  0  0  0  0  0
    1.8672    0.2175    0.0000 H   0  0  0  0  0  0  0  0  0  0  0  0
   -0.0411   -0.8843    0.0000 H   0  0  0  0  0  0  0  0  0  0  0  0
    0.6994   -0.8843    0.0000 H   0  0  0  0  0  0  0  0  0  0  0  0
   -1.5123    0.5674    0.0000 H   0  0  0  0  0  0  0  0  0  0  0  0
   -1.8143   -0.5595    0.0000 H   0  0  0  0  0  0  0  0  0  0  0  0
   -0.6873   -0.8615    0.0000 H   0  0  0  0  0  0  0  0  0  0  0  0
   -1.0998    1.5030    0.0000 H   0  0  0  0  0  0  0  0  0  0  0  0
    0.6994    2.2402    0.0000 H   0  0  0  0  0  0  0  0  0  0  0  0
   -0.0411    2.2402    0.0000 H   0  0  0  0  0  0  0  0  0  0  0  0
  1  2  1  0  0  0  0
  2  3  1  0  0  0  0
  2  4  2  0  0  0  0
  4  5  1  0  0  0  0
  5  6  1  0  0  0  0
  6  7  1  0  0  0  0
  7  8  1  0  0  0  0
  7  9  2  0  0  0  0
  9 10  1  0  0  0  0
  4 10  1  0  0  0  0
  1 11  1  0  0  0  0
  1 12  1  0  0  0  0
  1 13  1  0  0  0  0
  3 14  1  0  0  0  0
  3 15  1  0  0  0  0
  3 16  1  0  0  0  0
  5 17  1  0  0  0  0
  5 18  1  0  0  0  0
  6 19  1  0  0  0  0
  6 20  1  0  0  0  0
  8 21  1  0  0  0  0
  8 22  1  0  0  0  0
  8 23  1  0  0  0  0
  9 24  1  0  0  0  0
 10 25  1  0  0  0  0
 10 26  1  0  0  0  0
M  END
>  <InChIKey>
MOYAFQVGZZPNRA-UHFFFAOYSA-N

>  <UN GHS>
Non-irritant

>  <CASRN>
586-62-9

> <Outcome>
0

>  <Index>
491

>  <StandardizerResult>
Clear Stereo (ID: ClearStereo)
Wedge Clean (ID: WedgeClean)
Mesomerize (ID: Mesomerize)
Tautomerize (ID: Tautomerize)
Add Explicit Hydrogens (ID: AddExplicitH)
Neutralize (ID: Neutralize)
Clean 2D (ID: Clean2D)

> <knn Distance>
3.0

> <CpId>
491

$$$$
499
  Mrv1532301301811342D          

  8  7  0  0  0  0            999 V2000
    0.8250    1.4289    0.0000 O   0  0  0  0  0  0  0  0  0  0  0  0
    1.2375    0.7145    0.0000 C   0  0  0  0  0  0  0  0  0  0  0  0
    2.0625    0.7145    0.0000 O   0  0  0  0  0  0  0  0  0  0  0  0
    0.8250   -0.0000    0.0000 C   0  0  0  0  0  0  0  0  0  0  0  0
    1.2375   -0.7145    0.0000 O   0  0  0  0  0  0  0  0  0  0  0  0
   -0.0000   -0.0000    0.0000 O   0  0  0  0  0  0  0  0  0  0  0  0
    1.2375    2.1434    0.0000 H   0  0  0  0  0  0  0  0  0  0  0  0
    0.8250   -1.4289    0.0000 H   0  0  0  0  0  0  0  0  0  0  0  0
  1  2  1  0  0  0  0
  2  3  2  0  0  0  0
  2  4  1  0  0  0  0
  4  5  1  0  0  0  0
  4  6  2  0  0  0  0
  1  7  1  0  0  0  0
  5  8  1  0  0  0  0
M  END
>  <InChIKey>
MUBZPKHOEPUJKR-UHFFFAOYSA-L

>  <UN GHS>
Non-irritant

>  <CASRN>
640-67-5

> <Outcome>
0

>  <Index>
499

>  <StandardizerResult>
Clear Stereo (ID: ClearStereo)
Wedge Clean (ID: WedgeClean)
Mesomerize (ID: Mesomerize)
Tautomerize (ID: Tautomerize)
Add Explicit Hydrogens (ID: AddExplicitH)
Neutralize (ID: Neutralize)
Clean 2D (ID: Clean2D)

> <knn Distance>
3.0

> <CpId>
499

$$$$
531
  Mrv1532301301811342D          

 51 50  0  0  0  0            999 V2000
   -0.0089    0.7112    0.0000 C   0  0  0  0  0  0  0  0  0  0  0  0
   -0.4214    1.4257    0.0000 C   0  0  0  0  0  0  0  0  0  0  0  0
   -0.8339    2.1401    0.0000 C   0  0  0  0  0  0  0  0  0  0  0  0
   -1.1359    1.0132    0.0000 C   0  0  0  0  0  0  0  0  0  0  0  0
   -1.8503    1.4257    0.0000 O   0  0  0  0  0  0  0  0  0  0  0  0
   -2.5648    1.0132    0.0000 C   0  0  0  0  0  0  0  0  0  0  0  0
   -3.2793    1.4257    0.0000 C   0  0  0  0  0  0  0  0  0  0  0  0
   -3.9937    1.0132    0.0000 C   0  0  0  0  0  0  0  0  0  0  0  0
   -4.7082    1.4257    0.0000 O   0  0  0  0  0  0  0  0  0  0  0  0
   -5.4227    1.0132    0.0000 C   0  0  0  0  0  0  0  0  0  0  0  0
   -5.4227    0.1882    0.0000 O   0  0  0  0  0  0  0  0  0  0  0  0
   -6.1372    1.4257    0.0000 C   0  0  0  0  0  0  0  0  0  0  0  0
   -6.8516    1.0132    0.0000 C   0  0  0  0  0  0  0  0  0  0  0  0
    0.2931    1.8382    0.0000 C   0  0  0  0  0  0  0  0  0  0  0  0
    1.0076    1.4257    0.0000 O   0  0  0  0  0  0  0  0  0  0  0  0
    1.7220    1.8382    0.0000 C   0  0  0  0  0  0  0  0  0  0  0  0
    2.4365    1.4257    0.0000 C   0  0  0  0  0  0  0  0  0  0  0  0
    3.1510    1.8382    0.0000 C   0  0  0  0  0  0  0  0  0  0  0  0
    3.8654    1.4257    0.0000 O   0  0  0  0  0  0  0  0  0  0  0  0
    4.5799    1.8382    0.0000 C   0  0  0  0  0  0  0  0  0  0  0  0
    4.5799    2.6632    0.0000 O   0  0  0  0  0  0  0  0  0  0  0  0
    5.2944    1.4257    0.0000 C   0  0  0  0  0  0  0  0  0  0  0  0
    6.0088    1.8382    0.0000 C   0  0  0  0  0  0  0  0  0  0  0  0
   -0.7234    0.2987    0.0000 H   0  0  0  0  0  0  0  0  0  0  0  0
    0.4036   -0.0033    0.0000 H   0  0  0  0  0  0  0  0  0  0  0  0
    0.7056    1.1237    0.0000 H   0  0  0  0  0  0  0  0  0  0  0  0
   -0.1194    2.5526    0.0000 H   0  0  0  0  0  0  0  0  0  0  0  0
   -1.2464    2.8546    0.0000 H   0  0  0  0  0  0  0  0  0  0  0  0
   -1.5484    1.7276    0.0000 H   0  0  0  0  0  0  0  0  0  0  0  0
   -1.7192    0.4298    0.0000 H   0  0  0  0  0  0  0  0  0  0  0  0
   -0.3390    0.7996    0.0000 H   0  0  0  0  0  0  0  0  0  0  0  0
   -2.9351    0.2759    0.0000 H   0  0  0  0  0  0  0  0  0  0  0  0
   -2.1945    0.2759    0.0000 H   0  0  0  0  0  0  0  0  0  0  0  0
   -2.9090    2.1629    0.0000 H   0  0  0  0  0  0  0  0  0  0  0  0
   -3.6495    2.1629    0.0000 H   0  0  0  0  0  0  0  0  0  0  0  0
   -4.3640    0.2759    0.0000 H   0  0  0  0  0  0  0  0  0  0  0  0
   -3.6235    0.2759    0.0000 H   0  0  0  0  0  0  0  0  0  0  0  0
   -6.1372    2.2507    0.0000 H   0  0  0  0  0  0  0  0  0  0  0  0
   -7.5661    1.4257    0.0000 H   0  0  0  0  0  0  0  0  0  0  0  0
   -6.8516    0.1882    0.0000 H   0  0  0  0  0  0  0  0  0  0  0  0
    1.0683    2.1203    0.0000 H   0  0  0  0  0  0  0  0  0  0  0  0
    0.5752    2.6134    0.0000 H   0  0  0  0  0  0  0  0  0  0  0  0
    2.3294    2.3965    0.0000 H   0  0  0  0  0  0  0  0  0  0  0  0
    1.8073    2.6588    0.0000 H   0  0  0  0  0  0  0  0  0  0  0  0
    2.0662    0.6884    0.0000 H   0  0  0  0  0  0  0  0  0  0  0  0
    2.8068    0.6884    0.0000 H   0  0  0  0  0  0  0  0  0  0  0  0
    3.5212    2.5754    0.0000 H   0  0  0  0  0  0  0  0  0  0  0  0
    2.7807    2.5754    0.0000 H   0  0  0  0  0  0  0  0  0  0  0  0
    5.2944    0.6007    0.0000 H   0  0  0  0  0  0  0  0  0  0  0  0
    6.7233    1.4257    0.0000 H   0  0  0  0  0  0  0  0  0  0  0  0
    6.0088    2.6632    0.0000 H   0  0  0  0  0  0  0  0  0  0  0  0
  1  2  1  0  0  0  0
  2  3  1  0  0  0  0
  2  4  1  0  0  0  0
  4  5  1  0  0  0  0
  5  6  1  0  0  0  0
  6  7  1  0  0  0  0
  7  8  1  0  0  0  0
  8  9  1  0  0  0  0
  9 10  1  0  0  0  0
 10 11  2  0  0  0  0
 10 12  1  0  0  0  0
 12 13  2  0  0  0  0
  2 14  1  0  0  0  0
 14 15  1  0  0  0  0
 15 16  1  0  0  0  0
 16 17  1  0  0  0  0
 17 18  1  0  0  0  0
 18 19  1  0  0  0  0
 19 20  1  0  0  0  0
 20 21  2  0  0  0  0
 20 22  1  0  0  0  0
 22 23  2  0  0  0  0
  1 24  1  0  0  0  0
  1 25  1  0  0  0  0
  1 26  1  0  0  0  0
  3 27  1  0  0  0  0
  3 28  1  0  0  0  0
  3 29  1  0  0  0  0
  4 30  1  0  0  0  0
  4 31  1  0  0  0  0
  6 32  1  0  0  0  0
  6 33  1  0  0  0  0
  7 34  1  0  0  0  0
  7 35  1  0  0  0  0
  8 36  1  0  0  0  0
  8 37  1  0  0  0  0
 12 38  1  0  0  0  0
 13 39  1  0  0  0  0
 13 40  1  0  0  0  0
 14 41  1  0  0  0  0
 14 42  1  0  0  0  0
 16 43  1  0  0  0  0
 16 44  1  0  0  0  0
 17 45  1  0  0  0  0
 17 46  1  0  0  0  0
 18 47  1  0  0  0  0
 18 48  1  0  0  0  0
 22 49  1  0  0  0  0
 23 50  1  0  0  0  0
 23 51  1  0  0  0  0
M  END
>  <InChIKey>
NQGDHQASSFDDLD-UHFFFAOYSA-N

>  <UN GHS>
Non-irritant

>  <CASRN>
84170-74-1

> <Outcome>
0

>  <Index>
531

>  <StandardizerResult>
Clear Stereo (ID: ClearStereo)
Wedge Clean (ID: WedgeClean)
Mesomerize (ID: Mesomerize)
Tautomerize (ID: Tautomerize)
Add Explicit Hydrogens (ID: AddExplicitH)
Neutralize (ID: Neutralize)
Clean 2D (ID: Clean2D)

> <knn Distance>
3.0

> <CpId>
531

$$$$
554
  Mrv1532301301811342D          

 32 32  0  0  0  0            999 V2000
    1.4723    2.5397    0.0000 C   0  0  0  0  0  0  0  0  0  0  0  0
    0.7578    2.1272    0.0000 C   0  0  0  0  0  0  0  0  0  0  0  0
    0.0434    2.5397    0.0000 C   0  0  0  0  0  0  0  0  0  0  0  0
    0.7578    1.3022    0.0000 C   0  0  0  0  0  0  0  0  0  0  0  0
    1.4723    0.8897    0.0000 C   0  0  0  0  0  0  0  0  0  0  0  0
    1.4723    0.0647    0.0000 C   0  0  0  0  0  0  0  0  0  0  0  0
    0.7578   -0.3478    0.0000 C   0  0  0  0  0  0  0  0  0  0  0  0
    0.0434    0.0647    0.0000 C   0  0  0  0  0  0  0  0  0  0  0  0
    0.0434    0.8897    0.0000 C   0  0  0  0  0  0  0  0  0  0  0  0
   -0.6711   -0.3478    0.0000 C   0  0  0  0  0  0  0  0  0  0  0  0
   -1.3856    0.0647    0.0000 C   0  0  0  0  0  0  0  0  0  0  0  0
   -0.6711   -1.1728    0.0000 C   0  0  0  0  0  0  0  0  0  0  0  0
   -1.3856   -1.5853    0.0000 C   0  0  0  0  0  0  0  0  0  0  0  0
   -1.3856   -2.4103    0.0000 O   0  0  0  0  0  0  0  0  0  0  0  0
    1.8848    1.8252    0.0000 H   0  0  0  0  0  0  0  0  0  0  0  0
    2.1868    2.9522    0.0000 H   0  0  0  0  0  0  0  0  0  0  0  0
    1.0598    3.2541    0.0000 H   0  0  0  0  0  0  0  0  0  0  0  0
    0.7578    2.9522    0.0000 H   0  0  0  0  0  0  0  0  0  0  0  0
   -0.1702    3.3366    0.0000 H   0  0  0  0  0  0  0  0  0  0  0  0
   -0.7816    2.5397    0.0000 H   0  0  0  0  0  0  0  0  0  0  0  0
   -0.1702    1.7428    0.0000 H   0  0  0  0  0  0  0  0  0  0  0  0
    2.1868    1.3022    0.0000 H   0  0  0  0  0  0  0  0  0  0  0  0
    2.1868   -0.3478    0.0000 H   0  0  0  0  0  0  0  0  0  0  0  0
    0.7578   -1.1728    0.0000 H   0  0  0  0  0  0  0  0  0  0  0  0
   -0.7754    0.7888    0.0000 H   0  0  0  0  0  0  0  0  0  0  0  0
   -0.6711    0.4772    0.0000 H   0  0  0  0  0  0  0  0  0  0  0  0
   -1.7970    0.7798    0.0000 H   0  0  0  0  0  0  0  0  0  0  0  0
   -2.1982   -0.0777    0.0000 H   0  0  0  0  0  0  0  0  0  0  0  0
   -1.5293   -0.7477    0.0000 H   0  0  0  0  0  0  0  0  0  0  0  0
   -0.2178   -1.8621    0.0000 H   0  0  0  0  0  0  0  0  0  0  0  0
    0.1525   -1.2208    0.0000 H   0  0  0  0  0  0  0  0  0  0  0  0
   -2.2076   -1.6553    0.0000 H   0  0  0  0  0  0  0  0  0  0  0  0
  1  2  1  0  0  0  0
  2  3  1  0  0  0  0
  2  4  1  0  0  0  0
  4  5  4  0  0  0  0
  5  6  4  0  0  0  0
  6  7  4  0  0  0  0
  7  8  4  0  0  0  0
  8  9  4  0  0  0  0
  4  9  4  0  0  0  0
  8 10  1  0  0  0  0
 10 11  1  0  0  0  0
 10 12  1  0  0  0  0
 12 13  1  0  0  0  0
 13 14  2  0  0  0  0
  1 15  1  0  0  0  0
  1 16  1  0  0  0  0
  1 17  1  0  0  0  0
  2 18  1  0  0  0  0
  3 19  1  0  0  0  0
  3 20  1  0  0  0  0
  3 21  1  0  0  0  0
  5 22  1  0  0  0  0
  6 23  1  0  0  0  0
  7 24  1  0  0  0  0
  9 25  1  0  0  0  0
 10 26  1  0  0  0  0
 11 27  1  0  0  0  0
 11 28  1  0  0  0  0
 11 29  1  0  0  0  0
 12 30  1  0  0  0  0
 12 31  1  0  0  0  0
 13 32  1  0  0  0  0
M  END
>  <InChIKey>
OHRBQTOZYGEWCJ-UHFFFAOYSA-N

>  <UN GHS>
Non-irritant

>  <CASRN>
125109-85-5

> <Outcome>
0

>  <Index>
554

>  <StandardizerResult>
Dearomatize (ID: Dearomatize)
Clear Stereo (ID: ClearStereo)
Wedge Clean (ID: WedgeClean)
Mesomerize (ID: Mesomerize)
Tautomerize (ID: Tautomerize)
Aromatize (ID: Aromatize)
Add Explicit Hydrogens (ID: AddExplicitH)
Neutralize (ID: Neutralize)
Clean 2D (ID: Clean2D)

> <knn Distance>
3.0

> <CpId>
554

$$$$
583
  Mrv1532301301811342D          

 45 45  0  0  0  0            999 V2000
    2.1438   -5.2973    0.0000 C   0  0  0  0  0  0  0  0  0  0  0  0
    2.8582   -4.8848    0.0000 C   0  0  0  0  0  0  0  0  0  0  0  0
    3.5727   -5.2973    0.0000 C   0  0  0  0  0  0  0  0  0  0  0  0
    3.5727   -6.1223    0.0000 O   0  0  0  0  0  0  0  0  0  0  0  0
    4.2872   -4.8848    0.0000 O   0  0  0  0  0  0  0  0  0  0  0  0
    5.0017   -5.2973    0.0000 C   0  0  0  0  0  0  0  0  0  0  0  0
    5.7161   -4.8848    0.0000 C   0  0  0  0  0  0  0  0  0  0  0  0
    5.7161   -4.0598    0.0000 O   0  0  0  0  0  0  0  0  0  0  0  0
    6.4306   -5.2973    0.0000 O   0  0  0  0  0  0  0  0  0  0  0  0
    7.1451   -4.8848    0.0000 C   0  0  0  0  0  0  0  0  0  0  0  0
    7.1451   -4.0598    0.0000 C   0  0  0  0  0  0  0  0  0  0  0  0
    7.8595   -5.2973    0.0000 C   0  0  0  0  0  0  0  0  0  0  0  0
    8.5740   -4.8848    0.0000 C   0  0  0  0  0  0  0  0  0  0  0  0
    9.2885   -5.2973    0.0000 C   0  0  0  0  0  0  0  0  0  0  0  0
    9.2885   -6.1223    0.0000 C   0  0  0  0  0  0  0  0  0  0  0  0
    8.5740   -6.5348    0.0000 C   0  0  0  0  0  0  0  0  0  0  0  0
    9.1043   -7.1668    0.0000 C   0  0  0  0  0  0  0  0  0  0  0  0
    8.0437   -7.1668    0.0000 C   0  0  0  0  0  0  0  0  0  0  0  0
    7.8595   -6.1223    0.0000 C   0  0  0  0  0  0  0  0  0  0  0  0
    1.7313   -4.5828    0.0000 H   0  0  0  0  0  0  0  0  0  0  0  0
    1.4293   -5.7098    0.0000 H   0  0  0  0  0  0  0  0  0  0  0  0
    2.5563   -6.0118    0.0000 H   0  0  0  0  0  0  0  0  0  0  0  0
    3.2285   -4.1476    0.0000 H   0  0  0  0  0  0  0  0  0  0  0  0
    2.4880   -4.1476    0.0000 H   0  0  0  0  0  0  0  0  0  0  0  0
    4.6314   -6.0346    0.0000 H   0  0  0  0  0  0  0  0  0  0  0  0
    5.3719   -6.0346    0.0000 H   0  0  0  0  0  0  0  0  0  0  0  0
    6.4306   -4.4723    0.0000 H   0  0  0  0  0  0  0  0  0  0  0  0
    7.9420   -4.2733    0.0000 H   0  0  0  0  0  0  0  0  0  0  0  0
    7.5576   -3.3453    0.0000 H   0  0  0  0  0  0  0  0  0  0  0  0
    6.5617   -3.4764    0.0000 H   0  0  0  0  0  0  0  0  0  0  0  0
    7.1451   -5.7098    0.0000 H   0  0  0  0  0  0  0  0  0  0  0  0
    9.0708   -4.2262    0.0000 H   0  0  0  0  0  0  0  0  0  0  0  0
    8.5740   -5.7098    0.0000 H   0  0  0  0  0  0  0  0  0  0  0  0
   10.1121   -5.2493    0.0000 H   0  0  0  0  0  0  0  0  0  0  0  0
    9.7418   -4.6080    0.0000 H   0  0  0  0  0  0  0  0  0  0  0  0
    9.7418   -6.8116    0.0000 H   0  0  0  0  0  0  0  0  0  0  0  0
   10.1121   -6.1703    0.0000 H   0  0  0  0  0  0  0  0  0  0  0  0
    8.3066   -7.3773    0.0000 H   0  0  0  0  0  0  0  0  0  0  0  0
    8.9548   -7.9781    0.0000 H   0  0  0  0  0  0  0  0  0  0  0  0
    9.7746   -7.6477    0.0000 H   0  0  0  0  0  0  0  0  0  0  0  0
    7.6586   -6.4372    0.0000 H   0  0  0  0  0  0  0  0  0  0  0  0
    7.2227   -7.2482    0.0000 H   0  0  0  0  0  0  0  0  0  0  0  0
    7.8092   -7.9578    0.0000 H   0  0  0  0  0  0  0  0  0  0  0  0
    7.0581   -6.3181    0.0000 H   0  0  0  0  0  0  0  0  0  0  0  0
    8.0553   -6.9237    0.0000 H   0  0  0  0  0  0  0  0  0  0  0  0
  1  2  1  0  0  0  0
  2  3  1  0  0  0  0
  3  4  2  0  0  0  0
  3  5  1  0  0  0  0
  5  6  1  0  0  0  0
  6  7  1  0  0  0  0
  7  8  2  0  0  0  0
  7  9  1  0  0  0  0
  9 10  1  0  0  0  0
 10 11  1  0  0  0  0
 10 12  1  0  0  0  0
 12 13  1  0  0  0  0
 13 14  1  0  0  0  0
 14 15  1  0  0  0  0
 15 16  1  0  0  0  0
 16 17  1  0  0  0  0
 16 18  1  0  0  0  0
 16 19  1  0  0  0  0
 12 19  1  0  0  0  0
  1 20  1  0  0  0  0
  1 21  1  0  0  0  0
  1 22  1  0  0  0  0
  2 23  1  0  0  0  0
  2 24  1  0  0  0  0
  6 25  1  0  0  0  0
  6 26  1  0  0  0  0
 10 27  1  0  0  0  0
 11 28  1  0  0  0  0
 11 29  1  0  0  0  0
 11 30  1  0  0  0  0
 12 31  1  0  0  0  0
 13 32  1  0  0  0  0
 13 33  1  0  0  0  0
 14 34  1  0  0  0  0
 14 35  1  0  0  0  0
 15 36  1  0  0  0  0
 15 37  1  0  0  0  0
 17 38  1  0  0  0  0
 17 39  1  0  0  0  0
 17 40  1  0  0  0  0
 18 41  1  0  0  0  0
 18 42  1  0  0  0  0
 18 43  1  0  0  0  0
 19 44  1  0  0  0  0
 19 45  1  0  0  0  0
M  END
>  <InChIKey>
PDUFSBFWOJELLV-UHFFFAOYSA-N

>  <UN GHS>
Non-irritant

>  <CASRN>
236391-76-7

> <Outcome>
0

>  <Index>
583

>  <StandardizerResult>
Clear Stereo (ID: ClearStereo)
Wedge Clean (ID: WedgeClean)
Mesomerize (ID: Mesomerize)
Tautomerize (ID: Tautomerize)
Add Explicit Hydrogens (ID: AddExplicitH)
Neutralize (ID: Neutralize)
Clean 2D (ID: Clean2D)

> <knn Distance>
3.0

> <CpId>
583

$$$$
630
  Mrv1532301301811342D          

 43 42  0  0  0  0            999 V2000
    7.9480    5.4134    0.0000 C   0  0  0  0  0  0  0  0  0  0  0  0
    8.6625    5.0009    0.0000 C   0  0  0  0  0  0  0  0  0  0  0  0
    9.3770    5.4134    0.0000 C   0  0  0  0  0  0  0  0  0  0  0  0
   10.0914    5.0009    0.0000 C   0  0  0  0  0  0  0  0  0  0  0  0
   10.8059    5.4134    0.0000 O   0  0  0  0  0  0  0  0  0  0  0  0
   11.5204    5.0009    0.0000 C   0  0  0  0  0  0  0  0  0  0  0  0
   11.5204    4.1759    0.0000 O   0  0  0  0  0  0  0  0  0  0  0  0
   12.2349    5.4134    0.0000 C   0  0  0  0  0  0  0  0  0  0  0  0
   12.9493    5.0009    0.0000 S   0  0  0  0  0  0  0  0  0  0  0  0
   13.6638    5.4134    0.0000 C   0  0  0  0  0  0  0  0  0  0  0  0
   14.3783    5.0009    0.0000 S   0  0  0  0  0  0  0  0  0  0  0  0
   15.0927    5.4134    0.0000 C   0  0  0  0  0  0  0  0  0  0  0  0
   15.8072    5.0009    0.0000 C   0  0  0  0  0  0  0  0  0  0  0  0
   15.8072    4.1759    0.0000 O   0  0  0  0  0  0  0  0  0  0  0  0
   16.5217    5.4134    0.0000 O   0  0  0  0  0  0  0  0  0  0  0  0
   17.2362    5.0009    0.0000 C   0  0  0  0  0  0  0  0  0  0  0  0
   17.9506    5.4134    0.0000 C   0  0  0  0  0  0  0  0  0  0  0  0
   18.6651    5.0009    0.0000 C   0  0  0  0  0  0  0  0  0  0  0  0
   19.3796    5.4134    0.0000 C   0  0  0  0  0  0  0  0  0  0  0  0
    8.3605    6.1279    0.0000 H   0  0  0  0  0  0  0  0  0  0  0  0
    7.2336    5.8259    0.0000 H   0  0  0  0  0  0  0  0  0  0  0  0
    7.5355    4.6989    0.0000 H   0  0  0  0  0  0  0  0  0  0  0  0
    8.2922    4.2636    0.0000 H   0  0  0  0  0  0  0  0  0  0  0  0
    9.0328    4.2636    0.0000 H   0  0  0  0  0  0  0  0  0  0  0  0
    9.7472    6.1506    0.0000 H   0  0  0  0  0  0  0  0  0  0  0  0
    9.0067    6.1506    0.0000 H   0  0  0  0  0  0  0  0  0  0  0  0
    9.7212    4.2636    0.0000 H   0  0  0  0  0  0  0  0  0  0  0  0
   10.4617    4.2636    0.0000 H   0  0  0  0  0  0  0  0  0  0  0  0
   12.6051    6.1506    0.0000 H   0  0  0  0  0  0  0  0  0  0  0  0
   11.8646    6.1506    0.0000 H   0  0  0  0  0  0  0  0  0  0  0  0
   14.0341    6.1506    0.0000 H   0  0  0  0  0  0  0  0  0  0  0  0
   13.2935    6.1506    0.0000 H   0  0  0  0  0  0  0  0  0  0  0  0
   15.4630    6.1506    0.0000 H   0  0  0  0  0  0  0  0  0  0  0  0
   14.7225    6.1506    0.0000 H   0  0  0  0  0  0  0  0  0  0  0  0
   16.8659    4.2636    0.0000 H   0  0  0  0  0  0  0  0  0  0  0  0
   17.6064    4.2636    0.0000 H   0  0  0  0  0  0  0  0  0  0  0  0
   18.3209    6.1506    0.0000 H   0  0  0  0  0  0  0  0  0  0  0  0
   17.5804    6.1506    0.0000 H   0  0  0  0  0  0  0  0  0  0  0  0
   18.2948    4.2636    0.0000 H   0  0  0  0  0  0  0  0  0  0  0  0
   19.0354    4.2636    0.0000 H   0  0  0  0  0  0  0  0  0  0  0  0
   19.7921    4.6989    0.0000 H   0  0  0  0  0  0  0  0  0  0  0  0
   20.0940    5.8259    0.0000 H   0  0  0  0  0  0  0  0  0  0  0  0
   18.9671    6.1279    0.0000 H   0  0  0  0  0  0  0  0  0  0  0  0
  1  2  1  0  0  0  0
  2  3  1  0  0  0  0
  3  4  1  0  0  0  0
  4  5  1  0  0  0  0
  5  6  1  0  0  0  0
  6  7  2  0  0  0  0
  6  8  1  0  0  0  0
  8  9  1  0  0  0  0
  9 10  1  0  0  0  0
 10 11  1  0  0  0  0
 11 12  1  0  0  0  0
 12 13  1  0  0  0  0
 13 14  2  0  0  0  0
 13 15  1  0  0  0  0
 15 16  1  0  0  0  0
 16 17  1  0  0  0  0
 17 18  1  0  0  0  0
 18 19  1  0  0  0  0
  1 20  1  0  0  0  0
  1 21  1  0  0  0  0
  1 22  1  0  0  0  0
  2 23  1  0  0  0  0
  2 24  1  0  0  0  0
  3 25  1  0  0  0  0
  3 26  1  0  0  0  0
  4 27  1  0  0  0  0
  4 28  1  0  0  0  0
  8 29  1  0  0  0  0
  8 30  1  0  0  0  0
 10 31  1  0  0  0  0
 10 32  1  0  0  0  0
 12 33  1  0  0  0  0
 12 34  1  0  0  0  0
 16 35  1  0  0  0  0
 16 36  1  0  0  0  0
 17 37  1  0  0  0  0
 17 38  1  0  0  0  0
 18 39  1  0  0  0  0
 18 40  1  0  0  0  0
 19 41  1  0  0  0  0
 19 42  1  0  0  0  0
 19 43  1  0  0  0  0
M  END
>  <InChIKey>
QCWRDNFBMVSDEY-UHFFFAOYSA-N

>  <UN GHS>
Non-irritant

>  <CASRN>
14338-82-0

> <Outcome>
0

>  <Index>
630

>  <StandardizerResult>
Clear Stereo (ID: ClearStereo)
Wedge Clean (ID: WedgeClean)
Mesomerize (ID: Mesomerize)
Tautomerize (ID: Tautomerize)
Add Explicit Hydrogens (ID: AddExplicitH)
Neutralize (ID: Neutralize)
Clean 2D (ID: Clean2D)

> <knn Distance>
3.0

> <CpId>
630

$$$$
633
  Mrv1532301301811342D          

 25 25  0  0  0  0            999 V2000
    0.0000   -2.4750    0.0000 C   0  0  0  0  0  0  0  0  0  0  0  0
    0.7145   -2.8875    0.0000 C   0  0  0  0  0  0  0  0  0  0  0  0
    1.4289   -2.4750    0.0000 C   0  0  0  0  0  0  0  0  0  0  0  0
    2.1434   -2.8875    0.0000 O   0  0  0  0  0  0  0  0  0  0  0  0
    2.8579   -2.4750    0.0000 C   0  0  0  0  0  0  0  0  0  0  0  0
    2.8579   -1.6500    0.0000 O   0  0  0  0  0  0  0  0  0  0  0  0
    3.5724   -2.8875    0.0000 C   0  0  0  0  0  0  0  0  0  0  0  0
    4.2868   -2.4750    0.0000 C   0  0  0  0  0  0  0  0  0  0  0  0
    5.0013   -2.8875    0.0000 C   0  0  0  0  0  0  0  0  0  0  0  0
    5.0013   -3.7125    0.0000 C   0  0  0  0  0  0  0  0  0  0  0  0
    5.7158   -4.1250    0.0000 O   0  0  0  0  0  0  0  0  0  0  0  0
    4.2868   -4.1250    0.0000 C   0  0  0  0  0  0  0  0  0  0  0  0
    3.5724   -3.7125    0.0000 C   0  0  0  0  0  0  0  0  0  0  0  0
    0.4125   -1.7605    0.0000 H   0  0  0  0  0  0  0  0  0  0  0  0
   -0.7145   -2.0625    0.0000 H   0  0  0  0  0  0  0  0  0  0  0  0
   -0.4125   -3.1895    0.0000 H   0  0  0  0  0  0  0  0  0  0  0  0
    0.3442   -3.6247    0.0000 H   0  0  0  0  0  0  0  0  0  0  0  0
    1.0847   -3.6247    0.0000 H   0  0  0  0  0  0  0  0  0  0  0  0
    1.7992   -1.7378    0.0000 H   0  0  0  0  0  0  0  0  0  0  0  0
    1.0587   -1.7378    0.0000 H   0  0  0  0  0  0  0  0  0  0  0  0
    4.2868   -1.6500    0.0000 H   0  0  0  0  0  0  0  0  0  0  0  0
    5.7158   -2.4750    0.0000 H   0  0  0  0  0  0  0  0  0  0  0  0
    5.7158   -4.9500    0.0000 H   0  0  0  0  0  0  0  0  0  0  0  0
    4.2868   -4.9500    0.0000 H   0  0  0  0  0  0  0  0  0  0  0  0
    2.8579   -4.1250    0.0000 H   0  0  0  0  0  0  0  0  0  0  0  0
  1  2  1  0  0  0  0
  2  3  1  0  0  0  0
  3  4  1  0  0  0  0
  4  5  1  0  0  0  0
  5  6  2  0  0  0  0
  5  7  1  0  0  0  0
  7  8  4  0  0  0  0
  8  9  4  0  0  0  0
  9 10  4  0  0  0  0
 10 11  1  0  0  0  0
 10 12  4  0  0  0  0
 12 13  4  0  0  0  0
  7 13  4  0  0  0  0
  1 14  1  0  0  0  0
  1 15  1  0  0  0  0
  1 16  1  0  0  0  0
  2 17  1  0  0  0  0
  2 18  1  0  0  0  0
  3 19  1  0  0  0  0
  3 20  1  0  0  0  0
  8 21  1  0  0  0  0
  9 22  1  0  0  0  0
 11 23  1  0  0  0  0
 12 24  1  0  0  0  0
 13 25  1  0  0  0  0
M  END
>  <InChIKey>
QELSKZZBTMNZEB-UHFFFAOYSA-N

>  <UN GHS>
Non-irritant

>  <CASRN>
94-13-3

> <Outcome>
0

>  <Index>
633

>  <StandardizerResult>
Dearomatize (ID: Dearomatize)
Clear Stereo (ID: ClearStereo)
Wedge Clean (ID: WedgeClean)
Mesomerize (ID: Mesomerize)
Tautomerize (ID: Tautomerize)
Aromatize (ID: Aromatize)
Add Explicit Hydrogens (ID: AddExplicitH)
Neutralize (ID: Neutralize)
Clean 2D (ID: Clean2D)

> <knn Distance>
3.0

> <CpId>
633

$$$$
643
  Mrv1532301301811342D          

 31 30  0  0  0  0            999 V2000
    3.9215    0.5503    0.0000 C   0  0  0  0  0  0  0  0  0  0  0  0
    3.9215    1.3753    0.0000 C   0  0  0  0  0  0  0  0  0  0  0  0
    3.2070    1.7878    0.0000 C   0  0  0  0  0  0  0  0  0  0  0  0
    2.4926    1.3753    0.0000 C   0  0  0  0  0  0  0  0  0  0  0  0
    1.7781    1.7878    0.0000 O   0  0  0  0  0  0  0  0  0  0  0  0
    4.6360    1.7878    0.0000 C   0  0  0  0  0  0  0  0  0  0  0  0
    5.3504    1.3753    0.0000 C   0  0  0  0  0  0  0  0  0  0  0  0
    6.0649    1.7878    0.0000 C   0  0  0  0  0  0  0  0  0  0  0  0
    6.7794    1.3753    0.0000 C   0  0  0  0  0  0  0  0  0  0  0  0
    7.4939    1.7878    0.0000 C   0  0  0  0  0  0  0  0  0  0  0  0
    6.7794    0.5503    0.0000 C   0  0  0  0  0  0  0  0  0  0  0  0
    3.0965    0.5503    0.0000 H   0  0  0  0  0  0  0  0  0  0  0  0
    3.9215   -0.2747    0.0000 H   0  0  0  0  0  0  0  0  0  0  0  0
    4.7465    0.5503    0.0000 H   0  0  0  0  0  0  0  0  0  0  0  0
    3.2070    0.9628    0.0000 H   0  0  0  0  0  0  0  0  0  0  0  0
    3.5773    2.5250    0.0000 H   0  0  0  0  0  0  0  0  0  0  0  0
    2.8368    2.5250    0.0000 H   0  0  0  0  0  0  0  0  0  0  0  0
    1.8606    0.8450    0.0000 H   0  0  0  0  0  0  0  0  0  0  0  0
    2.3493    0.5628    0.0000 H   0  0  0  0  0  0  0  0  0  0  0  0
    1.3348    2.4836    0.0000 H   0  0  0  0  0  0  0  0  0  0  0  0
    5.0062    2.5250    0.0000 H   0  0  0  0  0  0  0  0  0  0  0  0
    4.2657    2.5250    0.0000 H   0  0  0  0  0  0  0  0  0  0  0  0
    4.9802    0.6380    0.0000 H   0  0  0  0  0  0  0  0  0  0  0  0
    5.7207    0.6380    0.0000 H   0  0  0  0  0  0  0  0  0  0  0  0
    6.0649    2.6128    0.0000 H   0  0  0  0  0  0  0  0  0  0  0  0
    7.9064    1.0733    0.0000 H   0  0  0  0  0  0  0  0  0  0  0  0
    8.2083    2.2003    0.0000 H   0  0  0  0  0  0  0  0  0  0  0  0
    7.0814    2.5022    0.0000 H   0  0  0  0  0  0  0  0  0  0  0  0
    5.9544    0.5503    0.0000 H   0  0  0  0  0  0  0  0  0  0  0  0
    6.7794   -0.2747    0.0000 H   0  0  0  0  0  0  0  0  0  0  0  0
    7.6044    0.5503    0.0000 H   0  0  0  0  0  0  0  0  0  0  0  0
  1  2  1  0  0  0  0
  2  3  1  0  0  0  0
  3  4  1  0  0  0  0
  4  5  1  0  0  0  0
  2  6  1  0  0  0  0
  6  7  1  0  0  0  0
  7  8  1  0  0  0  0
  8  9  2  0  0  0  0
  9 10  1  0  0  0  0
  9 11  1  0  0  0  0
  1 12  1  0  0  0  0
  1 13  1  0  0  0  0
  1 14  1  0  0  0  0
  2 15  1  0  0  0  0
  3 16  1  0  0  0  0
  3 17  1  0  0  0  0
  4 18  1  0  0  0  0
  4 19  1  0  0  0  0
  5 20  1  0  0  0  0
  6 21  1  0  0  0  0
  6 22  1  0  0  0  0
  7 23  1  0  0  0  0
  7 24  1  0  0  0  0
  8 25  1  0  0  0  0
 10 26  1  0  0  0  0
 10 27  1  0  0  0  0
 10 28  1  0  0  0  0
 11 29  1  0  0  0  0
 11 30  1  0  0  0  0
 11 31  1  0  0  0  0
M  END
>  <InChIKey>
QMVPMAAFGQKVCJ-SNVBAGLBSA-N

>  <UN GHS>
Non-irritant

>  <CASRN>
106-22-9

> <Outcome>
0

>  <Index>
643

>  <StandardizerResult>
Clear Stereo (ID: ClearStereo)
Wedge Clean (ID: WedgeClean)
Mesomerize (ID: Mesomerize)
Tautomerize (ID: Tautomerize)
Add Explicit Hydrogens (ID: AddExplicitH)
Neutralize (ID: Neutralize)
Clean 2D (ID: Clean2D)

> <knn Distance>
3.0

> <CpId>
643

$$$$
644
  Mrv1532301301811342D          

 24 23  0  0  0  0            999 V2000
    1.0111    1.3572    0.0000 C   0  0  0  0  0  0  0  0  0  0  0  0
    1.7256    1.7697    0.0000 O   0  0  0  0  0  0  0  0  0  0  0  0
    2.4401    1.3572    0.0000 C   0  0  0  0  0  0  0  0  0  0  0  0
    2.4401    0.5322    0.0000 C   0  0  0  0  0  0  0  0  0  0  0  0
    3.1546    1.7697    0.0000 C   0  0  0  0  0  0  0  0  0  0  0  0
    3.8690    1.3572    0.0000 C   0  0  0  0  0  0  0  0  0  0  0  0
    4.5835    1.7697    0.0000 O   0  0  0  0  0  0  0  0  0  0  0  0
    5.2980    1.3572    0.0000 C   0  0  0  0  0  0  0  0  0  0  0  0
    6.0124    1.7697    0.0000 C   0  0  0  0  0  0  0  0  0  0  0  0
    5.2980    0.5322    0.0000 O   0  0  0  0  0  0  0  0  0  0  0  0
    0.5986    2.0717    0.0000 H   0  0  0  0  0  0  0  0  0  0  0  0
    0.2967    0.9447    0.0000 H   0  0  0  0  0  0  0  0  0  0  0  0
    1.4236    0.6427    0.0000 H   0  0  0  0  0  0  0  0  0  0  0  0
    1.7256    0.9447    0.0000 H   0  0  0  0  0  0  0  0  0  0  0  0
    1.8567   -0.0512    0.0000 H   0  0  0  0  0  0  0  0  0  0  0  0
    2.8526   -0.1823    0.0000 H   0  0  0  0  0  0  0  0  0  0  0  0
    3.2370    0.7457    0.0000 H   0  0  0  0  0  0  0  0  0  0  0  0
    3.5248    2.5070    0.0000 H   0  0  0  0  0  0  0  0  0  0  0  0
    2.7843    2.5070    0.0000 H   0  0  0  0  0  0  0  0  0  0  0  0
    4.3658    0.6986    0.0000 H   0  0  0  0  0  0  0  0  0  0  0  0
    3.8690    2.1822    0.0000 H   0  0  0  0  0  0  0  0  0  0  0  0
    6.4249    1.0552    0.0000 H   0  0  0  0  0  0  0  0  0  0  0  0
    6.7269    2.1822    0.0000 H   0  0  0  0  0  0  0  0  0  0  0  0
    5.5999    2.4842    0.0000 H   0  0  0  0  0  0  0  0  0  0  0  0
  1  2  1  0  0  0  0
  2  3  1  0  0  0  0
  3  4  1  0  0  0  0
  3  5  1  0  0  0  0
  5  6  1  0  0  0  0
  6  7  1  0  0  0  0
  7  8  1  0  0  0  0
  8  9  1  0  0  0  0
  8 10  2  0  0  0  0
  1 11  1  0  0  0  0
  1 12  1  0  0  0  0
  1 13  1  0  0  0  0
  3 14  1  0  0  0  0
  4 15  1  0  0  0  0
  4 16  1  0  0  0  0
  4 17  1  0  0  0  0
  5 18  1  0  0  0  0
  5 19  1  0  0  0  0
  6 20  1  0  0  0  0
  6 21  1  0  0  0  0
  9 22  1  0  0  0  0
  9 23  1  0  0  0  0
  9 24  1  0  0  0  0
M  END
>  <InChIKey>
QMYGFTJCQFEDST-UHFFFAOYSA-N

>  <UN GHS>
Non-irritant

>  <CASRN>
4435-53-4

> <Outcome>
0

>  <Index>
644

>  <StandardizerResult>
Clear Stereo (ID: ClearStereo)
Wedge Clean (ID: WedgeClean)
Mesomerize (ID: Mesomerize)
Tautomerize (ID: Tautomerize)
Add Explicit Hydrogens (ID: AddExplicitH)
Neutralize (ID: Neutralize)
Clean 2D (ID: Clean2D)

> <knn Distance>
3.0

> <CpId>
644

$$$$
681
  Mrv1532301301811342D          

 26 27  0  0  0  0            999 V2000
    4.2868   -1.6500    0.0000 O   0  0  0  0  0  0  0  0  0  0  0  0
    3.5724   -1.2375    0.0000 C   0  0  0  0  0  0  0  0  0  0  0  0
    2.8579   -1.6500    0.0000 O   0  0  0  0  0  0  0  0  0  0  0  0
    2.8579   -2.4750    0.0000 C   0  0  0  0  0  0  0  0  0  0  0  0
    3.5724   -2.8875    0.0000 C   0  0  0  0  0  0  0  0  0  0  0  0
    3.5724   -3.7125    0.0000 C   0  0  0  0  0  0  0  0  0  0  0  0
    2.8579   -4.1250    0.0000 C   0  0  0  0  0  0  0  0  0  0  0  0
    2.1434   -3.7125    0.0000 C   0  0  0  0  0  0  0  0  0  0  0  0
    2.1434   -2.8875    0.0000 C   0  0  0  0  0  0  0  0  0  0  0  0
    3.5724   -0.4125    0.0000 O   0  0  0  0  0  0  0  0  0  0  0  0
    4.2868    0.0000    0.0000 C   0  0  0  0  0  0  0  0  0  0  0  0
    4.2868    0.8250    0.0000 C   0  0  0  0  0  0  0  0  0  0  0  0
    5.0013    1.2375    0.0000 C   0  0  0  0  0  0  0  0  0  0  0  0
    5.7158    0.8250    0.0000 C   0  0  0  0  0  0  0  0  0  0  0  0
    5.7158    0.0000    0.0000 C   0  0  0  0  0  0  0  0  0  0  0  0
    5.0013   -0.4125    0.0000 C   0  0  0  0  0  0  0  0  0  0  0  0
    4.2868   -2.4750    0.0000 H   0  0  0  0  0  0  0  0  0  0  0  0
    4.2868   -4.1250    0.0000 H   0  0  0  0  0  0  0  0  0  0  0  0
    2.8579   -4.9500    0.0000 H   0  0  0  0  0  0  0  0  0  0  0  0
    1.4290   -4.1250    0.0000 H   0  0  0  0  0  0  0  0  0  0  0  0
    1.4290   -2.4750    0.0000 H   0  0  0  0  0  0  0  0  0  0  0  0
    3.5724    1.2375    0.0000 H   0  0  0  0  0  0  0  0  0  0  0  0
    5.0013    2.0625    0.0000 H   0  0  0  0  0  0  0  0  0  0  0  0
    6.4303    1.2375    0.0000 H   0  0  0  0  0  0  0  0  0  0  0  0
    6.4303   -0.4125    0.0000 H   0  0  0  0  0  0  0  0  0  0  0  0
    5.0013   -1.2375    0.0000 H   0  0  0  0  0  0  0  0  0  0  0  0
  1  2  2  0  0  0  0
  2  3  1  0  0  0  0
  3  4  1  0  0  0  0
  4  5  4  0  0  0  0
  5  6  4  0  0  0  0
  6  7  4  0  0  0  0
  7  8  4  0  0  0  0
  8  9  4  0  0  0  0
  4  9  4  0  0  0  0
  2 10  1  0  0  0  0
 10 11  1  0  0  0  0
 11 12  4  0  0  0  0
 12 13  4  0  0  0  0
 13 14  4  0  0  0  0
 14 15  4  0  0  0  0
 15 16  4  0  0  0  0
 11 16  4  0  0  0  0
  5 17  1  0  0  0  0
  6 18  1  0  0  0  0
  7 19  1  0  0  0  0
  8 20  1  0  0  0  0
  9 21  1  0  0  0  0
 12 22  1  0  0  0  0
 13 23  1  0  0  0  0
 14 24  1  0  0  0  0
 15 25  1  0  0  0  0
 16 26  1  0  0  0  0
M  END
>  <InChIKey>
ROORDVPLFPIABK-UHFFFAOYSA-N

>  <UN GHS>
Non-irritant

>  <CASRN>
102-09-0

> <Outcome>
0

>  <Index>
681

>  <StandardizerResult>
Dearomatize (ID: Dearomatize)
Clear Stereo (ID: ClearStereo)
Wedge Clean (ID: WedgeClean)
Mesomerize (ID: Mesomerize)
Tautomerize (ID: Tautomerize)
Aromatize (ID: Aromatize)
Add Explicit Hydrogens (ID: AddExplicitH)
Neutralize (ID: Neutralize)
Clean 2D (ID: Clean2D)

> <knn Distance>
3.0

> <CpId>
681

$$$$
689
  Mrv1532301301811342D          

 29 28  0  0  0  0            999 V2000
    2.9657    2.5571    0.0000 C   0  0  0  0  0  0  0  0  0  0  0  0
    3.6801    2.1446    0.0000 C   0  0  0  0  0  0  0  0  0  0  0  0
    4.3946    2.5571    0.0000 C   0  0  0  0  0  0  0  0  0  0  0  0
    5.1091    2.1446    0.0000 C   0  0  0  0  0  0  0  0  0  0  0  0
    5.8235    2.5571    0.0000 C   0  0  0  0  0  0  0  0  0  0  0  0
    5.8235    3.3821    0.0000 C   0  0  0  0  0  0  0  0  0  0  0  0
    6.5380    3.7946    0.0000 C   0  0  0  0  0  0  0  0  0  0  0  0
    6.5380    2.1446    0.0000 C   0  0  0  0  0  0  0  0  0  0  0  0
    7.2525    2.5571    0.0000 O   0  0  0  0  0  0  0  0  0  0  0  0
    7.9670    2.1446    0.0000 C   0  0  0  0  0  0  0  0  0  0  0  0
    8.6814    2.5571    0.0000 Cl  0  0  0  0  0  0  0  0  0  0  0  0
    7.9670    1.3196    0.0000 O   0  0  0  0  0  0  0  0  0  0  0  0
    3.3782    3.2715    0.0000 H   0  0  0  0  0  0  0  0  0  0  0  0
    2.2512    2.9696    0.0000 H   0  0  0  0  0  0  0  0  0  0  0  0
    2.5532    1.8426    0.0000 H   0  0  0  0  0  0  0  0  0  0  0  0
    3.3099    1.4073    0.0000 H   0  0  0  0  0  0  0  0  0  0  0  0
    4.0504    1.4073    0.0000 H   0  0  0  0  0  0  0  0  0  0  0  0
    4.7649    3.2943    0.0000 H   0  0  0  0  0  0  0  0  0  0  0  0
    4.0243    3.2943    0.0000 H   0  0  0  0  0  0  0  0  0  0  0  0
    4.7388    1.4073    0.0000 H   0  0  0  0  0  0  0  0  0  0  0  0
    5.4793    1.4073    0.0000 H   0  0  0  0  0  0  0  0  0  0  0  0
    5.1091    2.9696    0.0000 H   0  0  0  0  0  0  0  0  0  0  0  0
    5.6803    4.1945    0.0000 H   0  0  0  0  0  0  0  0  0  0  0  0
    5.1916    3.9124    0.0000 H   0  0  0  0  0  0  0  0  0  0  0  0
    6.7689    3.0025    0.0000 H   0  0  0  0  0  0  0  0  0  0  0  0
    7.3622    3.8305    0.0000 H   0  0  0  0  0  0  0  0  0  0  0  0
    6.6990    4.6037    0.0000 H   0  0  0  0  0  0  0  0  0  0  0  0
    6.1678    1.4073    0.0000 H   0  0  0  0  0  0  0  0  0  0  0  0
    6.9083    1.4073    0.0000 H   0  0  0  0  0  0  0  0  0  0  0  0
  1  2  1  0  0  0  0
  2  3  1  0  0  0  0
  3  4  1  0  0  0  0
  4  5  1  0  0  0  0
  5  6  1  0  0  0  0
  6  7  1  0  0  0  0
  5  8  1  0  0  0  0
  8  9  1  0  0  0  0
  9 10  1  0  0  0  0
 10 11  1  0  0  0  0
 10 12  2  0  0  0  0
  1 13  1  0  0  0  0
  1 14  1  0  0  0  0
  1 15  1  0  0  0  0
  2 16  1  0  0  0  0
  2 17  1  0  0  0  0
  3 18  1  0  0  0  0
  3 19  1  0  0  0  0
  4 20  1  0  0  0  0
  4 21  1  0  0  0  0
  5 22  1  0  0  0  0
  6 23  1  0  0  0  0
  6 24  1  0  0  0  0
  7 25  1  0  0  0  0
  7 26  1  0  0  0  0
  7 27  1  0  0  0  0
  8 28  1  0  0  0  0
  8 29  1  0  0  0  0
M  END
>  <InChIKey>
RTGLJCSUKOLTEM-UHFFFAOYSA-N

>  <UN GHS>
Non-irritant

>  <CASRN>
24468-13-1

> <Outcome>
0

>  <Index>
689

>  <StandardizerResult>
Clear Stereo (ID: ClearStereo)
Wedge Clean (ID: WedgeClean)
Mesomerize (ID: Mesomerize)
Tautomerize (ID: Tautomerize)
Add Explicit Hydrogens (ID: AddExplicitH)
Neutralize (ID: Neutralize)
Clean 2D (ID: Clean2D)

> <knn Distance>
3.0

> <CpId>
689

$$$$
693
  Mrv1532301301811342D          

 24 23  0  0  0  0            999 V2000
    1.7345    1.8515    0.0000 C   0  0  0  0  0  0  0  0  0  0  0  0
    2.4489    1.4390    0.0000 C   0  0  0  0  0  0  0  0  0  0  0  0
    2.4489    0.6140    0.0000 C   0  0  0  0  0  0  0  0  0  0  0  0
    3.1634    1.8515    0.0000 C   0  0  0  0  0  0  0  0  0  0  0  0
    3.8779    1.4390    0.0000 O   0  0  0  0  0  0  0  0  0  0  0  0
    4.5923    1.8515    0.0000 C   0  0  0  0  0  0  0  0  0  0  0  0
    4.5923    2.6765    0.0000 O   0  0  0  0  0  0  0  0  0  0  0  0
    5.3068    1.4390    0.0000 C   0  0  0  0  0  0  0  0  0  0  0  0
    6.0213    1.8515    0.0000 C   0  0  0  0  0  0  0  0  0  0  0  0
    5.3068    0.6140    0.0000 C   0  0  0  0  0  0  0  0  0  0  0  0
    2.1470    2.5659    0.0000 H   0  0  0  0  0  0  0  0  0  0  0  0
    1.0200    2.2640    0.0000 H   0  0  0  0  0  0  0  0  0  0  0  0
    1.3220    1.1370    0.0000 H   0  0  0  0  0  0  0  0  0  0  0  0
    1.7345    1.0265    0.0000 H   0  0  0  0  0  0  0  0  0  0  0  0
    1.8656    0.0306    0.0000 H   0  0  0  0  0  0  0  0  0  0  0  0
    2.8614   -0.1005    0.0000 H   0  0  0  0  0  0  0  0  0  0  0  0
    3.2458    0.8275    0.0000 H   0  0  0  0  0  0  0  0  0  0  0  0
    3.5337    2.5887    0.0000 H   0  0  0  0  0  0  0  0  0  0  0  0
    2.7931    2.5887    0.0000 H   0  0  0  0  0  0  0  0  0  0  0  0
    6.4338    1.1370    0.0000 H   0  0  0  0  0  0  0  0  0  0  0  0
    6.7357    2.2640    0.0000 H   0  0  0  0  0  0  0  0  0  0  0  0
    5.6088    2.5659    0.0000 H   0  0  0  0  0  0  0  0  0  0  0  0
    4.5923    0.2015    0.0000 H   0  0  0  0  0  0  0  0  0  0  0  0
    6.0213    0.2015    0.0000 H   0  0  0  0  0  0  0  0  0  0  0  0
  1  2  1  0  0  0  0
  2  3  1  0  0  0  0
  2  4  1  0  0  0  0
  4  5  1  0  0  0  0
  5  6  1  0  0  0  0
  6  7  2  0  0  0  0
  6  8  1  0  0  0  0
  8  9  1  0  0  0  0
  8 10  2  0  0  0  0
  1 11  1  0  0  0  0
  1 12  1  0  0  0  0
  1 13  1  0  0  0  0
  2 14  1  0  0  0  0
  3 15  1  0  0  0  0
  3 16  1  0  0  0  0
  3 17  1  0  0  0  0
  4 18  1  0  0  0  0
  4 19  1  0  0  0  0
  9 20  1  0  0  0  0
  9 21  1  0  0  0  0
  9 22  1  0  0  0  0
 10 23  1  0  0  0  0
 10 24  1  0  0  0  0
M  END
>  <InChIKey>
RUMACXVDVNRZJZ-UHFFFAOYSA-N

>  <UN GHS>
Non-irritant

>  <CASRN>
97-86-9

> <Outcome>
0

>  <Index>
693

>  <StandardizerResult>
Clear Stereo (ID: ClearStereo)
Wedge Clean (ID: WedgeClean)
Mesomerize (ID: Mesomerize)
Tautomerize (ID: Tautomerize)
Add Explicit Hydrogens (ID: AddExplicitH)
Neutralize (ID: Neutralize)
Clean 2D (ID: Clean2D)

> <knn Distance>
3.0

> <CpId>
693

$$$$
711
  Mrv1532301301811342D          

 25 24  0  0  0  0            999 V2000
    4.2355    3.2704    0.0000 C   0  0  0  0  0  0  0  0  0  0  0  0
    4.9500    2.8579    0.0000 C   0  0  0  0  0  0  0  0  0  0  0  0
    5.6645    3.2704    0.0000 O   0  0  0  0  0  0  0  0  0  0  0  0
    6.3789    2.8579    0.0000 C   0  0  0  0  0  0  0  0  0  0  0  0
    7.0934    3.2704    0.0000 C   0  0  0  0  0  0  0  0  0  0  0  0
    7.8079    2.8579    0.0000 O   0  0  0  0  0  0  0  0  0  0  0  0
    8.5223    3.2704    0.0000 C   0  0  0  0  0  0  0  0  0  0  0  0
    9.2368    2.8579    0.0000 C   0  0  0  0  0  0  0  0  0  0  0  0
    9.9513    3.2704    0.0000 O   0  0  0  0  0  0  0  0  0  0  0  0
   10.6658    2.8579    0.0000 C   0  0  0  0  0  0  0  0  0  0  0  0
   11.3802    3.2704    0.0000 C   0  0  0  0  0  0  0  0  0  0  0  0
    4.2355    4.0954    0.0000 H   0  0  0  0  0  0  0  0  0  0  0  0
    3.5210    2.8579    0.0000 H   0  0  0  0  0  0  0  0  0  0  0  0
    4.9500    2.0329    0.0000 H   0  0  0  0  0  0  0  0  0  0  0  0
    6.0087    2.1207    0.0000 H   0  0  0  0  0  0  0  0  0  0  0  0
    6.7492    2.1207    0.0000 H   0  0  0  0  0  0  0  0  0  0  0  0
    7.4637    4.0076    0.0000 H   0  0  0  0  0  0  0  0  0  0  0  0
    6.7231    4.0076    0.0000 H   0  0  0  0  0  0  0  0  0  0  0  0
    8.8926    4.0076    0.0000 H   0  0  0  0  0  0  0  0  0  0  0  0
    8.1521    4.0076    0.0000 H   0  0  0  0  0  0  0  0  0  0  0  0
    8.8666    2.1207    0.0000 H   0  0  0  0  0  0  0  0  0  0  0  0
    9.6071    2.1207    0.0000 H   0  0  0  0  0  0  0  0  0  0  0  0
   10.6658    2.0329    0.0000 H   0  0  0  0  0  0  0  0  0  0  0  0
   12.0947    2.8579    0.0000 H   0  0  0  0  0  0  0  0  0  0  0  0
   11.3802    4.0954    0.0000 H   0  0  0  0  0  0  0  0  0  0  0  0
  1  2  2  0  0  0  0
  2  3  1  0  0  0  0
  3  4  1  0  0  0  0
  4  5  1  0  0  0  0
  5  6  1  0  0  0  0
  6  7  1  0  0  0  0
  7  8  1  0  0  0  0
  8  9  1  0  0  0  0
  9 10  1  0  0  0  0
 10 11  2  0  0  0  0
  1 12  1  0  0  0  0
  1 13  1  0  0  0  0
  2 14  1  0  0  0  0
  4 15  1  0  0  0  0
  4 16  1  0  0  0  0
  5 17  1  0  0  0  0
  5 18  1  0  0  0  0
  7 19  1  0  0  0  0
  7 20  1  0  0  0  0
  8 21  1  0  0  0  0
  8 22  1  0  0  0  0
 10 23  1  0  0  0  0
 11 24  1  0  0  0  0
 11 25  1  0  0  0  0
M  END
>  <InChIKey>
SAMJGBVVQUEMGC-UHFFFAOYSA-N

>  <UN GHS>
Non-irritant

>  <CASRN>
764-99-8

> <Outcome>
0

>  <Index>
711

>  <StandardizerResult>
Clear Stereo (ID: ClearStereo)
Wedge Clean (ID: WedgeClean)
Mesomerize (ID: Mesomerize)
Tautomerize (ID: Tautomerize)
Add Explicit Hydrogens (ID: AddExplicitH)
Neutralize (ID: Neutralize)
Clean 2D (ID: Clean2D)

> <knn Distance>
3.0

> <CpId>
711

$$$$
721
  Mrv1532301301811342D          

 28 29  0  0  0  0            999 V2000
    2.8584   -0.0003    0.0000 O   0  0  0  0  0  0  0  0  0  0  0  0
    3.5729   -0.4128    0.0000 C   0  0  0  0  0  0  0  0  0  0  0  0
    3.5729   -1.2378    0.0000 O   0  0  0  0  0  0  0  0  0  0  0  0
    2.8584   -1.6503    0.0000 C   0  0  0  0  0  0  0  0  0  0  0  0
    2.8584   -2.4753    0.0000 C   0  0  0  0  0  0  0  0  0  0  0  0
    3.5729   -2.8878    0.0000 C   0  0  0  0  0  0  0  0  0  0  0  0
    3.5729   -3.7128    0.0000 C   0  0  0  0  0  0  0  0  0  0  0  0
    2.8584   -4.1253    0.0000 C   0  0  0  0  0  0  0  0  0  0  0  0
    2.1440   -3.7128    0.0000 C   0  0  0  0  0  0  0  0  0  0  0  0
    2.1440   -2.8878    0.0000 C   0  0  0  0  0  0  0  0  0  0  0  0
    4.2874   -0.0003    0.0000 C   0  0  0  0  0  0  0  0  0  0  0  0
    4.2874    0.8247    0.0000 C   0  0  0  0  0  0  0  0  0  0  0  0
    5.0019    1.2372    0.0000 C   0  0  0  0  0  0  0  0  0  0  0  0
    5.7163    0.8247    0.0000 C   0  0  0  0  0  0  0  0  0  0  0  0
    5.7163   -0.0003    0.0000 C   0  0  0  0  0  0  0  0  0  0  0  0
    5.0019   -0.4128    0.0000 C   0  0  0  0  0  0  0  0  0  0  0  0
    2.4051   -0.9610    0.0000 H   0  0  0  0  0  0  0  0  0  0  0  0
    2.0348   -1.6023    0.0000 H   0  0  0  0  0  0  0  0  0  0  0  0
    4.2874   -2.4753    0.0000 H   0  0  0  0  0  0  0  0  0  0  0  0
    4.2874   -4.1253    0.0000 H   0  0  0  0  0  0  0  0  0  0  0  0
    2.8584   -4.9503    0.0000 H   0  0  0  0  0  0  0  0  0  0  0  0
    1.4295   -4.1253    0.0000 H   0  0  0  0  0  0  0  0  0  0  0  0
    1.4295   -2.4753    0.0000 H   0  0  0  0  0  0  0  0  0  0  0  0
    3.5729    1.2372    0.0000 H   0  0  0  0  0  0  0  0  0  0  0  0
    5.0019    2.0622    0.0000 H   0  0  0  0  0  0  0  0  0  0  0  0
    6.4308    1.2372    0.0000 H   0  0  0  0  0  0  0  0  0  0  0  0
    6.4308   -0.4128    0.0000 H   0  0  0  0  0  0  0  0  0  0  0  0
    5.0019   -1.2378    0.0000 H   0  0  0  0  0  0  0  0  0  0  0  0
  1  2  2  0  0  0  0
  2  3  1  0  0  0  0
  3  4  1  0  0  0  0
  4  5  1  0  0  0  0
  5  6  4  0  0  0  0
  6  7  4  0  0  0  0
  7  8  4  0  0  0  0
  8  9  4  0  0  0  0
  9 10  4  0  0  0  0
  5 10  4  0  0  0  0
  2 11  1  0  0  0  0
 11 12  4  0  0  0  0
 12 13  4  0  0  0  0
 13 14  4  0  0  0  0
 14 15  4  0  0  0  0
 15 16  4  0  0  0  0
 11 16  4  0  0  0  0
  4 17  1  0  0  0  0
  4 18  1  0  0  0  0
  6 19  1  0  0  0  0
  7 20  1  0  0  0  0
  8 21  1  0  0  0  0
  9 22  1  0  0  0  0
 10 23  1  0  0  0  0
 12 24  1  0  0  0  0
 13 25  1  0  0  0  0
 14 26  1  0  0  0  0
 15 27  1  0  0  0  0
 16 28  1  0  0  0  0
M  END
>  <InChIKey>
SESFRYSPDFLNCH-UHFFFAOYSA-N

>  <UN GHS>
Non-irritant

>  <CASRN>
120-51-4

> <Outcome>
0

>  <Index>
721

>  <StandardizerResult>
Dearomatize (ID: Dearomatize)
Clear Stereo (ID: ClearStereo)
Wedge Clean (ID: WedgeClean)
Mesomerize (ID: Mesomerize)
Tautomerize (ID: Tautomerize)
Aromatize (ID: Aromatize)
Add Explicit Hydrogens (ID: AddExplicitH)
Neutralize (ID: Neutralize)
Clean 2D (ID: Clean2D)

> <knn Distance>
3.0

> <CpId>
721

$$$$
767
  Mrv1532301301811342D          

 15 15  0  0  0  0            999 V2000
   -0.0000    2.4750    0.0000 O   0  0  0  0  0  0  0  0  0  0  0  0
    0.7145    2.0625    0.0000 C   0  0  0  0  0  0  0  0  0  0  0  0
    1.4289    2.4750    0.0000 O   0  0  0  0  0  0  0  0  0  0  0  0
    0.7145    1.2375    0.0000 C   0  0  0  0  0  0  0  0  0  0  0  0
    1.4289    0.8250    0.0000 C   0  0  0  0  0  0  0  0  0  0  0  0
    1.4289   -0.0000    0.0000 C   0  0  0  0  0  0  0  0  0  0  0  0
    2.1434   -0.4125    0.0000 F   0  0  0  0  0  0  0  0  0  0  0  0
    0.7145   -0.4125    0.0000 C   0  0  0  0  0  0  0  0  0  0  0  0
    0.7145   -1.2375    0.0000 Br  0  0  0  0  0  0  0  0  0  0  0  0
   -0.0000   -0.0000    0.0000 C   0  0  0  0  0  0  0  0  0  0  0  0
   -0.0000    0.8250    0.0000 C   0  0  0  0  0  0  0  0  0  0  0  0
   -0.7145    1.2375    0.0000 Cl  0  0  0  0  0  0  0  0  0  0  0  0
   -0.0000    3.3000    0.0000 H   0  0  0  0  0  0  0  0  0  0  0  0
    2.1434    1.2375    0.0000 H   0  0  0  0  0  0  0  0  0  0  0  0
   -0.7145   -0.4125    0.0000 H   0  0  0  0  0  0  0  0  0  0  0  0
  1  2  1  0  0  0  0
  2  3  2  0  0  0  0
  2  4  1  0  0  0  0
  4  5  4  0  0  0  0
  5  6  4  0  0  0  0
  6  7  1  0  0  0  0
  6  8  4  0  0  0  0
  8  9  1  0  0  0  0
  8 10  4  0  0  0  0
 10 11  4  0  0  0  0
  4 11  4  0  0  0  0
 11 12  1  0  0  0  0
  1 13  1  0  0  0  0
  5 14  1  0  0  0  0
 10 15  1  0  0  0  0
M  END
>  <InChIKey>
TZFKKLGCVKORLS-UHFFFAOYSA-N

>  <UN GHS>
Non-irritant

>  <CASRN>
64742-95-6

> <Outcome>
0

>  <Index>
767

>  <StandardizerResult>
Dearomatize (ID: Dearomatize)
Clear Stereo (ID: ClearStereo)
Wedge Clean (ID: WedgeClean)
Mesomerize (ID: Mesomerize)
Tautomerize (ID: Tautomerize)
Aromatize (ID: Aromatize)
Add Explicit Hydrogens (ID: AddExplicitH)
Neutralize (ID: Neutralize)
Clean 2D (ID: Clean2D)

> <knn Distance>
3.0

> <CpId>
767

$$$$
795
  Mrv1532301301811342D          

 57 56  0  0  0  0            999 V2000
    9.1908    6.1233    0.0000 C   0  0  0  0  0  0  0  0  0  0  0  0
    9.9053    5.7108    0.0000 C   0  0  0  0  0  0  0  0  0  0  0  0
   10.6198    6.1233    0.0000 C   0  0  0  0  0  0  0  0  0  0  0  0
   11.3342    5.7108    0.0000 C   0  0  0  0  0  0  0  0  0  0  0  0
   12.0487    6.1233    0.0000 C   0  0  0  0  0  0  0  0  0  0  0  0
   12.7632    5.7108    0.0000 C   0  0  0  0  0  0  0  0  0  0  0  0
   13.4777    6.1233    0.0000 C   0  0  0  0  0  0  0  0  0  0  0  0
   13.4777    6.9483    0.0000 O   0  0  0  0  0  0  0  0  0  0  0  0
   14.1921    5.7108    0.0000 C   0  0  0  0  0  0  0  0  0  0  0  0
   14.9066    6.1233    0.0000 C   0  0  0  0  0  0  0  0  0  0  0  0
   15.6211    5.7108    0.0000 C   0  0  0  0  0  0  0  0  0  0  0  0
   16.3355    6.1233    0.0000 C   0  0  0  0  0  0  0  0  0  0  0  0
   17.0500    5.7108    0.0000 C   0  0  0  0  0  0  0  0  0  0  0  0
   17.7645    6.1233    0.0000 C   0  0  0  0  0  0  0  0  0  0  0  0
   18.4790    5.7108    0.0000 C   0  0  0  0  0  0  0  0  0  0  0  0
   19.1934    6.1233    0.0000 C   0  0  0  0  0  0  0  0  0  0  0  0
   19.9079    5.7108    0.0000 C   0  0  0  0  0  0  0  0  0  0  0  0
   20.6224    6.1233    0.0000 C   0  0  0  0  0  0  0  0  0  0  0  0
   21.3368    5.7108    0.0000 C   0  0  0  0  0  0  0  0  0  0  0  0
   22.0513    6.1233    0.0000 O   0  0  0  0  0  0  0  0  0  0  0  0
   21.3368    4.8858    0.0000 O   0  0  0  0  0  0  0  0  0  0  0  0
    9.6033    6.8378    0.0000 H   0  0  0  0  0  0  0  0  0  0  0  0
    8.4764    6.5358    0.0000 H   0  0  0  0  0  0  0  0  0  0  0  0
    8.7783    5.4088    0.0000 H   0  0  0  0  0  0  0  0  0  0  0  0
    9.5350    4.9736    0.0000 H   0  0  0  0  0  0  0  0  0  0  0  0
   10.2756    4.9736    0.0000 H   0  0  0  0  0  0  0  0  0  0  0  0
   10.9900    6.8606    0.0000 H   0  0  0  0  0  0  0  0  0  0  0  0
   10.2495    6.8606    0.0000 H   0  0  0  0  0  0  0  0  0  0  0  0
   10.9640    4.9736    0.0000 H   0  0  0  0  0  0  0  0  0  0  0  0
   11.7045    4.9736    0.0000 H   0  0  0  0  0  0  0  0  0  0  0  0
   12.4190    6.8606    0.0000 H   0  0  0  0  0  0  0  0  0  0  0  0
   11.6785    6.8606    0.0000 H   0  0  0  0  0  0  0  0  0  0  0  0
   12.3929    4.9736    0.0000 H   0  0  0  0  0  0  0  0  0  0  0  0
   13.1334    4.9736    0.0000 H   0  0  0  0  0  0  0  0  0  0  0  0
   12.7632    6.5358    0.0000 H   0  0  0  0  0  0  0  0  0  0  0  0
   13.8902    7.6628    0.0000 H   0  0  0  0  0  0  0  0  0  0  0  0
   13.8219    4.9736    0.0000 H   0  0  0  0  0  0  0  0  0  0  0  0
   14.5624    4.9736    0.0000 H   0  0  0  0  0  0  0  0  0  0  0  0
   15.2769    6.8606    0.0000 H   0  0  0  0  0  0  0  0  0  0  0  0
   14.5363    6.8606    0.0000 H   0  0  0  0  0  0  0  0  0  0  0  0
   15.2508    4.9736    0.0000 H   0  0  0  0  0  0  0  0  0  0  0  0
   15.9913    4.9736    0.0000 H   0  0  0  0  0  0  0  0  0  0  0  0
   16.7058    6.8606    0.0000 H   0  0  0  0  0  0  0  0  0  0  0  0
   15.9653    6.8606    0.0000 H   0  0  0  0  0  0  0  0  0  0  0  0
   16.6797    4.9736    0.0000 H   0  0  0  0  0  0  0  0  0  0  0  0
   17.4203    4.9736    0.0000 H   0  0  0  0  0  0  0  0  0  0  0  0
   18.1347    6.8606    0.0000 H   0  0  0  0  0  0  0  0  0  0  0  0
   17.3942    6.8606    0.0000 H   0  0  0  0  0  0  0  0  0  0  0  0
   18.1087    4.9736    0.0000 H   0  0  0  0  0  0  0  0  0  0  0  0
   18.8492    4.9736    0.0000 H   0  0  0  0  0  0  0  0  0  0  0  0
   19.5637    6.8606    0.0000 H   0  0  0  0  0  0  0  0  0  0  0  0
   18.8232    6.8606    0.0000 H   0  0  0  0  0  0  0  0  0  0  0  0
   19.5376    4.9736    0.0000 H   0  0  0  0  0  0  0  0  0  0  0  0
   20.2782    4.9736    0.0000 H   0  0  0  0  0  0  0  0  0  0  0  0
   20.9926    6.8606    0.0000 H   0  0  0  0  0  0  0  0  0  0  0  0
   20.2521    6.8606    0.0000 H   0  0  0  0  0  0  0  0  0  0  0  0
   22.7658    5.7108    0.0000 H   0  0  0  0  0  0  0  0  0  0  0  0
  1  2  1  0  0  0  0
  2  3  1  0  0  0  0
  3  4  1  0  0  0  0
  4  5  1  0  0  0  0
  5  6  1  0  0  0  0
  6  7  1  0  0  0  0
  7  8  1  0  0  0  0
  7  9  1  0  0  0  0
  9 10  1  0  0  0  0
 10 11  1  0  0  0  0
 11 12  1  0  0  0  0
 12 13  1  0  0  0  0
 13 14  1  0  0  0  0
 14 15  1  0  0  0  0
 15 16  1  0  0  0  0
 16 17  1  0  0  0  0
 17 18  1  0  0  0  0
 18 19  1  0  0  0  0
 19 20  1  0  0  0  0
 19 21  2  0  0  0  0
  1 22  1  0  0  0  0
  1 23  1  0  0  0  0
  1 24  1  0  0  0  0
  2 25  1  0  0  0  0
  2 26  1  0  0  0  0
  3 27  1  0  0  0  0
  3 28  1  0  0  0  0
  4 29  1  0  0  0  0
  4 30  1  0  0  0  0
  5 31  1  0  0  0  0
  5 32  1  0  0  0  0
  6 33  1  0  0  0  0
  6 34  1  0  0  0  0
  7 35  1  0  0  0  0
  8 36  1  0  0  0  0
  9 37  1  0  0  0  0
  9 38  1  0  0  0  0
 10 39  1  0  0  0  0
 10 40  1  0  0  0  0
 11 41  1  0  0  0  0
 11 42  1  0  0  0  0
 12 43  1  0  0  0  0
 12 44  1  0  0  0  0
 13 45  1  0  0  0  0
 13 46  1  0  0  0  0
 14 47  1  0  0  0  0
 14 48  1  0  0  0  0
 15 49  1  0  0  0  0
 15 50  1  0  0  0  0
 16 51  1  0  0  0  0
 16 52  1  0  0  0  0
 17 53  1  0  0  0  0
 17 54  1  0  0  0  0
 18 55  1  0  0  0  0
 18 56  1  0  0  0  0
 20 57  1  0  0  0  0
M  END
>  <InChIKey>
ULQISTXYYBZJSJ-UHFFFAOYSA-M

>  <UN GHS>
Non-irritant

>  <CASRN>
7620-77-1

> <Outcome>
0

>  <Index>
795

>  <StandardizerResult>
Clear Stereo (ID: ClearStereo)
Wedge Clean (ID: WedgeClean)
Mesomerize (ID: Mesomerize)
Tautomerize (ID: Tautomerize)
Add Explicit Hydrogens (ID: AddExplicitH)
Neutralize (ID: Neutralize)
Clean 2D (ID: Clean2D)

> <knn Distance>
3.0

> <CpId>
795

$$$$
820
  Mrv1532301301811342D          

 34 33  0  0  0  0            999 V2000
    8.5380    4.1017    0.0000 C   0  0  0  0  0  0  0  0  0  0  0  0
    8.5380    3.2767    0.0000 C   0  0  0  0  0  0  0  0  0  0  0  0
    7.8235    2.8642    0.0000 C   0  0  0  0  0  0  0  0  0  0  0  0
    7.1090    3.2767    0.0000 C   0  0  0  0  0  0  0  0  0  0  0  0
    6.3946    2.8642    0.0000 O   0  0  0  0  0  0  0  0  0  0  0  0
    5.6801    3.2767    0.0000 C   0  0  0  0  0  0  0  0  0  0  0  0
    5.6801    4.1017    0.0000 O   0  0  0  0  0  0  0  0  0  0  0  0
    4.9656    2.8642    0.0000 C   0  0  0  0  0  0  0  0  0  0  0  0
    4.2512    3.2767    0.0000 C   0  0  0  0  0  0  0  0  0  0  0  0
    4.9656    2.0392    0.0000 C   0  0  0  0  0  0  0  0  0  0  0  0
    9.2525    2.8642    0.0000 O   0  0  0  0  0  0  0  0  0  0  0  0
    9.9669    3.2767    0.0000 C   0  0  0  0  0  0  0  0  0  0  0  0
    9.9669    4.1017    0.0000 O   0  0  0  0  0  0  0  0  0  0  0  0
   10.6814    2.8642    0.0000 C   0  0  0  0  0  0  0  0  0  0  0  0
   11.3959    3.2767    0.0000 C   0  0  0  0  0  0  0  0  0  0  0  0
   10.6814    2.0392    0.0000 C   0  0  0  0  0  0  0  0  0  0  0  0
    9.3630    4.1017    0.0000 H   0  0  0  0  0  0  0  0  0  0  0  0
    8.5380    4.9267    0.0000 H   0  0  0  0  0  0  0  0  0  0  0  0
    7.7130    4.1017    0.0000 H   0  0  0  0  0  0  0  0  0  0  0  0
    7.8235    3.6892    0.0000 H   0  0  0  0  0  0  0  0  0  0  0  0
    7.4533    2.1270    0.0000 H   0  0  0  0  0  0  0  0  0  0  0  0
    8.1938    2.1270    0.0000 H   0  0  0  0  0  0  0  0  0  0  0  0
    6.9658    4.0892    0.0000 H   0  0  0  0  0  0  0  0  0  0  0  0
    6.4771    3.8070    0.0000 H   0  0  0  0  0  0  0  0  0  0  0  0
    4.6637    3.9912    0.0000 H   0  0  0  0  0  0  0  0  0  0  0  0
    3.5367    3.6892    0.0000 H   0  0  0  0  0  0  0  0  0  0  0  0
    3.8387    2.5623    0.0000 H   0  0  0  0  0  0  0  0  0  0  0  0
    4.2512    1.6267    0.0000 H   0  0  0  0  0  0  0  0  0  0  0  0
    5.6801    1.6267    0.0000 H   0  0  0  0  0  0  0  0  0  0  0  0
   11.8084    2.5623    0.0000 H   0  0  0  0  0  0  0  0  0  0  0  0
   12.1103    3.6892    0.0000 H   0  0  0  0  0  0  0  0  0  0  0  0
   10.9834    3.9912    0.0000 H   0  0  0  0  0  0  0  0  0  0  0  0
    9.9669    1.6267    0.0000 H   0  0  0  0  0  0  0  0  0  0  0  0
   11.3959    1.6267    0.0000 H   0  0  0  0  0  0  0  0  0  0  0  0
  1  2  1  0  0  0  0
  2  3  1  0  0  0  0
  3  4  1  0  0  0  0
  4  5  1  0  0  0  0
  5  6  1  0  0  0  0
  6  7  2  0  0  0  0
  6  8  1  0  0  0  0
  8  9  1  0  0  0  0
  8 10  2  0  0  0  0
  2 11  1  0  0  0  0
 11 12  1  0  0  0  0
 12 13  2  0  0  0  0
 12 14  1  0  0  0  0
 14 15  1  0  0  0  0
 14 16  2  0  0  0  0
  1 17  1  0  0  0  0
  1 18  1  0  0  0  0
  1 19  1  0  0  0  0
  2 20  1  0  0  0  0
  3 21  1  0  0  0  0
  3 22  1  0  0  0  0
  4 23  1  0  0  0  0
  4 24  1  0  0  0  0
  9 25  1  0  0  0  0
  9 26  1  0  0  0  0
  9 27  1  0  0  0  0
 10 28  1  0  0  0  0
 10 29  1  0  0  0  0
 15 30  1  0  0  0  0
 15 31  1  0  0  0  0
 15 32  1  0  0  0  0
 16 33  1  0  0  0  0
 16 34  1  0  0  0  0
M  END
>  <InChIKey>
VDYWHVQKENANGY-UHFFFAOYSA-N

>  <UN GHS>
Non-irritant

>  <CASRN>
1189-08-8

> <Outcome>
0

>  <Index>
820

>  <StandardizerResult>
Clear Stereo (ID: ClearStereo)
Wedge Clean (ID: WedgeClean)
Mesomerize (ID: Mesomerize)
Tautomerize (ID: Tautomerize)
Add Explicit Hydrogens (ID: AddExplicitH)
Neutralize (ID: Neutralize)
Clean 2D (ID: Clean2D)

> <knn Distance>
3.0

> <CpId>
820

$$$$
827
  Mrv1532301301811342D          

 24 24  0  0  0  0            999 V2000
    0.0000   -2.4750    0.0000 C   0  0  0  0  0  0  0  0  0  0  0  0
    0.7145   -2.8875    0.0000 C   0  0  0  0  0  0  0  0  0  0  0  0
    1.4289   -2.4750    0.0000 C   0  0  0  0  0  0  0  0  0  0  0  0
    1.4289   -1.6500    0.0000 O   0  0  0  0  0  0  0  0  0  0  0  0
    2.1434   -2.8875    0.0000 O   0  0  0  0  0  0  0  0  0  0  0  0
    2.8579   -2.4750    0.0000 C   0  0  0  0  0  0  0  0  0  0  0  0
    3.5724   -2.8875    0.0000 C   0  0  0  0  0  0  0  0  0  0  0  0
    4.2868   -2.4750    0.0000 C   0  0  0  0  0  0  0  0  0  0  0  0
    5.0013   -2.8875    0.0000 C   0  0  0  0  0  0  0  0  0  0  0  0
    5.0013   -3.7125    0.0000 C   0  0  0  0  0  0  0  0  0  0  0  0
    4.2868   -4.1250    0.0000 C   0  0  0  0  0  0  0  0  0  0  0  0
    3.5724   -3.7125    0.0000 C   0  0  0  0  0  0  0  0  0  0  0  0
    0.4125   -1.7605    0.0000 H   0  0  0  0  0  0  0  0  0  0  0  0
   -0.7145   -2.0625    0.0000 H   0  0  0  0  0  0  0  0  0  0  0  0
   -0.4125   -3.1895    0.0000 H   0  0  0  0  0  0  0  0  0  0  0  0
    0.3442   -3.6247    0.0000 H   0  0  0  0  0  0  0  0  0  0  0  0
    1.0847   -3.6247    0.0000 H   0  0  0  0  0  0  0  0  0  0  0  0
    3.2281   -1.7378    0.0000 H   0  0  0  0  0  0  0  0  0  0  0  0
    2.4876   -1.7378    0.0000 H   0  0  0  0  0  0  0  0  0  0  0  0
    4.2868   -1.6500    0.0000 H   0  0  0  0  0  0  0  0  0  0  0  0
    5.7158   -2.4750    0.0000 H   0  0  0  0  0  0  0  0  0  0  0  0
    5.7158   -4.1250    0.0000 H   0  0  0  0  0  0  0  0  0  0  0  0
    4.2868   -4.9500    0.0000 H   0  0  0  0  0  0  0  0  0  0  0  0
    2.8579   -4.1250    0.0000 H   0  0  0  0  0  0  0  0  0  0  0  0
  1  2  1  0  0  0  0
  2  3  1  0  0  0  0
  3  4  2  0  0  0  0
  3  5  1  0  0  0  0
  5  6  1  0  0  0  0
  6  7  1  0  0  0  0
  7  8  4  0  0  0  0
  8  9  4  0  0  0  0
  9 10  4  0  0  0  0
 10 11  4  0  0  0  0
 11 12  4  0  0  0  0
  7 12  4  0  0  0  0
  1 13  1  0  0  0  0
  1 14  1  0  0  0  0
  1 15  1  0  0  0  0
  2 16  1  0  0  0  0
  2 17  1  0  0  0  0
  6 18  1  0  0  0  0
  6 19  1  0  0  0  0
  8 20  1  0  0  0  0
  9 21  1  0  0  0  0
 10 22  1  0  0  0  0
 11 23  1  0  0  0  0
 12 24  1  0  0  0  0
M  END
>  <InChIKey>
VHOMAPWVLKRQAZ-UHFFFAOYSA-N

>  <UN GHS>
Non-irritant

>  <CASRN>
122-63-4

> <Outcome>
0

>  <Index>
827

>  <StandardizerResult>
Dearomatize (ID: Dearomatize)
Clear Stereo (ID: ClearStereo)
Wedge Clean (ID: WedgeClean)
Mesomerize (ID: Mesomerize)
Tautomerize (ID: Tautomerize)
Aromatize (ID: Aromatize)
Add Explicit Hydrogens (ID: AddExplicitH)
Neutralize (ID: Neutralize)
Clean 2D (ID: Clean2D)

> <knn Distance>
3.0

> <CpId>
827

$$$$
841
  Mrv1532301301811342D          

 42 41  0  0  0  0            999 V2000
   -0.6645   -0.7781    0.0000 C   0  0  0  0  0  0  0  0  0  0  0  0
    0.0499   -1.1906    0.0000 C   0  0  0  0  0  0  0  0  0  0  0  0
    0.0499   -2.0156    0.0000 C   0  0  0  0  0  0  0  0  0  0  0  0
   -0.6645   -2.4281    0.0000 C   0  0  0  0  0  0  0  0  0  0  0  0
   -1.3790   -2.0156    0.0000 O   0  0  0  0  0  0  0  0  0  0  0  0
   -0.6645   -3.2531    0.0000 O   0  0  0  0  0  0  0  0  0  0  0  0
   -1.3790   -3.6656    0.0000 O   0  0  0  0  0  0  0  0  0  0  0  0
   -1.3790   -4.4906    0.0000 C   0  0  0  0  0  0  0  0  0  0  0  0
   -1.3790   -5.3156    0.0000 C   0  0  0  0  0  0  0  0  0  0  0  0
   -0.5540   -4.4906    0.0000 C   0  0  0  0  0  0  0  0  0  0  0  0
   -2.2040   -4.4906    0.0000 C   0  0  0  0  0  0  0  0  0  0  0  0
    0.7644   -0.7781    0.0000 C   0  0  0  0  0  0  0  0  0  0  0  0
    0.7644    0.0469    0.0000 C   0  0  0  0  0  0  0  0  0  0  0  0
    0.7644    0.8719    0.0000 C   0  0  0  0  0  0  0  0  0  0  0  0
    1.5894    0.0469    0.0000 C   0  0  0  0  0  0  0  0  0  0  0  0
   -0.0606    0.0469    0.0000 C   0  0  0  0  0  0  0  0  0  0  0  0
   -0.2520   -0.0637    0.0000 H   0  0  0  0  0  0  0  0  0  0  0  0
   -1.3790   -0.3656    0.0000 H   0  0  0  0  0  0  0  0  0  0  0  0
   -1.0770   -1.4926    0.0000 H   0  0  0  0  0  0  0  0  0  0  0  0
   -0.6645   -1.6031    0.0000 H   0  0  0  0  0  0  0  0  0  0  0  0
    0.5033   -2.7049    0.0000 H   0  0  0  0  0  0  0  0  0  0  0  0
    0.8735   -2.0636    0.0000 H   0  0  0  0  0  0  0  0  0  0  0  0
   -2.2040   -5.3156    0.0000 H   0  0  0  0  0  0  0  0  0  0  0  0
   -1.3790   -6.1406    0.0000 H   0  0  0  0  0  0  0  0  0  0  0  0
   -0.5540   -5.3156    0.0000 H   0  0  0  0  0  0  0  0  0  0  0  0
    0.2082   -4.8064    0.0000 H   0  0  0  0  0  0  0  0  0  0  0  0
    0.0293   -3.9073    0.0000 H   0  0  0  0  0  0  0  0  0  0  0  0
   -0.8697   -3.7284    0.0000 H   0  0  0  0  0  0  0  0  0  0  0  0
   -1.8883   -3.7284    0.0000 H   0  0  0  0  0  0  0  0  0  0  0  0
   -2.7874   -3.9073    0.0000 H   0  0  0  0  0  0  0  0  0  0  0  0
   -2.9662   -4.8064    0.0000 H   0  0  0  0  0  0  0  0  0  0  0  0
    1.2177   -1.4674    0.0000 H   0  0  0  0  0  0  0  0  0  0  0  0
    1.5880   -0.8261    0.0000 H   0  0  0  0  0  0  0  0  0  0  0  0
    1.5894    0.8719    0.0000 H   0  0  0  0  0  0  0  0  0  0  0  0
    0.7644    1.6969    0.0000 H   0  0  0  0  0  0  0  0  0  0  0  0
   -0.0606    0.8719    0.0000 H   0  0  0  0  0  0  0  0  0  0  0  0
    2.1721   -0.5372    0.0000 H   0  0  0  0  0  0  0  0  0  0  0  0
    2.4144    0.0462    0.0000 H   0  0  0  0  0  0  0  0  0  0  0  0
    2.1730    0.6300    0.0000 H   0  0  0  0  0  0  0  0  0  0  0  0
   -0.2039   -0.7656    0.0000 H   0  0  0  0  0  0  0  0  0  0  0  0
    0.4697   -0.5851    0.0000 H   0  0  0  0  0  0  0  0  0  0  0  0
   -0.7751    0.4594    0.0000 H   0  0  0  0  0  0  0  0  0  0  0  0
  1  2  1  0  0  0  0
  2  3  1  0  0  0  0
  3  4  1  0  0  0  0
  4  5  2  0  0  0  0
  4  6  1  0  0  0  0
  6  7  1  0  0  0  0
  7  8  1  0  0  0  0
  8  9  1  0  0  0  0
  8 10  1  0  0  0  0
  8 11  1  0  0  0  0
  2 12  1  0  0  0  0
 12 13  1  0  0  0  0
 13 14  1  0  0  0  0
 13 15  1  0  0  0  0
 13 16  1  0  0  0  0
  1 17  1  0  0  0  0
  1 18  1  0  0  0  0
  1 19  1  0  0  0  0
  2 20  1  0  0  0  0
  3 21  1  0  0  0  0
  3 22  1  0  0  0  0
  9 23  1  0  0  0  0
  9 24  1  0  0  0  0
  9 25  1  0  0  0  0
 10 26  1  0  0  0  0
 10 27  1  0  0  0  0
 10 28  1  0  0  0  0
 11 29  1  0  0  0  0
 11 30  1  0  0  0  0
 11 31  1  0  0  0  0
 12 32  1  0  0  0  0
 12 33  1  0  0  0  0
 14 34  1  0  0  0  0
 14 35  1  0  0  0  0
 14 36  1  0  0  0  0
 15 37  1  0  0  0  0
 15 38  1  0  0  0  0
 15 39  1  0  0  0  0
 16 40  1  0  0  0  0
 16 41  1  0  0  0  0
 16 42  1  0  0  0  0
M  END
>  <InChIKey>
VSJBBIJIXZVVLQ-UHFFFAOYSA-N

>  <UN GHS>
Non-irritant

>  <CASRN>
13122-18-4

> <Outcome>
0

>  <Index>
841

>  <StandardizerResult>
Clear Stereo (ID: ClearStereo)
Wedge Clean (ID: WedgeClean)
Mesomerize (ID: Mesomerize)
Tautomerize (ID: Tautomerize)
Add Explicit Hydrogens (ID: AddExplicitH)
Neutralize (ID: Neutralize)
Clean 2D (ID: Clean2D)

> <knn Distance>
3.0

> <CpId>
841

$$$$
867
  Mrv1532301301811342D          

 26 25  0  0  0  0            999 V2000
    0.7944   -1.4320    0.0000 C   0  0  0  0  0  0  0  0  0  0  0  0
    1.2069   -2.1464    0.0000 C   0  0  0  0  0  0  0  0  0  0  0  0
    2.0319   -2.1464    0.0000 C   0  0  0  0  0  0  0  0  0  0  0  0
    2.4444   -2.8609    0.0000 C   0  0  0  0  0  0  0  0  0  0  0  0
    3.2694   -2.8609    0.0000 C   0  0  0  0  0  0  0  0  0  0  0  0
    3.6819   -3.5754    0.0000 C   0  0  0  0  0  0  0  0  0  0  0  0
    4.5069   -3.5754    0.0000 C   0  0  0  0  0  0  0  0  0  0  0  0
    3.6819   -2.1464    0.0000 C   0  0  0  0  0  0  0  0  0  0  0  0
    4.5069   -2.1464    0.0000 Cl  0  0  0  0  0  0  0  0  0  0  0  0
    1.5089   -1.0195    0.0000 H   0  0  0  0  0  0  0  0  0  0  0  0
    0.3819   -0.7175    0.0000 H   0  0  0  0  0  0  0  0  0  0  0  0
    0.0799   -1.8445    0.0000 H   0  0  0  0  0  0  0  0  0  0  0  0
    0.5176   -2.5998    0.0000 H   0  0  0  0  0  0  0  0  0  0  0  0
    1.1589   -2.9700    0.0000 H   0  0  0  0  0  0  0  0  0  0  0  0
    2.7212   -1.6931    0.0000 H   0  0  0  0  0  0  0  0  0  0  0  0
    2.0798   -1.3228    0.0000 H   0  0  0  0  0  0  0  0  0  0  0  0
    1.7551   -3.3142    0.0000 H   0  0  0  0  0  0  0  0  0  0  0  0
    2.3964   -3.6845    0.0000 H   0  0  0  0  0  0  0  0  0  0  0  0
    2.8569   -3.5754    0.0000 H   0  0  0  0  0  0  0  0  0  0  0  0
    3.3997   -4.3506    0.0000 H   0  0  0  0  0  0  0  0  0  0  0  0
    3.9640   -4.3506    0.0000 H   0  0  0  0  0  0  0  0  0  0  0  0
    5.0508   -4.1956    0.0000 H   0  0  0  0  0  0  0  0  0  0  0  0
    5.2387   -3.1944    0.0000 H   0  0  0  0  0  0  0  0  0  0  0  0
    4.3108   -2.7740    0.0000 H   0  0  0  0  0  0  0  0  0  0  0  0
    3.6339   -1.3228    0.0000 H   0  0  0  0  0  0  0  0  0  0  0  0
    2.9926   -1.6931    0.0000 H   0  0  0  0  0  0  0  0  0  0  0  0
  1  2  1  0  0  0  0
  2  3  1  0  0  0  0
  3  4  1  0  0  0  0
  4  5  1  0  0  0  0
  5  6  1  0  0  0  0
  6  7  1  0  0  0  0
  5  8  1  0  0  0  0
  8  9  1  0  0  0  0
  1 10  1  0  0  0  0
  1 11  1  0  0  0  0
  1 12  1  0  0  0  0
  2 13  1  0  0  0  0
  2 14  1  0  0  0  0
  3 15  1  0  0  0  0
  3 16  1  0  0  0  0
  4 17  1  0  0  0  0
  4 18  1  0  0  0  0
  5 19  1  0  0  0  0
  6 20  1  0  0  0  0
  6 21  1  0  0  0  0
  7 22  1  0  0  0  0
  7 23  1  0  0  0  0
  7 24  1  0  0  0  0
  8 25  1  0  0  0  0
  8 26  1  0  0  0  0
M  END
>  <InChIKey>
WLVCBAMXYMWGLJ-UHFFFAOYSA-N

>  <UN GHS>
Non-irritant

>  <CASRN>
123-04-6

> <Outcome>
0

>  <Index>
867

>  <StandardizerResult>
Clear Stereo (ID: ClearStereo)
Wedge Clean (ID: WedgeClean)
Mesomerize (ID: Mesomerize)
Tautomerize (ID: Tautomerize)
Add Explicit Hydrogens (ID: AddExplicitH)
Neutralize (ID: Neutralize)
Clean 2D (ID: Clean2D)

> <knn Distance>
3.0

> <CpId>
867

$$$$
870
  Mrv1532301301811342D          

 20 19  0  0  0  0            999 V2000
    1.0461    1.4289    0.0000 O   0  0  0  0  0  0  0  0  0  0  0  0
    1.7605    1.8414    0.0000 C   0  0  0  0  0  0  0  0  0  0  0  0
    1.7605    2.6664    0.0000 O   0  0  0  0  0  0  0  0  0  0  0  0
    2.4750    1.4289    0.0000 C   0  0  0  0  0  0  0  0  0  0  0  0
    3.1895    1.8414    0.0000 C   0  0  0  0  0  0  0  0  0  0  0  0
    3.9039    1.4289    0.0000 C   0  0  0  0  0  0  0  0  0  0  0  0
    4.6184    1.8414    0.0000 C   0  0  0  0  0  0  0  0  0  0  0  0
    5.3329    1.4289    0.0000 C   0  0  0  0  0  0  0  0  0  0  0  0
    6.0474    1.8414    0.0000 O   0  0  0  0  0  0  0  0  0  0  0  0
    5.3329    0.6039    0.0000 O   0  0  0  0  0  0  0  0  0  0  0  0
    0.3316    1.8414    0.0000 H   0  0  0  0  0  0  0  0  0  0  0  0
    2.1047    0.6917    0.0000 H   0  0  0  0  0  0  0  0  0  0  0  0
    2.8453    0.6917    0.0000 H   0  0  0  0  0  0  0  0  0  0  0  0
    3.5597    2.5786    0.0000 H   0  0  0  0  0  0  0  0  0  0  0  0
    2.8192    2.5786    0.0000 H   0  0  0  0  0  0  0  0  0  0  0  0
    3.5337    0.6917    0.0000 H   0  0  0  0  0  0  0  0  0  0  0  0
    4.2742    0.6917    0.0000 H   0  0  0  0  0  0  0  0  0  0  0  0
    4.9887    2.5786    0.0000 H   0  0  0  0  0  0  0  0  0  0  0  0
    4.2482    2.5786    0.0000 H   0  0  0  0  0  0  0  0  0  0  0  0
    6.7618    1.4289    0.0000 H   0  0  0  0  0  0  0  0  0  0  0  0
  1  2  1  0  0  0  0
  2  3  2  0  0  0  0
  2  4  1  0  0  0  0
  4  5  1  0  0  0  0
  5  6  1  0  0  0  0
  6  7  1  0  0  0  0
  7  8  1  0  0  0  0
  8  9  1  0  0  0  0
  8 10  2  0  0  0  0
  1 11  1  0  0  0  0
  4 12  1  0  0  0  0
  4 13  1  0  0  0  0
  5 14  1  0  0  0  0
  5 15  1  0  0  0  0
  6 16  1  0  0  0  0
  6 17  1  0  0  0  0
  7 18  1  0  0  0  0
  7 19  1  0  0  0  0
  9 20  1  0  0  0  0
M  END
>  <InChIKey>
WNLRTRBMVRJNCN-UHFFFAOYSA-N

>  <UN GHS>
Non-irritant

>  <CASRN>
3323-53-3

> <Outcome>
0

>  <Index>
870

>  <StandardizerResult>
Clear Stereo (ID: ClearStereo)
Wedge Clean (ID: WedgeClean)
Mesomerize (ID: Mesomerize)
Tautomerize (ID: Tautomerize)
Add Explicit Hydrogens (ID: AddExplicitH)
Neutralize (ID: Neutralize)
Clean 2D (ID: Clean2D)

> <knn Distance>
3.0

> <CpId>
870

$$$$
915
  Mrv1532301301811342D          

 26 26  0  0  0  0            999 V2000
    0.0503    2.5049    0.0000 C   0  0  0  0  0  0  0  0  0  0  0  0
    0.7648    2.0924    0.0000 C   0  0  0  0  0  0  0  0  0  0  0  0
    1.4793    2.5049    0.0000 C   0  0  0  0  0  0  0  0  0  0  0  0
    0.7648    1.2674    0.0000 C   0  0  0  0  0  0  0  0  0  0  0  0
    1.4793    0.8549    0.0000 C   0  0  0  0  0  0  0  0  0  0  0  0
    1.4793    0.0299    0.0000 C   0  0  0  0  0  0  0  0  0  0  0  0
    0.7648   -0.3826    0.0000 C   0  0  0  0  0  0  0  0  0  0  0  0
    0.7648   -1.2076    0.0000 C   0  0  0  0  0  0  0  0  0  0  0  0
    0.0503    0.0299    0.0000 C   0  0  0  0  0  0  0  0  0  0  0  0
    0.0503    0.8549    0.0000 C   0  0  0  0  0  0  0  0  0  0  0  0
    0.4628    3.2194    0.0000 H   0  0  0  0  0  0  0  0  0  0  0  0
   -0.6642    2.9174    0.0000 H   0  0  0  0  0  0  0  0  0  0  0  0
   -0.3622    1.7905    0.0000 H   0  0  0  0  0  0  0  0  0  0  0  0
    2.1937    2.0924    0.0000 H   0  0  0  0  0  0  0  0  0  0  0  0
    1.4793    3.3299    0.0000 H   0  0  0  0  0  0  0  0  0  0  0  0
    0.0503    1.6799    0.0000 H   0  0  0  0  0  0  0  0  0  0  0  0
    2.3029    0.9029    0.0000 H   0  0  0  0  0  0  0  0  0  0  0  0
    1.9326    1.5442    0.0000 H   0  0  0  0  0  0  0  0  0  0  0  0
    1.9326   -0.6593    0.0000 H   0  0  0  0  0  0  0  0  0  0  0  0
    2.3029   -0.0180    0.0000 H   0  0  0  0  0  0  0  0  0  0  0  0
   -0.0602   -1.2076    0.0000 H   0  0  0  0  0  0  0  0  0  0  0  0
    0.7648   -2.0326    0.0000 H   0  0  0  0  0  0  0  0  0  0  0  0
    1.5898   -1.2076    0.0000 H   0  0  0  0  0  0  0  0  0  0  0  0
   -0.6642   -0.3826    0.0000 H   0  0  0  0  0  0  0  0  0  0  0  0
   -0.7249    1.1371    0.0000 H   0  0  0  0  0  0  0  0  0  0  0  0
   -0.7249    0.5728    0.0000 H   0  0  0  0  0  0  0  0  0  0  0  0
  1  2  1  0  0  0  0
  2  3  2  0  0  0  0
  2  4  1  0  0  0  0
  4  5  1  0  0  0  0
  5  6  1  0  0  0  0
  6  7  1  0  0  0  0
  7  8  1  0  0  0  0
  7  9  2  0  0  0  0
  9 10  1  0  0  0  0
  4 10  1  0  0  0  0
  1 11  1  0  0  0  0
  1 12  1  0  0  0  0
  1 13  1  0  0  0  0
  3 14  1  0  0  0  0
  3 15  1  0  0  0  0
  4 16  1  0  0  0  0
  5 17  1  0  0  0  0
  5 18  1  0  0  0  0
  6 19  1  0  0  0  0
  6 20  1  0  0  0  0
  8 21  1  0  0  0  0
  8 22  1  0  0  0  0
  8 23  1  0  0  0  0
  9 24  1  0  0  0  0
 10 25  1  0  0  0  0
 10 26  1  0  0  0  0
M  END
>  <InChIKey>
XMGQYMWWDOXHJM-UHFFFAOYSA-N

>  <UN GHS>
Non-irritant

>  <CASRN>
5989-27-5

> <Outcome>
0

>  <Index>
915

>  <StandardizerResult>
Clear Stereo (ID: ClearStereo)
Wedge Clean (ID: WedgeClean)
Mesomerize (ID: Mesomerize)
Tautomerize (ID: Tautomerize)
Add Explicit Hydrogens (ID: AddExplicitH)
Neutralize (ID: Neutralize)
Clean 2D (ID: Clean2D)

> <knn Distance>
3.0

> <CpId>
915

$$$$
917
  Mrv1532301301811342D          

 42 43  0  0  0  0            999 V2000
    1.5395   -1.2375    0.0000 C   0  0  0  0  0  0  0  0  0  0  0  0
    0.7145   -1.2375    0.0000 C   0  0  0  0  0  0  0  0  0  0  0  0
   -0.1105   -1.2375    0.0000 C   0  0  0  0  0  0  0  0  0  0  0  0
    0.7145   -2.0625    0.0000 O   0  0  0  0  0  0  0  0  0  0  0  0
    1.4289   -2.4750    0.0000 O   0  0  0  0  0  0  0  0  0  0  0  0
    1.4289   -3.3000    0.0000 C   0  0  0  0  0  0  0  0  0  0  0  0
    2.2539   -3.3000    0.0000 C   0  0  0  0  0  0  0  0  0  0  0  0
    0.6039   -3.3000    0.0000 C   0  0  0  0  0  0  0  0  0  0  0  0
    1.4289   -4.1250    0.0000 C   0  0  0  0  0  0  0  0  0  0  0  0
    2.1434   -4.5375    0.0000 C   0  0  0  0  0  0  0  0  0  0  0  0
    2.1434   -5.3625    0.0000 C   0  0  0  0  0  0  0  0  0  0  0  0
    1.4289   -5.7750    0.0000 C   0  0  0  0  0  0  0  0  0  0  0  0
    0.7145   -5.3625    0.0000 C   0  0  0  0  0  0  0  0  0  0  0  0
    0.7145   -4.5375    0.0000 C   0  0  0  0  0  0  0  0  0  0  0  0
    0.7145   -0.4125    0.0000 C   0  0  0  0  0  0  0  0  0  0  0  0
   -0.0000    0.0000    0.0000 C   0  0  0  0  0  0  0  0  0  0  0  0
   -0.0000    0.8250    0.0000 C   0  0  0  0  0  0  0  0  0  0  0  0
    0.7145    1.2375    0.0000 C   0  0  0  0  0  0  0  0  0  0  0  0
    1.4289    0.8250    0.0000 C   0  0  0  0  0  0  0  0  0  0  0  0
    1.4289    0.0000    0.0000 C   0  0  0  0  0  0  0  0  0  0  0  0
    1.5395   -2.0625    0.0000 H   0  0  0  0  0  0  0  0  0  0  0  0
    2.3645   -1.2375    0.0000 H   0  0  0  0  0  0  0  0  0  0  0  0
    1.5395   -0.4125    0.0000 H   0  0  0  0  0  0  0  0  0  0  0  0
   -0.1105   -0.4125    0.0000 H   0  0  0  0  0  0  0  0  0  0  0  0
   -0.9355   -1.2375    0.0000 H   0  0  0  0  0  0  0  0  0  0  0  0
   -0.1105   -2.0625    0.0000 H   0  0  0  0  0  0  0  0  0  0  0  0
    2.2539   -4.1250    0.0000 H   0  0  0  0  0  0  0  0  0  0  0  0
    3.0789   -3.3000    0.0000 H   0  0  0  0  0  0  0  0  0  0  0  0
    2.2539   -2.4750    0.0000 H   0  0  0  0  0  0  0  0  0  0  0  0
    0.6039   -2.4750    0.0000 H   0  0  0  0  0  0  0  0  0  0  0  0
   -0.2211   -3.3000    0.0000 H   0  0  0  0  0  0  0  0  0  0  0  0
    0.6039   -4.1250    0.0000 H   0  0  0  0  0  0  0  0  0  0  0  0
    2.9613   -4.6452    0.0000 H   0  0  0  0  0  0  0  0  0  0  0  0
    2.8579   -5.7750    0.0000 H   0  0  0  0  0  0  0  0  0  0  0  0
    1.4289   -6.6000    0.0000 H   0  0  0  0  0  0  0  0  0  0  0  0
   -0.0000   -5.7750    0.0000 H   0  0  0  0  0  0  0  0  0  0  0  0
   -0.1035   -4.6452    0.0000 H   0  0  0  0  0  0  0  0  0  0  0  0
   -0.8179    0.1077    0.0000 H   0  0  0  0  0  0  0  0  0  0  0  0
   -0.7145    1.2375    0.0000 H   0  0  0  0  0  0  0  0  0  0  0  0
    0.7145    2.0625    0.0000 H   0  0  0  0  0  0  0  0  0  0  0  0
    2.1434    1.2375    0.0000 H   0  0  0  0  0  0  0  0  0  0  0  0
    2.2469    0.1077    0.0000 H   0  0  0  0  0  0  0  0  0  0  0  0
  1  2  1  0  0  0  0
  2  3  1  0  0  0  0
  2  4  1  0  0  0  0
  4  5  1  0  0  0  0
  5  6  1  0  0  0  0
  6  7  1  0  0  0  0
  6  8  1  0  0  0  0
  6  9  1  0  0  0  0
  9 10  4  0  0  0  0
 10 11  4  0  0  0  0
 11 12  4  0  0  0  0
 12 13  4  0  0  0  0
 13 14  4  0  0  0  0
  9 14  4  0  0  0  0
  2 15  1  0  0  0  0
 15 16  4  0  0  0  0
 16 17  4  0  0  0  0
 17 18  4  0  0  0  0
 18 19  4  0  0  0  0
 19 20  4  0  0  0  0
 15 20  4  0  0  0  0
  1 21  1  0  0  0  0
  1 22  1  0  0  0  0
  1 23  1  0  0  0  0
  3 24  1  0  0  0  0
  3 25  1  0  0  0  0
  3 26  1  0  0  0  0
  7 27  1  0  0  0  0
  7 28  1  0  0  0  0
  7 29  1  0  0  0  0
  8 30  1  0  0  0  0
  8 31  1  0  0  0  0
  8 32  1  0  0  0  0
 10 33  1  0  0  0  0
 11 34  1  0  0  0  0
 12 35  1  0  0  0  0
 13 36  1  0  0  0  0
 14 37  1  0  0  0  0
 16 38  1  0  0  0  0
 17 39  1  0  0  0  0
 18 40  1  0  0  0  0
 19 41  1  0  0  0  0
 20 42  1  0  0  0  0
M  END
>  <InChIKey>
XMNIXWIUMCBBBL-UHFFFAOYSA-N

>  <UN GHS>
Non-irritant

>  <CASRN>
80-43-3

> <Outcome>
0

>  <Index>
917

>  <StandardizerResult>
Dearomatize (ID: Dearomatize)
Clear Stereo (ID: ClearStereo)
Wedge Clean (ID: WedgeClean)
Mesomerize (ID: Mesomerize)
Tautomerize (ID: Tautomerize)
Aromatize (ID: Aromatize)
Add Explicit Hydrogens (ID: AddExplicitH)
Neutralize (ID: Neutralize)
Clean 2D (ID: Clean2D)

> <knn Distance>
3.0

> <CpId>
917

$$$$
920
  Mrv1532301301811342D          

 45 46  0  0  0  0            999 V2000
   -2.1098   -1.2569    0.0000 C   0  0  0  0  0  0  0  0  0  0  0  0
   -1.3954   -1.6694    0.0000 O   0  0  0  0  0  0  0  0  0  0  0  0
   -1.3954   -2.4944    0.0000 C   0  0  0  0  0  0  0  0  0  0  0  0
   -0.6809   -2.9069    0.0000 C   0  0  0  0  0  0  0  0  0  0  0  0
   -0.6809   -3.7319    0.0000 C   0  0  0  0  0  0  0  0  0  0  0  0
   -1.3954   -4.1444    0.0000 C   0  0  0  0  0  0  0  0  0  0  0  0
   -2.1098   -3.7319    0.0000 C   0  0  0  0  0  0  0  0  0  0  0  0
   -2.1098   -2.9069    0.0000 C   0  0  0  0  0  0  0  0  0  0  0  0
   -1.3954   -4.9694    0.0000 C   0  0  0  0  0  0  0  0  0  0  0  0
   -2.1098   -5.3819    0.0000 O   0  0  0  0  0  0  0  0  0  0  0  0
   -0.6809   -5.3819    0.0000 C   0  0  0  0  0  0  0  0  0  0  0  0
   -0.6809   -6.2069    0.0000 C   0  0  0  0  0  0  0  0  0  0  0  0
   -1.3954   -6.6194    0.0000 O   0  0  0  0  0  0  0  0  0  0  0  0
    0.0336   -6.6194    0.0000 C   0  0  0  0  0  0  0  0  0  0  0  0
    0.7480   -6.2069    0.0000 C   0  0  0  0  0  0  0  0  0  0  0  0
    1.4625   -6.6194    0.0000 C   0  0  0  0  0  0  0  0  0  0  0  0
    1.4625   -7.4444    0.0000 C   0  0  0  0  0  0  0  0  0  0  0  0
    0.7480   -7.8569    0.0000 C   0  0  0  0  0  0  0  0  0  0  0  0
    0.0336   -7.4444    0.0000 C   0  0  0  0  0  0  0  0  0  0  0  0
    2.1770   -7.8569    0.0000 C   0  0  0  0  0  0  0  0  0  0  0  0
    2.8915   -8.2694    0.0000 C   0  0  0  0  0  0  0  0  0  0  0  0
    1.7645   -8.5714    0.0000 C   0  0  0  0  0  0  0  0  0  0  0  0
    2.5895   -7.1424    0.0000 C   0  0  0  0  0  0  0  0  0  0  0  0
   -1.6973   -0.5424    0.0000 H   0  0  0  0  0  0  0  0  0  0  0  0
   -2.8243   -0.8444    0.0000 H   0  0  0  0  0  0  0  0  0  0  0  0
   -2.5223   -1.9714    0.0000 H   0  0  0  0  0  0  0  0  0  0  0  0
    0.0336   -2.4944    0.0000 H   0  0  0  0  0  0  0  0  0  0  0  0
    0.0336   -4.1444    0.0000 H   0  0  0  0  0  0  0  0  0  0  0  0
   -2.8243   -4.1444    0.0000 H   0  0  0  0  0  0  0  0  0  0  0  0
   -2.8243   -2.4944    0.0000 H   0  0  0  0  0  0  0  0  0  0  0  0
    0.0336   -4.9694    0.0000 H   0  0  0  0  0  0  0  0  0  0  0  0
   -2.1098   -6.2069    0.0000 H   0  0  0  0  0  0  0  0  0  0  0  0
    0.7480   -5.3819    0.0000 H   0  0  0  0  0  0  0  0  0  0  0  0
    2.1770   -6.2069    0.0000 H   0  0  0  0  0  0  0  0  0  0  0  0
    0.7480   -8.6819    0.0000 H   0  0  0  0  0  0  0  0  0  0  0  0
   -0.6809   -7.8569    0.0000 H   0  0  0  0  0  0  0  0  0  0  0  0
    2.4790   -8.9839    0.0000 H   0  0  0  0  0  0  0  0  0  0  0  0
    3.6059   -8.6819    0.0000 H   0  0  0  0  0  0  0  0  0  0  0  0
    3.3040   -7.5549    0.0000 H   0  0  0  0  0  0  0  0  0  0  0  0
    1.2623   -7.9168    0.0000 H   0  0  0  0  0  0  0  0  0  0  0  0
    0.9676   -8.7849    0.0000 H   0  0  0  0  0  0  0  0  0  0  0  0
    1.6568   -9.3893    0.0000 H   0  0  0  0  0  0  0  0  0  0  0  0
    3.2440   -6.6402    0.0000 H   0  0  0  0  0  0  0  0  0  0  0  0
    2.3760   -6.3455    0.0000 H   0  0  0  0  0  0  0  0  0  0  0  0
    1.7715   -7.0347    0.0000 H   0  0  0  0  0  0  0  0  0  0  0  0
  1  2  1  0  0  0  0
  2  3  1  0  0  0  0
  3  4  4  0  0  0  0
  4  5  4  0  0  0  0
  5  6  4  0  0  0  0
  6  7  4  0  0  0  0
  7  8  4  0  0  0  0
  3  8  4  0  0  0  0
  6  9  1  0  0  0  0
  9 10  2  0  0  0  0
 11  9  1  4  0  0  0
 11 12  2  0  0  0  0
 12 13  1  0  0  0  0
 12 14  1  0  0  0  0
 14 15  4  0  0  0  0
 15 16  4  0  0  0  0
 16 17  4  0  0  0  0
 17 18  4  0  0  0  0
 18 19  4  0  0  0  0
 14 19  4  0  0  0  0
 17 20  1  0  0  0  0
 20 21  1  0  0  0  0
 20 22  1  0  0  0  0
 20 23  1  0  0  0  0
  1 24  1  0  0  0  0
  1 25  1  0  0  0  0
  1 26  1  0  0  0  0
  4 27  1  0  0  0  0
  5 28  1  0  0  0  0
  7 29  1  0  0  0  0
  8 30  1  0  0  0  0
 11 31  1  0  0  0  0
 13 32  1  0  0  0  0
 15 33  1  0  0  0  0
 16 34  1  0  0  0  0
 18 35  1  0  0  0  0
 19 36  1  0  0  0  0
 21 37  1  0  0  0  0
 21 38  1  0  0  0  0
 21 39  1  0  0  0  0
 22 40  1  0  0  0  0
 22 41  1  0  0  0  0
 22 42  1  0  0  0  0
 23 43  1  0  0  0  0
 23 44  1  0  0  0  0
 23 45  1  0  0  0  0
M  END
>  <InChIKey>
XNEFYCZVKIDDMS-UHFFFAOYSA-N

>  <UN GHS>
Non-irritant

>  <CASRN>
70356-09-1

> <Outcome>
0

>  <Index>
920

>  <StandardizerResult>
Dearomatize (ID: Dearomatize)
Clear Stereo (ID: ClearStereo)
Wedge Clean (ID: WedgeClean)
Mesomerize (ID: Mesomerize)
Tautomerize (ID: Tautomerize)
Aromatize (ID: Aromatize)
Add Explicit Hydrogens (ID: AddExplicitH)
Neutralize (ID: Neutralize)
Clean 2D (ID: Clean2D)

> <knn Distance>
3.0

> <CpId>
920

$$$$
928
  Mrv1532301301811342D          

 30 32  0  0  0  0            999 V2000
    1.4016   -2.4446    0.0000 N   0  0  0  0  0  0  0  0  0  0  0  0
    0.6871   -2.8571    0.0000 C   0  0  0  0  0  0  0  0  0  0  0  0
    0.6871   -3.6821    0.0000 C   0  0  0  0  0  0  0  0  0  0  0  0
   -0.0273   -4.0946    0.0000 C   0  0  0  0  0  0  0  0  0  0  0  0
   -0.7418   -3.6821    0.0000 C   0  0  0  0  0  0  0  0  0  0  0  0
   -0.7418   -2.8571    0.0000 C   0  0  0  0  0  0  0  0  0  0  0  0
   -0.0273   -2.4446    0.0000 C   0  0  0  0  0  0  0  0  0  0  0  0
    1.4016   -1.6196    0.0000 C   0  0  0  0  0  0  0  0  0  0  0  0
    0.6871   -1.2071    0.0000 C   0  0  0  0  0  0  0  0  0  0  0  0
    0.6871   -0.3821    0.0000 C   0  0  0  0  0  0  0  0  0  0  0  0
    1.4016    0.0304    0.0000 C   0  0  0  0  0  0  0  0  0  0  0  0
    2.1161   -0.3821    0.0000 C   0  0  0  0  0  0  0  0  0  0  0  0
    2.8305    0.0304    0.0000 C   0  0  0  0  0  0  0  0  0  0  0  0
    3.5450   -0.3821    0.0000 C   0  0  0  0  0  0  0  0  0  0  0  0
    3.5450   -1.2071    0.0000 C   0  0  0  0  0  0  0  0  0  0  0  0
    2.8305   -1.6196    0.0000 C   0  0  0  0  0  0  0  0  0  0  0  0
    2.1161   -1.2071    0.0000 C   0  0  0  0  0  0  0  0  0  0  0  0
    2.1161   -2.8571    0.0000 H   0  0  0  0  0  0  0  0  0  0  0  0
    1.4016   -4.0946    0.0000 H   0  0  0  0  0  0  0  0  0  0  0  0
   -0.0273   -4.9196    0.0000 H   0  0  0  0  0  0  0  0  0  0  0  0
   -1.4563   -4.0946    0.0000 H   0  0  0  0  0  0  0  0  0  0  0  0
   -1.4563   -2.4446    0.0000 H   0  0  0  0  0  0  0  0  0  0  0  0
   -0.0273   -1.6196    0.0000 H   0  0  0  0  0  0  0  0  0  0  0  0
    0.6871   -2.0321    0.0000 H   0  0  0  0  0  0  0  0  0  0  0  0
   -0.0273    0.0304    0.0000 H   0  0  0  0  0  0  0  0  0  0  0  0
    1.4016    0.8554    0.0000 H   0  0  0  0  0  0  0  0  0  0  0  0
    2.8305    0.8554    0.0000 H   0  0  0  0  0  0  0  0  0  0  0  0
    4.2595    0.0304    0.0000 H   0  0  0  0  0  0  0  0  0  0  0  0
    4.2595   -1.6196    0.0000 H   0  0  0  0  0  0  0  0  0  0  0  0
    2.8305   -2.4446    0.0000 H   0  0  0  0  0  0  0  0  0  0  0  0
  1  2  1  0  0  0  0
  2  3  4  0  0  0  0
  3  4  4  0  0  0  0
  4  5  4  0  0  0  0
  5  6  4  0  0  0  0
  6  7  4  0  0  0  0
  2  7  4  0  0  0  0
  1  8  1  0  0  0  0
  8  9  4  0  0  0  0
  9 10  4  0  0  0  0
 10 11  4  0  0  0  0
 11 12  4  0  0  0  0
 12 13  4  0  0  0  0
 13 14  4  0  0  0  0
 14 15  4  0  0  0  0
 15 16  4  0  0  0  0
 16 17  4  0  0  0  0
  8 17  4  0  0  0  0
 12 17  4  0  0  0  0
  1 18  1  0  0  0  0
  3 19  1  0  0  0  0
  4 20  1  0  0  0  0
  5 21  1  0  0  0  0
  6 22  1  0  0  0  0
  7 23  1  0  0  0  0
  9 24  1  0  0  0  0
 10 25  1  0  0  0  0
 11 26  1  0  0  0  0
 13 27  1  0  0  0  0
 14 28  1  0  0  0  0
 15 29  1  0  0  0  0
 16 30  1  0  0  0  0
M  END
>  <InChIKey>
XQVWYOYUZDUNRW-UHFFFAOYSA-N

>  <UN GHS>
Non-irritant

>  <CASRN>
90-30-2

> <Outcome>
0

>  <Index>
928

>  <StandardizerResult>
Dearomatize (ID: Dearomatize)
Clear Stereo (ID: ClearStereo)
Wedge Clean (ID: WedgeClean)
Mesomerize (ID: Mesomerize)
Tautomerize (ID: Tautomerize)
Aromatize (ID: Aromatize)
Add Explicit Hydrogens (ID: AddExplicitH)
Neutralize (ID: Neutralize)
Clean 2D (ID: Clean2D)

> <knn Distance>
3.0

> <CpId>
928

$$$$
935
  Mrv1532301301811342D          

 23 22  0  0  0  0            999 V2000
    2.9980    2.5567    0.0000 C   0  0  0  0  0  0  0  0  0  0  0  0
    3.7125    2.1442    0.0000 O   0  0  0  0  0  0  0  0  0  0  0  0
    4.4270    2.5567    0.0000 C   0  0  0  0  0  0  0  0  0  0  0  0
    4.4270    3.3817    0.0000 O   0  0  0  0  0  0  0  0  0  0  0  0
    5.1414    2.1442    0.0000 C   0  0  0  0  0  0  0  0  0  0  0  0
    5.8559    2.5567    0.0000 C   0  0  0  0  0  0  0  0  0  0  0  0
    6.5704    2.1442    0.0000 C   0  0  0  0  0  0  0  0  0  0  0  0
    7.2848    2.5567    0.0000 C   0  0  0  0  0  0  0  0  0  0  0  0
    7.2848    3.3817    0.0000 O   0  0  0  0  0  0  0  0  0  0  0  0
    7.9993    2.1442    0.0000 O   0  0  0  0  0  0  0  0  0  0  0  0
    8.7138    2.5567    0.0000 C   0  0  0  0  0  0  0  0  0  0  0  0
    3.4105    3.2711    0.0000 H   0  0  0  0  0  0  0  0  0  0  0  0
    2.2836    2.9692    0.0000 H   0  0  0  0  0  0  0  0  0  0  0  0
    2.5855    1.8422    0.0000 H   0  0  0  0  0  0  0  0  0  0  0  0
    4.7712    1.4069    0.0000 H   0  0  0  0  0  0  0  0  0  0  0  0
    5.5117    1.4069    0.0000 H   0  0  0  0  0  0  0  0  0  0  0  0
    6.2262    3.2939    0.0000 H   0  0  0  0  0  0  0  0  0  0  0  0
    5.4856    3.2939    0.0000 H   0  0  0  0  0  0  0  0  0  0  0  0
    6.2001    1.4069    0.0000 H   0  0  0  0  0  0  0  0  0  0  0  0
    6.9406    1.4069    0.0000 H   0  0  0  0  0  0  0  0  0  0  0  0
    9.1263    1.8422    0.0000 H   0  0  0  0  0  0  0  0  0  0  0  0
    9.4283    2.9692    0.0000 H   0  0  0  0  0  0  0  0  0  0  0  0
    8.3013    3.2711    0.0000 H   0  0  0  0  0  0  0  0  0  0  0  0
  1  2  1  0  0  0  0
  2  3  1  0  0  0  0
  3  4  2  0  0  0  0
  3  5  1  0  0  0  0
  5  6  1  0  0  0  0
  6  7  1  0  0  0  0
  7  8  1  0  0  0  0
  8  9  2  0  0  0  0
  8 10  1  0  0  0  0
 10 11  1  0  0  0  0
  1 12  1  0  0  0  0
  1 13  1  0  0  0  0
  1 14  1  0  0  0  0
  5 15  1  0  0  0  0
  5 16  1  0  0  0  0
  6 17  1  0  0  0  0
  6 18  1  0  0  0  0
  7 19  1  0  0  0  0
  7 20  1  0  0  0  0
 11 21  1  0  0  0  0
 11 22  1  0  0  0  0
 11 23  1  0  0  0  0
M  END
>  <InChIKey>
XTDYIOOONNVFMA-UHFFFAOYSA-N

>  <UN GHS>
Non-irritant

>  <CASRN>
1119-40-0

> <Outcome>
0

>  <Index>
935

>  <StandardizerResult>
Clear Stereo (ID: ClearStereo)
Wedge Clean (ID: WedgeClean)
Mesomerize (ID: Mesomerize)
Tautomerize (ID: Tautomerize)
Add Explicit Hydrogens (ID: AddExplicitH)
Neutralize (ID: Neutralize)
Clean 2D (ID: Clean2D)

> <knn Distance>
3.0

> <CpId>
935

$$$$
977
  Mrv1532301301811342D          

 13 12  0  0  0  0            999 V2000
    2.4743   -1.4301    0.0000 O   0  0  0  0  0  0  0  0  0  0  0  0
    2.0618   -0.7157    0.0000 C   0  0  0  0  0  0  0  0  0  0  0  0
    1.2368   -0.7157    0.0000 C   0  0  0  0  0  0  0  0  0  0  0  0
    0.8243   -0.0012    0.0000 C   0  0  0  0  0  0  0  0  0  0  0  0
   -0.0007   -0.0012    0.0000 O   0  0  0  0  0  0  0  0  0  0  0  0
    2.0618   -2.1446    0.0000 H   0  0  0  0  0  0  0  0  0  0  0  0
    2.7511   -0.2623    0.0000 H   0  0  0  0  0  0  0  0  0  0  0  0
    2.1098    0.1080    0.0000 H   0  0  0  0  0  0  0  0  0  0  0  0
    0.5475   -1.1690    0.0000 H   0  0  0  0  0  0  0  0  0  0  0  0
    1.1889   -1.5393    0.0000 H   0  0  0  0  0  0  0  0  0  0  0  0
    1.5136    0.4522    0.0000 H   0  0  0  0  0  0  0  0  0  0  0  0
    0.8723    0.8224    0.0000 H   0  0  0  0  0  0  0  0  0  0  0  0
   -0.4132    0.7133    0.0000 H   0  0  0  0  0  0  0  0  0  0  0  0
  1  2  1  0  0  0  0
  2  3  1  0  0  0  0
  3  4  1  0  0  0  0
  4  5  1  0  0  0  0
  1  6  1  0  0  0  0
  2  7  1  0  0  0  0
  2  8  1  0  0  0  0
  3  9  1  0  0  0  0
  3 10  1  0  0  0  0
  4 11  1  0  0  0  0
  4 12  1  0  0  0  0
  5 13  1  0  0  0  0
M  END
>  <InChIKey>
YPFDHNVEDLHUCE-UHFFFAOYSA-N

>  <UN GHS>
Non-irritant

>  <CASRN>
504-63-2

> <Outcome>
0

>  <Index>
977

>  <StandardizerResult>
Clear Stereo (ID: ClearStereo)
Wedge Clean (ID: WedgeClean)
Mesomerize (ID: Mesomerize)
Tautomerize (ID: Tautomerize)
Add Explicit Hydrogens (ID: AddExplicitH)
Neutralize (ID: Neutralize)
Clean 2D (ID: Clean2D)

> <knn Distance>
3.0

> <CpId>
977

$$$$
1263
  Mrv1532301301811342D          

 29 28  0  0  0  0            999 V2000
    2.7584    0.7116    0.0000 C   0  0  0  0  0  0  0  0  0  0  0  0
    2.0439    0.2991    0.0000 C   0  0  0  0  0  0  0  0  0  0  0  0
    1.3294    0.7116    0.0000 N   0  3  0  0  0  0  0  0  0  0  0  0
    0.6150    1.1241    0.0000 C   0  0  0  0  0  0  0  0  0  0  0  0
   -0.0995    0.7116    0.0000 C   0  0  0  0  0  0  0  0  0  0  0  0
    1.7419    1.4261    0.0000 C   0  0  0  0  0  0  0  0  0  0  0  0
    1.3294    2.1405    0.0000 C   0  0  0  0  0  0  0  0  0  0  0  0
    0.9169   -0.0029    0.0000 C   0  0  0  0  0  0  0  0  0  0  0  0
    0.0919   -0.0029    0.0000 C   0  0  0  0  0  0  0  0  0  0  0  0
    3.1709   -0.0029    0.0000 H   0  0  0  0  0  0  0  0  0  0  0  0
    3.4729    1.1241    0.0000 H   0  0  0  0  0  0  0  0  0  0  0  0
    2.3459    1.4261    0.0000 H   0  0  0  0  0  0  0  0  0  0  0  0
    1.6737   -0.4382    0.0000 H   0  0  0  0  0  0  0  0  0  0  0  0
    2.4142   -0.4382    0.0000 H   0  0  0  0  0  0  0  0  0  0  0  0
    0.9852    1.8613    0.0000 H   0  0  0  0  0  0  0  0  0  0  0  0
    0.2447    1.8613    0.0000 H   0  0  0  0  0  0  0  0  0  0  0  0
   -0.1535    1.5348    0.0000 H   0  0  0  0  0  0  0  0  0  0  0  0
   -0.8617    1.0273    0.0000 H   0  0  0  0  0  0  0  0  0  0  0  0
   -0.7198    0.1676    0.0000 H   0  0  0  0  0  0  0  0  0  0  0  0
    2.1544    0.7116    0.0000 H   0  0  0  0  0  0  0  0  0  0  0  0
    2.1544    2.1405    0.0000 H   0  0  0  0  0  0  0  0  0  0  0  0
    1.8055    2.8144    0.0000 H   0  0  0  0  0  0  0  0  0  0  0  0
    1.0537    2.9181    0.0000 H   0  0  0  0  0  0  0  0  0  0  0  0
    0.5353    2.3640    0.0000 H   0  0  0  0  0  0  0  0  0  0  0  0
    0.7041   -0.7999    0.0000 H   0  0  0  0  0  0  0  0  0  0  0  0
    0.5044    0.7116    0.0000 H   0  0  0  0  0  0  0  0  0  0  0  0
   -0.5746   -0.4890    0.0000 H   0  0  0  0  0  0  0  0  0  0  0  0
    0.0067   -0.8235    0.0000 H   0  0  0  0  0  0  0  0  0  0  0  0
    0.6443   -0.6156    0.0000 H   0  0  0  0  0  0  0  0  0  0  0  0
  1  2  1  0  0  0  0
  2  3  1  0  0  0  0
  3  4  1  0  0  0  0
  4  5  1  0  0  0  0
  3  6  1  0  0  0  0
  6  7  1  0  0  0  0
  3  8  1  0  0  0  0
  8  9  1  0  0  0  0
  1 10  1  0  0  0  0
  1 11  1  0  0  0  0
  1 12  1  0  0  0  0
  2 13  1  0  0  0  0
  2 14  1  0  0  0  0
  4 15  1  0  0  0  0
  4 16  1  0  0  0  0
  5 17  1  0  0  0  0
  5 18  1  0  0  0  0
  5 19  1  0  0  0  0
  6 20  1  0  0  0  0
  6 21  1  0  0  0  0
  7 22  1  0  0  0  0
  7 23  1  0  0  0  0
  7 24  1  0  0  0  0
  8 25  1  0  0  0  0
  8 26  1  0  0  0  0
  9 27  1  0  0  0  0
  9 28  1  0  0  0  0
  9 29  1  0  0  0  0
M  CHG  1   3   1
M  END
>  <InChIKey>
InChI=1S/C8H20N/c1-5-9(6-2,7-3)8-4/h5-8H2,1-4H3/q+1

>  <CASRN>
66-40-0

> <Outcome>
0

>  <Index>
1263

>  <StandardizerResult>
Clear Stereo (ID: ClearStereo)
Wedge Clean (ID: WedgeClean)
Mesomerize (ID: Mesomerize)
Tautomerize (ID: Tautomerize)
Add Explicit Hydrogens (ID: AddExplicitH)
Clean 2D (ID: Clean2D)

> <knn Distance>
3.0

> <CpId>
1263

$$$$
1367
  Mrv1532301301811342D          

 15 14  0  0  0  0            999 V2000
    0.5187   -0.5393    0.0000 F   0  0  0  0  0  0  0  0  0  0  0  0
    1.2332   -0.1268    0.0000 C   0  0  0  0  0  0  0  0  0  0  0  0
    1.2332    0.6982    0.0000 O   0  0  0  0  0  0  0  0  0  0  0  0
    1.9477    1.1107    0.0000 C   0  0  0  0  0  0  0  0  0  0  0  0
    1.9477    1.9357    0.0000 C   0  0  0  0  0  0  0  0  0  0  0  0
    1.9477    2.7607    0.0000 F   0  0  0  0  0  0  0  0  0  0  0  0
    2.7727    1.9357    0.0000 F   0  0  0  0  0  0  0  0  0  0  0  0
    1.1227    1.9357    0.0000 F   0  0  0  0  0  0  0  0  0  0  0  0
    2.6621    0.6982    0.0000 C   0  0  0  0  0  0  0  0  0  0  0  0
    2.2496   -0.0163    0.0000 F   0  0  0  0  0  0  0  0  0  0  0  0
    3.0746    1.4127    0.0000 F   0  0  0  0  0  0  0  0  0  0  0  0
    3.3766    0.2857    0.0000 F   0  0  0  0  0  0  0  0  0  0  0  0
    1.6865   -0.8161    0.0000 H   0  0  0  0  0  0  0  0  0  0  0  0
    2.0568   -0.1748    0.0000 H   0  0  0  0  0  0  0  0  0  0  0  0
    1.2332    1.5232    0.0000 H   0  0  0  0  0  0  0  0  0  0  0  0
  1  2  1  0  0  0  0
  2  3  1  0  0  0  0
  3  4  1  0  0  0  0
  4  5  1  0  0  0  0
  5  6  1  0  0  0  0
  5  7  1  0  0  0  0
  5  8  1  0  0  0  0
  4  9  1  0  0  0  0
  9 10  1  0  0  0  0
  9 11  1  0  0  0  0
  9 12  1  0  0  0  0
  2 13  1  0  0  0  0
  2 14  1  0  0  0  0
  4 15  1  0  0  0  0
M  END
>  <InChIKey>
InChI=1S/C4H3F7O/c5-1-12-2(3(6,7)8)4(9,10)11/h2H,1H2

>  <CASRN>
28523-86-6

> <Outcome>
0

>  <Index>
1367

>  <StandardizerResult>
Clear Stereo (ID: ClearStereo)
Wedge Clean (ID: WedgeClean)
Mesomerize (ID: Mesomerize)
Tautomerize (ID: Tautomerize)
Add Explicit Hydrogens (ID: AddExplicitH)
Neutralize (ID: Neutralize)
Clean 2D (ID: Clean2D)

> <knn Distance>
3.0

> <CpId>
1367

$$$$
1371
  Mrv1532301301811342D          

 19 19  0  0  0  0            999 V2000
    0.7145    2.0625    0.0000 C   0  0  0  0  0  0  0  0  0  0  0  0
    0.7145    1.2375    0.0000 C   0  0  0  0  0  0  0  0  0  0  0  0
    1.4289    0.8250    0.0000 C   0  0  0  0  0  0  0  0  0  0  0  0
    1.4289    0.0000    0.0000 C   0  0  0  0  0  0  0  0  0  0  0  0
    0.7145   -0.4125    0.0000 C   0  0  0  0  0  0  0  0  0  0  0  0
    0.7145   -1.2375    0.0000 N   0  0  0  0  0  0  0  0  0  0  0  0
    0.0000    0.0000    0.0000 C   0  0  0  0  0  0  0  0  0  0  0  0
   -0.7145   -0.4125    0.0000 N   0  0  0  0  0  0  0  0  0  0  0  0
    0.0000    0.8250    0.0000 C   0  0  0  0  0  0  0  0  0  0  0  0
    1.5395    2.0625    0.0000 H   0  0  0  0  0  0  0  0  0  0  0  0
    0.7145    2.8875    0.0000 H   0  0  0  0  0  0  0  0  0  0  0  0
   -0.1105    2.0625    0.0000 H   0  0  0  0  0  0  0  0  0  0  0  0
    2.1434    1.2375    0.0000 H   0  0  0  0  0  0  0  0  0  0  0  0
    2.1434   -0.4125    0.0000 H   0  0  0  0  0  0  0  0  0  0  0  0
    0.0000   -1.6500    0.0000 H   0  0  0  0  0  0  0  0  0  0  0  0
    1.4289   -1.6500    0.0000 H   0  0  0  0  0  0  0  0  0  0  0  0
   -1.4289    0.0000    0.0000 H   0  0  0  0  0  0  0  0  0  0  0  0
   -0.7145   -1.2375    0.0000 H   0  0  0  0  0  0  0  0  0  0  0  0
   -0.7145    1.2375    0.0000 H   0  0  0  0  0  0  0  0  0  0  0  0
  1  2  1  0  0  0  0
  2  3  4  0  0  0  0
  3  4  4  0  0  0  0
  4  5  4  0  0  0  0
  5  6  1  0  0  0  0
  5  7  4  0  0  0  0
  7  8  1  0  0  0  0
  7  9  4  0  0  0  0
  2  9  4  0  0  0  0
  1 10  1  0  0  0  0
  1 11  1  0  0  0  0
  1 12  1  0  0  0  0
  3 13  1  0  0  0  0
  4 14  1  0  0  0  0
  6 15  1  0  0  0  0
  6 16  1  0  0  0  0
  8 17  1  0  0  0  0
  8 18  1  0  0  0  0
  9 19  1  0  0  0  0
M  END
>  <InChIKey>
InChI=1S/C7H10N2/c1-5-2-3-6(8)7(9)4-5/h2-4H,8-9H2,1H3

>  <CASRN>
496-72-0

> <Outcome>
0

>  <Index>
1371

>  <StandardizerResult>
Dearomatize (ID: Dearomatize)
Clear Stereo (ID: ClearStereo)
Wedge Clean (ID: WedgeClean)
Mesomerize (ID: Mesomerize)
Tautomerize (ID: Tautomerize)
Aromatize (ID: Aromatize)
Add Explicit Hydrogens (ID: AddExplicitH)
Neutralize (ID: Neutralize)
Clean 2D (ID: Clean2D)

> <knn Distance>
3.0

> <CpId>
1371

$$$$
1601
  Mrv1532301301811342D          

 19 18  0  0  0  0            999 V2000
    1.2742    2.2310    0.0000 C   0  0  0  0  0  0  0  0  0  0  0  0
    0.8617    1.5165    0.0000 C   0  0  0  0  0  0  0  0  0  0  0  0
    0.0367    1.5165    0.0000 O   0  0  0  0  0  0  0  0  0  0  0  0
    1.2742    0.8021    0.0000 C   0  0  0  0  0  0  0  0  0  0  0  0
    0.8617    0.0876    0.0000 C   0  0  0  0  0  0  0  0  0  0  0  0
    1.2742   -0.6269    0.0000 C   0  0  0  0  0  0  0  0  0  0  0  0
    0.0367    0.0876    0.0000 O   0  0  0  0  0  0  0  0  0  0  0  0
    1.9886    1.8185    0.0000 H   0  0  0  0  0  0  0  0  0  0  0  0
    1.6867    2.9455    0.0000 H   0  0  0  0  0  0  0  0  0  0  0  0
    0.5597    2.6435    0.0000 H   0  0  0  0  0  0  0  0  0  0  0  0
    0.4492    2.2310    0.0000 H   0  0  0  0  0  0  0  0  0  0  0  0
   -0.6778    1.1040    0.0000 H   0  0  0  0  0  0  0  0  0  0  0  0
    2.0114    0.4318    0.0000 H   0  0  0  0  0  0  0  0  0  0  0  0
    2.0114    1.1723    0.0000 H   0  0  0  0  0  0  0  0  0  0  0  0
    1.6867    0.0876    0.0000 H   0  0  0  0  0  0  0  0  0  0  0  0
    0.4773   -0.8404    0.0000 H   0  0  0  0  0  0  0  0  0  0  0  0
    1.2742   -1.4519    0.0000 H   0  0  0  0  0  0  0  0  0  0  0  0
    2.0711   -0.8404    0.0000 H   0  0  0  0  0  0  0  0  0  0  0  0
   -0.3758    0.8021    0.0000 H   0  0  0  0  0  0  0  0  0  0  0  0
  1  2  1  0  0  0  0
  2  3  1  0  0  0  0
  2  4  1  0  0  0  0
  4  5  1  0  0  0  0
  5  6  1  0  0  0  0
  5  7  1  0  0  0  0
  1  8  1  0  0  0  0
  1  9  1  0  0  0  0
  1 10  1  0  0  0  0
  2 11  1  0  0  0  0
  3 12  1  0  0  0  0
  4 13  1  0  0  0  0
  4 14  1  0  0  0  0
  5 15  1  0  0  0  0
  6 16  1  0  0  0  0
  6 17  1  0  0  0  0
  6 18  1  0  0  0  0
  7 19  1  0  0  0  0
M  END
>  <InChIKey>
InChI=1S/C5H12O2/c1-4(6)3-5(2)7/h4-7H,3H2,1-2H3

>  <UN GHS>
Non-irritant

>  <CASRN>
625-69-4

> <Outcome>
0

>  <Index>
1601

>  <StandardizerResult>
Clear Stereo (ID: ClearStereo)
Wedge Clean (ID: WedgeClean)
Mesomerize (ID: Mesomerize)
Tautomerize (ID: Tautomerize)
Add Explicit Hydrogens (ID: AddExplicitH)
Neutralize (ID: Neutralize)
Clean 2D (ID: Clean2D)

> <knn Distance>
3.0

> <CpId>
1601

$$$$
1647
  Mrv1532301301811342D          

 33 33  0  0  0  0            999 V2000
   -0.0038    3.3629    0.0000 C   0  0  0  0  0  0  0  0  0  0  0  0
   -0.0038    2.5379    0.0000 C   0  0  0  0  0  0  0  0  0  0  0  0
   -0.7183    2.1254    0.0000 C   0  0  0  0  0  0  0  0  0  0  0  0
    0.7106    2.1254    0.0000 C   0  0  0  0  0  0  0  0  0  0  0  0
    0.7106    1.3004    0.0000 C   0  0  0  0  0  0  0  0  0  0  0  0
    1.4251    0.8879    0.0000 C   0  0  0  0  0  0  0  0  0  0  0  0
    1.4251    0.0629    0.0000 C   0  0  0  0  0  0  0  0  0  0  0  0
    0.7106   -0.3496    0.0000 C   0  0  0  0  0  0  0  0  0  0  0  0
   -0.0038    0.0629    0.0000 C   0  0  0  0  0  0  0  0  0  0  0  0
   -0.0038    0.8879    0.0000 C   0  0  0  0  0  0  0  0  0  0  0  0
    0.7106   -1.1746    0.0000 C   0  0  0  0  0  0  0  0  0  0  0  0
    1.4251   -1.5871    0.0000 C   0  0  0  0  0  0  0  0  0  0  0  0
   -0.0038   -1.5871    0.0000 C   0  0  0  0  0  0  0  0  0  0  0  0
   -0.0038   -2.4121    0.0000 O   0  0  0  0  0  0  0  0  0  0  0  0
   -0.7183   -1.1746    0.0000 O   0  0  0  0  0  0  0  0  0  0  0  0
    0.8212    3.3629    0.0000 H   0  0  0  0  0  0  0  0  0  0  0  0
   -0.0038    4.1879    0.0000 H   0  0  0  0  0  0  0  0  0  0  0  0
   -0.8288    3.3629    0.0000 H   0  0  0  0  0  0  0  0  0  0  0  0
   -0.7183    2.9504    0.0000 H   0  0  0  0  0  0  0  0  0  0  0  0
   -1.5152    2.3389    0.0000 H   0  0  0  0  0  0  0  0  0  0  0  0
   -1.1308    1.4109    0.0000 H   0  0  0  0  0  0  0  0  0  0  0  0
   -0.1349    1.5420    0.0000 H   0  0  0  0  0  0  0  0  0  0  0  0
    1.5342    2.1733    0.0000 H   0  0  0  0  0  0  0  0  0  0  0  0
    1.1640    2.8147    0.0000 H   0  0  0  0  0  0  0  0  0  0  0  0
    2.1396    1.3004    0.0000 H   0  0  0  0  0  0  0  0  0  0  0  0
    2.1396   -0.3496    0.0000 H   0  0  0  0  0  0  0  0  0  0  0  0
   -0.7183   -0.3496    0.0000 H   0  0  0  0  0  0  0  0  0  0  0  0
   -0.8248    0.8064    0.0000 H   0  0  0  0  0  0  0  0  0  0  0  0
    1.4251   -0.7621    0.0000 H   0  0  0  0  0  0  0  0  0  0  0  0
    0.8417   -2.1705    0.0000 H   0  0  0  0  0  0  0  0  0  0  0  0
    1.8376   -2.3016    0.0000 H   0  0  0  0  0  0  0  0  0  0  0  0
    2.2220   -1.3736    0.0000 H   0  0  0  0  0  0  0  0  0  0  0  0
   -0.5006   -3.0708    0.0000 H   0  0  0  0  0  0  0  0  0  0  0  0
  1  2  1  0  0  0  0
  2  3  1  0  0  0  0
  2  4  1  0  0  0  0
  4  5  1  0  0  0  0
  5  6  4  0  0  0  0
  6  7  4  0  0  0  0
  7  8  4  0  0  0  0
  8  9  4  0  0  0  0
  9 10  4  0  0  0  0
  5 10  4  0  0  0  0
  8 11  1  0  0  0  0
 11 12  1  0  0  0  0
 11 13  1  0  0  0  0
 13 14  1  0  0  0  0
 13 15  2  0  0  0  0
  1 16  1  0  0  0  0
  1 17  1  0  0  0  0
  1 18  1  0  0  0  0
  2 19  1  0  0  0  0
  3 20  1  0  0  0  0
  3 21  1  0  0  0  0
  3 22  1  0  0  0  0
  4 23  1  0  0  0  0
  4 24  1  0  0  0  0
  6 25  1  0  0  0  0
  7 26  1  0  0  0  0
  9 27  1  0  0  0  0
 10 28  1  0  0  0  0
 11 29  1  0  0  0  0
 12 30  1  0  0  0  0
 12 31  1  0  0  0  0
 12 32  1  0  0  0  0
 14 33  1  0  0  0  0
M  END
>  <InChIKey>
InChI=1S/C13H18O2/c1-9(2)8-11-4-6-12(7-5-11)10(3)13(14)15/h4-7,9-10H,8H2,1-3H3,(H,14,15)

>  <CASRN>
15687-27-1

> <Outcome>
0

>  <Index>
1647

>  <StandardizerResult>
Dearomatize (ID: Dearomatize)
Clear Stereo (ID: ClearStereo)
Wedge Clean (ID: WedgeClean)
Mesomerize (ID: Mesomerize)
Tautomerize (ID: Tautomerize)
Aromatize (ID: Aromatize)
Add Explicit Hydrogens (ID: AddExplicitH)
Neutralize (ID: Neutralize)
Clean 2D (ID: Clean2D)

> <knn Distance>
3.0

> <CpId>
1647

$$$$
1690
  Mrv1532301301811342D          

 32 32  0  0  0  0            999 V2000
   -0.0356    2.5355    0.0000 C   0  0  0  0  0  0  0  0  0  0  0  0
    0.6789    2.1230    0.0000 C   0  0  0  0  0  0  0  0  0  0  0  0
    1.3934    2.5355    0.0000 C   0  0  0  0  0  0  0  0  0  0  0  0
    0.6789    1.2980    0.0000 C   0  0  0  0  0  0  0  0  0  0  0  0
    1.3934    0.8855    0.0000 C   0  0  0  0  0  0  0  0  0  0  0  0
    1.3934    0.0605    0.0000 C   0  0  0  0  0  0  0  0  0  0  0  0
    0.6789   -0.3520    0.0000 C   0  0  0  0  0  0  0  0  0  0  0  0
   -0.0356    0.0605    0.0000 C   0  0  0  0  0  0  0  0  0  0  0  0
   -0.0356    0.8855    0.0000 C   0  0  0  0  0  0  0  0  0  0  0  0
    0.6789   -1.1770    0.0000 C   0  0  0  0  0  0  0  0  0  0  0  0
   -0.0356   -1.5895    0.0000 C   0  0  0  0  0  0  0  0  0  0  0  0
    1.3934   -1.5895    0.0000 C   0  0  0  0  0  0  0  0  0  0  0  0
    1.3934   -2.4145    0.0000 C   0  0  0  0  0  0  0  0  0  0  0  0
    2.1078   -2.8270    0.0000 O   0  0  0  0  0  0  0  0  0  0  0  0
    0.3769    3.2500    0.0000 H   0  0  0  0  0  0  0  0  0  0  0  0
   -0.7500    2.9480    0.0000 H   0  0  0  0  0  0  0  0  0  0  0  0
   -0.4481    1.8210    0.0000 H   0  0  0  0  0  0  0  0  0  0  0  0
    0.6789    2.9480    0.0000 H   0  0  0  0  0  0  0  0  0  0  0  0
    1.6069    1.7386    0.0000 H   0  0  0  0  0  0  0  0  0  0  0  0
    2.2184    2.5355    0.0000 H   0  0  0  0  0  0  0  0  0  0  0  0
    1.6069    3.3324    0.0000 H   0  0  0  0  0  0  0  0  0  0  0  0
    2.2122    0.7846    0.0000 H   0  0  0  0  0  0  0  0  0  0  0  0
    2.1078   -0.3520    0.0000 H   0  0  0  0  0  0  0  0  0  0  0  0
   -0.7500   -0.3520    0.0000 H   0  0  0  0  0  0  0  0  0  0  0  0
   -0.7500    1.2980    0.0000 H   0  0  0  0  0  0  0  0  0  0  0  0
   -0.0356   -0.7645    0.0000 H   0  0  0  0  0  0  0  0  0  0  0  0
   -0.8325   -1.3760    0.0000 H   0  0  0  0  0  0  0  0  0  0  0  0
   -0.4481   -2.3040    0.0000 H   0  0  0  0  0  0  0  0  0  0  0  0
    0.5478   -2.1729    0.0000 H   0  0  0  0  0  0  0  0  0  0  0  0
    2.2170   -1.5415    0.0000 H   0  0  0  0  0  0  0  0  0  0  0  0
    1.8467   -0.9002    0.0000 H   0  0  0  0  0  0  0  0  0  0  0  0
    1.0714   -3.1741    0.0000 H   0  0  0  0  0  0  0  0  0  0  0  0
  1  2  1  0  0  0  0
  2  3  1  0  0  0  0
  2  4  1  0  0  0  0
  4  5  4  0  0  0  0
  5  6  4  0  0  0  0
  6  7  4  0  0  0  0
  7  8  4  0  0  0  0
  8  9  4  0  0  0  0
  4  9  4  0  0  0  0
  7 10  1  0  0  0  0
 10 11  1  0  0  0  0
 10 12  1  0  0  0  0
 12 13  1  0  0  0  0
 13 14  2  0  0  0  0
  1 15  1  0  0  0  0
  1 16  1  0  0  0  0
  1 17  1  0  0  0  0
  2 18  1  0  0  0  0
  3 19  1  0  0  0  0
  3 20  1  0  0  0  0
  3 21  1  0  0  0  0
  5 22  1  0  0  0  0
  6 23  1  0  0  0  0
  8 24  1  0  0  0  0
  9 25  1  0  0  0  0
 10 26  1  0  0  0  0
 11 27  1  0  0  0  0
 11 28  1  0  0  0  0
 11 29  1  0  0  0  0
 12 30  1  0  0  0  0
 12 31  1  0  0  0  0
 13 32  1  0  0  0  0
M  END
>  <InChIKey>
InChI=1S/C13H18O/c1-10(2)12-4-6-13(7-5-12)11(3)8-9-14/h4-7,9-11H,8H2,1-3H3

>  <CASRN>
103-95-7

> <Outcome>
0

>  <Index>
1690

>  <StandardizerResult>
Dearomatize (ID: Dearomatize)
Clear Stereo (ID: ClearStereo)
Wedge Clean (ID: WedgeClean)
Mesomerize (ID: Mesomerize)
Tautomerize (ID: Tautomerize)
Aromatize (ID: Aromatize)
Add Explicit Hydrogens (ID: AddExplicitH)
Neutralize (ID: Neutralize)
Clean 2D (ID: Clean2D)

> <knn Distance>
3.0

> <CpId>
1690

$$$$
1732
  Mrv1532301301811342D          

 26 26  0  0  0  0            999 V2000
   -0.0221    2.5061    0.0000 C   0  0  0  0  0  0  0  0  0  0  0  0
    0.6924    2.0936    0.0000 O   0  0  0  0  0  0  0  0  0  0  0  0
    0.6924    1.2686    0.0000 C   0  0  0  0  0  0  0  0  0  0  0  0
    1.4069    0.8561    0.0000 C   0  0  0  0  0  0  0  0  0  0  0  0
    1.4069    0.0311    0.0000 C   0  0  0  0  0  0  0  0  0  0  0  0
    2.1213   -0.3814    0.0000 O   0  0  0  0  0  0  0  0  0  0  0  0
    2.1213   -1.2064    0.0000 C   0  0  0  0  0  0  0  0  0  0  0  0
    0.6924   -0.3814    0.0000 C   0  0  0  0  0  0  0  0  0  0  0  0
    0.6924   -1.2064    0.0000 C   0  0  0  0  0  0  0  0  0  0  0  0
    1.4069   -1.6189    0.0000 O   0  0  0  0  0  0  0  0  0  0  0  0
   -0.0221    0.0311    0.0000 C   0  0  0  0  0  0  0  0  0  0  0  0
   -0.0221    0.8561    0.0000 C   0  0  0  0  0  0  0  0  0  0  0  0
   -0.7366    1.2686    0.0000 O   0  0  0  0  0  0  0  0  0  0  0  0
   -0.7366    2.0936    0.0000 C   0  0  0  0  0  0  0  0  0  0  0  0
    0.6924    2.9186    0.0000 H   0  0  0  0  0  0  0  0  0  0  0  0
   -0.0221    3.3311    0.0000 H   0  0  0  0  0  0  0  0  0  0  0  0
   -0.7366    2.9186    0.0000 H   0  0  0  0  0  0  0  0  0  0  0  0
    2.1213    1.2686    0.0000 H   0  0  0  0  0  0  0  0  0  0  0  0
    2.1213   -2.0314    0.0000 H   0  0  0  0  0  0  0  0  0  0  0  0
    2.8358   -1.6189    0.0000 H   0  0  0  0  0  0  0  0  0  0  0  0
    2.8358   -0.7939    0.0000 H   0  0  0  0  0  0  0  0  0  0  0  0
   -0.0221   -1.6189    0.0000 H   0  0  0  0  0  0  0  0  0  0  0  0
   -0.7366   -0.3814    0.0000 H   0  0  0  0  0  0  0  0  0  0  0  0
   -1.5118    2.3758    0.0000 H   0  0  0  0  0  0  0  0  0  0  0  0
   -1.5118    1.8115    0.0000 H   0  0  0  0  0  0  0  0  0  0  0  0
   -0.0221    1.6811    0.0000 H   0  0  0  0  0  0  0  0  0  0  0  0
  1  2  1  0  0  0  0
  2  3  1  0  0  0  0
  3  4  4  0  0  0  0
  4  5  4  0  0  0  0
  5  6  1  0  0  0  0
  6  7  1  0  0  0  0
  5  8  4  0  0  0  0
  8  9  1  0  0  0  0
  9 10  2  0  0  0  0
  8 11  4  0  0  0  0
 11 12  4  0  0  0  0
  3 12  4  0  0  0  0
 12 13  1  0  0  0  0
 13 14  1  0  0  0  0
  1 15  1  0  0  0  0
  1 16  1  0  0  0  0
  1 17  1  0  0  0  0
  4 18  1  0  0  0  0
  7 19  1  0  0  0  0
  7 20  1  0  0  0  0
  7 21  1  0  0  0  0
  9 22  1  0  0  0  0
 11 23  1  0  0  0  0
 14 24  1  0  0  0  0
 14 25  1  0  0  0  0
 14 26  1  0  0  0  0
M  END
>  <InChIKey>
InChI=1S/C10H12O4/c1-12-8-5-10(14-3)9(13-2)4-7(8)6-11/h4-6H,1-3H3

>  <CASRN>
4460-86-0

> <Outcome>
0

>  <Index>
1732

>  <StandardizerResult>
Dearomatize (ID: Dearomatize)
Clear Stereo (ID: ClearStereo)
Wedge Clean (ID: WedgeClean)
Mesomerize (ID: Mesomerize)
Tautomerize (ID: Tautomerize)
Aromatize (ID: Aromatize)
Add Explicit Hydrogens (ID: AddExplicitH)
Neutralize (ID: Neutralize)
Clean 2D (ID: Clean2D)

> <knn Distance>
3.0

> <CpId>
1732

$$$$
1902
  Mrv1532301301811342D          

 93 93  0  0  0  0            999 V2000
    4.2868   -6.6002    0.0000 C   0  0  0  0  0  0  0  0  0  0  0  0
    3.5724   -6.1877    0.0000 C   0  0  0  0  0  0  0  0  0  0  0  0
    3.5724   -5.3627    0.0000 C   0  0  0  0  0  0  0  0  0  0  0  0
    2.8579   -4.9502    0.0000 C   0  0  0  0  0  0  0  0  0  0  0  0
    2.8579   -4.1252    0.0000 C   0  0  0  0  0  0  0  0  0  0  0  0
    2.1434   -3.7127    0.0000 C   0  0  0  0  0  0  0  0  0  0  0  0
    2.1434   -2.8877    0.0000 C   0  0  0  0  0  0  0  0  0  0  0  0
    1.4289   -2.4752    0.0000 C   0  0  0  0  0  0  0  0  0  0  0  0
    1.4289   -1.6502    0.0000 O   0  0  0  0  0  0  0  0  0  0  0  0
    0.7145   -1.2377    0.0000 C   0  0  0  0  0  0  0  0  0  0  0  0
    0.0000   -1.6502    0.0000 O   0  0  0  0  0  0  0  0  0  0  0  0
    0.7145   -0.4127    0.0000 C   0  0  0  0  0  0  0  0  0  0  0  0
    0.0000   -0.0002    0.0000 C   0  0  0  0  0  0  0  0  0  0  0  0
    0.0000    0.8248    0.0000 C   0  0  0  0  0  0  0  0  0  0  0  0
    0.7145    1.2373    0.0000 C   0  0  0  0  0  0  0  0  0  0  0  0
    0.7145    2.0623    0.0000 C   0  0  0  0  0  0  0  0  0  0  0  0
    1.4289    2.4748    0.0000 O   0  0  0  0  0  0  0  0  0  0  0  0
    0.0000    2.4748    0.0000 O   0  0  0  0  0  0  0  0  0  0  0  0
    0.0000    3.2998    0.0000 C   0  0  0  0  0  0  0  0  0  0  0  0
   -0.7145    3.7123    0.0000 C   0  0  0  0  0  0  0  0  0  0  0  0
   -0.7145    4.5373    0.0000 C   0  0  0  0  0  0  0  0  0  0  0  0
   -1.4289    4.9498    0.0000 C   0  0  0  0  0  0  0  0  0  0  0  0
   -1.4289    5.7748    0.0000 C   0  0  0  0  0  0  0  0  0  0  0  0
   -2.1434    6.1873    0.0000 C   0  0  0  0  0  0  0  0  0  0  0  0
   -2.1434    7.0123    0.0000 C   0  0  0  0  0  0  0  0  0  0  0  0
   -2.8579    7.4248    0.0000 C   0  0  0  0  0  0  0  0  0  0  0  0
    1.4289    0.8248    0.0000 C   0  0  0  0  0  0  0  0  0  0  0  0
    1.4289   -0.0002    0.0000 C   0  0  0  0  0  0  0  0  0  0  0  0
    2.1434    1.2373    0.0000 C   0  0  0  0  0  0  0  0  0  0  0  0
    2.1434    2.0623    0.0000 O   0  0  0  0  0  0  0  0  0  0  0  0
    2.8579    0.8248    0.0000 O   0  0  0  0  0  0  0  0  0  0  0  0
    3.5724    1.2373    0.0000 C   0  0  0  0  0  0  0  0  0  0  0  0
    4.2868    0.8248    0.0000 C   0  0  0  0  0  0  0  0  0  0  0  0
    5.0013    1.2373    0.0000 C   0  0  0  0  0  0  0  0  0  0  0  0
    5.7158    0.8248    0.0000 C   0  0  0  0  0  0  0  0  0  0  0  0
    6.4302    1.2373    0.0000 C   0  0  0  0  0  0  0  0  0  0  0  0
    7.1447    0.8248    0.0000 C   0  0  0  0  0  0  0  0  0  0  0  0
    7.8592    1.2373    0.0000 C   0  0  0  0  0  0  0  0  0  0  0  0
    8.5737    0.8248    0.0000 C   0  0  0  0  0  0  0  0  0  0  0  0
    3.8743   -7.3147    0.0000 H   0  0  0  0  0  0  0  0  0  0  0  0
    5.0013   -7.0127    0.0000 H   0  0  0  0  0  0  0  0  0  0  0  0
    4.6993   -5.8857    0.0000 H   0  0  0  0  0  0  0  0  0  0  0  0
    2.7488   -6.2357    0.0000 H   0  0  0  0  0  0  0  0  0  0  0  0
    3.1190   -6.8770    0.0000 H   0  0  0  0  0  0  0  0  0  0  0  0
    4.3960   -5.3147    0.0000 H   0  0  0  0  0  0  0  0  0  0  0  0
    4.0257   -4.6734    0.0000 H   0  0  0  0  0  0  0  0  0  0  0  0
    2.0343   -4.9982    0.0000 H   0  0  0  0  0  0  0  0  0  0  0  0
    2.4045   -5.6395    0.0000 H   0  0  0  0  0  0  0  0  0  0  0  0
    3.6815   -4.0772    0.0000 H   0  0  0  0  0  0  0  0  0  0  0  0
    3.3112   -3.4359    0.0000 H   0  0  0  0  0  0  0  0  0  0  0  0
    1.3198   -3.7607    0.0000 H   0  0  0  0  0  0  0  0  0  0  0  0
    1.6901   -4.4020    0.0000 H   0  0  0  0  0  0  0  0  0  0  0  0
    2.9670   -2.8397    0.0000 H   0  0  0  0  0  0  0  0  0  0  0  0
    2.5968   -2.1984    0.0000 H   0  0  0  0  0  0  0  0  0  0  0  0
    0.6053   -2.5232    0.0000 H   0  0  0  0  0  0  0  0  0  0  0  0
    0.9756   -3.1645    0.0000 H   0  0  0  0  0  0  0  0  0  0  0  0
   -0.7145   -0.4127    0.0000 H   0  0  0  0  0  0  0  0  0  0  0  0
   -0.7145    1.2373    0.0000 H   0  0  0  0  0  0  0  0  0  0  0  0
    0.8236    3.3478    0.0000 H   0  0  0  0  0  0  0  0  0  0  0  0
    0.4533    3.9891    0.0000 H   0  0  0  0  0  0  0  0  0  0  0  0
   -1.5381    3.6643    0.0000 H   0  0  0  0  0  0  0  0  0  0  0  0
   -1.1678    3.0230    0.0000 H   0  0  0  0  0  0  0  0  0  0  0  0
    0.1091    4.5853    0.0000 H   0  0  0  0  0  0  0  0  0  0  0  0
   -0.2611    5.2266    0.0000 H   0  0  0  0  0  0  0  0  0  0  0  0
   -2.2525    4.9018    0.0000 H   0  0  0  0  0  0  0  0  0  0  0  0
   -1.8823    4.2605    0.0000 H   0  0  0  0  0  0  0  0  0  0  0  0
   -0.6053    5.8228    0.0000 H   0  0  0  0  0  0  0  0  0  0  0  0
   -0.9756    6.4641    0.0000 H   0  0  0  0  0  0  0  0  0  0  0  0
   -2.9670    6.1393    0.0000 H   0  0  0  0  0  0  0  0  0  0  0  0
   -2.5968    5.4980    0.0000 H   0  0  0  0  0  0  0  0  0  0  0  0
   -1.3198    7.0603    0.0000 H   0  0  0  0  0  0  0  0  0  0  0  0
   -1.6901    7.7016    0.0000 H   0  0  0  0  0  0  0  0  0  0  0  0
   -2.4454    8.1393    0.0000 H   0  0  0  0  0  0  0  0  0  0  0  0
   -3.5724    7.8373    0.0000 H   0  0  0  0  0  0  0  0  0  0  0  0
   -3.2704    6.7103    0.0000 H   0  0  0  0  0  0  0  0  0  0  0  0
    2.1434   -0.4127    0.0000 H   0  0  0  0  0  0  0  0  0  0  0  0
    3.9426    1.9746    0.0000 H   0  0  0  0  0  0  0  0  0  0  0  0
    3.2021    1.9746    0.0000 H   0  0  0  0  0  0  0  0  0  0  0  0
    3.9166    0.0876    0.0000 H   0  0  0  0  0  0  0  0  0  0  0  0
    4.6571    0.0876    0.0000 H   0  0  0  0  0  0  0  0  0  0  0  0
    5.3716    1.9746    0.0000 H   0  0  0  0  0  0  0  0  0  0  0  0
    4.6310    1.9746    0.0000 H   0  0  0  0  0  0  0  0  0  0  0  0
    5.3455    0.0876    0.0000 H   0  0  0  0  0  0  0  0  0  0  0  0
    6.0860    0.0876    0.0000 H   0  0  0  0  0  0  0  0  0  0  0  0
    6.8005    1.9746    0.0000 H   0  0  0  0  0  0  0  0  0  0  0  0
    6.0600    1.9746    0.0000 H   0  0  0  0  0  0  0  0  0  0  0  0
    6.7745    0.0876    0.0000 H   0  0  0  0  0  0  0  0  0  0  0  0
    7.5150    0.0876    0.0000 H   0  0  0  0  0  0  0  0  0  0  0  0
    8.2294    1.9746    0.0000 H   0  0  0  0  0  0  0  0  0  0  0  0
    7.4889    1.9746    0.0000 H   0  0  0  0  0  0  0  0  0  0  0  0
    8.1612    0.1103    0.0000 H   0  0  0  0  0  0  0  0  0  0  0  0
    9.2881    0.4123    0.0000 H   0  0  0  0  0  0  0  0  0  0  0  0
    8.9862    1.5393    0.0000 H   0  0  0  0  0  0  0  0  0  0  0  0
  1  2  1  0  0  0  0
  2  3  1  0  0  0  0
  3  4  1  0  0  0  0
  4  5  1  0  0  0  0
  5  6  1  0  0  0  0
  6  7  1  0  0  0  0
  7  8  1  0  0  0  0
  8  9  1  0  0  0  0
  9 10  1  0  0  0  0
 10 11  2  0  0  0  0
 10 12  1  0  0  0  0
 12 13  4  0  0  0  0
 13 14  4  0  0  0  0
 14 15  4  0  0  0  0
 15 16  1  0  0  0  0
 16 17  2  0  0  0  0
 16 18  1  0  0  0  0
 18 19  1  0  0  0  0
 19 20  1  0  0  0  0
 20 21  1  0  0  0  0
 21 22  1  0  0  0  0
 22 23  1  0  0  0  0
 23 24  1  0  0  0  0
 24 25  1  0  0  0  0
 25 26  1  0  0  0  0
 15 27  4  0  0  0  0
 27 28  4  0  0  0  0
 12 28  4  0  0  0  0
 27 29  1  0  0  0  0
 29 30  2  0  0  0  0
 29 31  1  0  0  0  0
 31 32  1  0  0  0  0
 32 33  1  0  0  0  0
 33 34  1  0  0  0  0
 34 35  1  0  0  0  0
 35 36  1  0  0  0  0
 36 37  1  0  0  0  0
 37 38  1  0  0  0  0
 38 39  1  0  0  0  0
  1 40  1  0  0  0  0
  1 41  1  0  0  0  0
  1 42  1  0  0  0  0
  2 43  1  0  0  0  0
  2 44  1  0  0  0  0
  3 45  1  0  0  0  0
  3 46  1  0  0  0  0
  4 47  1  0  0  0  0
  4 48  1  0  0  0  0
  5 49  1  0  0  0  0
  5 50  1  0  0  0  0
  6 51  1  0  0  0  0
  6 52  1  0  0  0  0
  7 53  1  0  0  0  0
  7 54  1  0  0  0  0
  8 55  1  0  0  0  0
  8 56  1  0  0  0  0
 13 57  1  0  0  0  0
 14 58  1  0  0  0  0
 19 59  1  0  0  0  0
 19 60  1  0  0  0  0
 20 61  1  0  0  0  0
 20 62  1  0  0  0  0
 21 63  1  0  0  0  0
 21 64  1  0  0  0  0
 22 65  1  0  0  0  0
 22 66  1  0  0  0  0
 23 67  1  0  0  0  0
 23 68  1  0  0  0  0
 24 69  1  0  0  0  0
 24 70  1  0  0  0  0
 25 71  1  0  0  0  0
 25 72  1  0  0  0  0
 26 73  1  0  0  0  0
 26 74  1  0  0  0  0
 26 75  1  0  0  0  0
 28 76  1  0  0  0  0
 32 77  1  0  0  0  0
 32 78  1  0  0  0  0
 33 79  1  0  0  0  0
 33 80  1  0  0  0  0
 34 81  1  0  0  0  0
 34 82  1  0  0  0  0
 35 83  1  0  0  0  0
 35 84  1  0  0  0  0
 36 85  1  0  0  0  0
 36 86  1  0  0  0  0
 37 87  1  0  0  0  0
 37 88  1  0  0  0  0
 38 89  1  0  0  0  0
 38 90  1  0  0  0  0
 39 91  1  0  0  0  0
 39 92  1  0  0  0  0
 39 93  1  0  0  0  0
M  END
>  <InChIKey>
InChI=1S/C33H54O6/c1-4-7-10-13-16-19-24-37-31(34)28-22-23-29(32(35)38-25-20-17-14-11-8-5-2)30(27-28)33(36)39-26-21-18-15-12-9-6-3/h22-23,27H,4-21,24-26H2,1-3H3

>  <CASRN>
89-04-3

> <Outcome>
0

>  <Index>
1902

>  <StandardizerResult>
Dearomatize (ID: Dearomatize)
Clear Stereo (ID: ClearStereo)
Wedge Clean (ID: WedgeClean)
Mesomerize (ID: Mesomerize)
Tautomerize (ID: Tautomerize)
Aromatize (ID: Aromatize)
Add Explicit Hydrogens (ID: AddExplicitH)
Neutralize (ID: Neutralize)
Clean 2D (ID: Clean2D)

> <knn Distance>
3.0

> <CpId>
1902

$$$$
1974
  Mrv1532301301811342D          

 27 28  0  0  0  0            999 V2000
    2.8196    0.0429    0.0000 O   0  0  0  0  0  0  0  0  0  0  0  0
    2.1051   -0.3696    0.0000 C   0  0  0  0  0  0  0  0  0  0  0  0
    2.1051   -1.1946    0.0000 C   0  0  0  0  0  0  0  0  0  0  0  0
    2.8196   -1.6071    0.0000 C   0  0  0  0  0  0  0  0  0  0  0  0
    2.8196   -2.4321    0.0000 C   0  0  0  0  0  0  0  0  0  0  0  0
    2.1051   -2.8446    0.0000 C   0  0  0  0  0  0  0  0  0  0  0  0
    1.3906   -2.4321    0.0000 C   0  0  0  0  0  0  0  0  0  0  0  0
    0.6761   -2.8446    0.0000 O   0  0  0  0  0  0  0  0  0  0  0  0
   -0.0383   -2.4321    0.0000 C   0  0  0  0  0  0  0  0  0  0  0  0
   -0.7528   -2.8446    0.0000 C   0  0  0  0  0  0  0  0  0  0  0  0
   -1.4673   -2.4321    0.0000 C   0  0  0  0  0  0  0  0  0  0  0  0
   -1.4673   -1.6071    0.0000 C   0  0  0  0  0  0  0  0  0  0  0  0
   -0.7528   -1.1946    0.0000 C   0  0  0  0  0  0  0  0  0  0  0  0
   -0.0383   -1.6071    0.0000 C   0  0  0  0  0  0  0  0  0  0  0  0
    1.3906   -1.6071    0.0000 C   0  0  0  0  0  0  0  0  0  0  0  0
    3.5340   -0.3696    0.0000 H   0  0  0  0  0  0  0  0  0  0  0  0
    1.6517    0.3196    0.0000 H   0  0  0  0  0  0  0  0  0  0  0  0
    1.2815   -0.3217    0.0000 H   0  0  0  0  0  0  0  0  0  0  0  0
    3.5340   -1.1946    0.0000 H   0  0  0  0  0  0  0  0  0  0  0  0
    3.5340   -2.8446    0.0000 H   0  0  0  0  0  0  0  0  0  0  0  0
    2.1051   -3.6696    0.0000 H   0  0  0  0  0  0  0  0  0  0  0  0
   -0.7528   -3.6696    0.0000 H   0  0  0  0  0  0  0  0  0  0  0  0
   -2.1817   -2.8446    0.0000 H   0  0  0  0  0  0  0  0  0  0  0  0
   -2.1817   -1.1946    0.0000 H   0  0  0  0  0  0  0  0  0  0  0  0
   -0.7528   -0.3696    0.0000 H   0  0  0  0  0  0  0  0  0  0  0  0
    0.6761   -1.1946    0.0000 H   0  0  0  0  0  0  0  0  0  0  0  0
    1.3906   -0.7821    0.0000 H   0  0  0  0  0  0  0  0  0  0  0  0
  1  2  1  0  0  0  0
  2  3  1  0  0  0  0
  3  4  4  0  0  0  0
  4  5  4  0  0  0  0
  5  6  4  0  0  0  0
  6  7  4  0  0  0  0
  7  8  1  0  0  0  0
  8  9  1  0  0  0  0
  9 10  4  0  0  0  0
 10 11  4  0  0  0  0
 11 12  4  0  0  0  0
 12 13  4  0  0  0  0
 13 14  4  0  0  0  0
  9 14  4  0  0  0  0
  7 15  4  0  0  0  0
  3 15  4  0  0  0  0
  1 16  1  0  0  0  0
  2 17  1  0  0  0  0
  2 18  1  0  0  0  0
  4 19  1  0  0  0  0
  5 20  1  0  0  0  0
  6 21  1  0  0  0  0
 10 22  1  0  0  0  0
 11 23  1  0  0  0  0
 12 24  1  0  0  0  0
 13 25  1  0  0  0  0
 14 26  1  0  0  0  0
 15 27  1  0  0  0  0
M  END
>  <InChIKey>
InChI=1S/C13H12O2/c14-10-11-5-4-8-13(9-11)15-12-6-2-1-3-7-12/h1-9,14H,10H2

>  <UN GHS>
Non-irritant

>  <CASRN>
13826-35-2

> <Outcome>
0

>  <Index>
1974

>  <StandardizerResult>
Dearomatize (ID: Dearomatize)
Clear Stereo (ID: ClearStereo)
Wedge Clean (ID: WedgeClean)
Mesomerize (ID: Mesomerize)
Tautomerize (ID: Tautomerize)
Aromatize (ID: Aromatize)
Add Explicit Hydrogens (ID: AddExplicitH)
Neutralize (ID: Neutralize)
Clean 2D (ID: Clean2D)

> <knn Distance>
3.0

> <CpId>
1974

$$$$
2051
  Mrv1532301301811342D          

 36 36  0  0  0  0            999 V2000
    1.4571    1.6420    0.0000 Br  0  0  0  0  0  0  0  0  0  0  0  0
    1.4571    0.8170    0.0000 C   0  0  0  0  0  0  0  0  0  0  0  0
    2.1715    1.2295    0.0000 C   0  0  0  0  0  0  0  0  0  0  0  0
    2.8860    0.8170    0.0000 C   0  0  0  0  0  0  0  0  0  0  0  0
    3.6005    1.2295    0.0000 Br  0  0  0  0  0  0  0  0  0  0  0  0
    2.8860   -0.0080    0.0000 C   0  0  0  0  0  0  0  0  0  0  0  0
    2.1715   -0.4205    0.0000 C   0  0  0  0  0  0  0  0  0  0  0  0
    1.4571   -0.0080    0.0000 Br  0  0  0  0  0  0  0  0  0  0  0  0
    2.1715   -1.2455    0.0000 C   0  0  0  0  0  0  0  0  0  0  0  0
    1.4571   -1.6580    0.0000 C   0  0  0  0  0  0  0  0  0  0  0  0
    1.4571   -2.4830    0.0000 Br  0  0  0  0  0  0  0  0  0  0  0  0
    0.7426   -1.2455    0.0000 C   0  0  0  0  0  0  0  0  0  0  0  0
    0.7426   -0.4205    0.0000 C   0  0  0  0  0  0  0  0  0  0  0  0
    1.0782    0.3332    0.0000 Br  0  0  0  0  0  0  0  0  0  0  0  0
    0.0281   -0.0080    0.0000 C   0  0  0  0  0  0  0  0  0  0  0  0
    0.0281    0.8170    0.0000 C   0  0  0  0  0  0  0  0  0  0  0  0
   -0.6863    1.2295    0.0000 Br  0  0  0  0  0  0  0  0  0  0  0  0
    0.7426    1.2295    0.0000 C   0  0  0  0  0  0  0  0  0  0  0  0
    2.1715    0.4045    0.0000 H   0  0  0  0  0  0  0  0  0  0  0  0
    2.8035    1.7598    0.0000 H   0  0  0  0  0  0  0  0  0  0  0  0
    2.3148    2.0420    0.0000 H   0  0  0  0  0  0  0  0  0  0  0  0
    3.6005    0.4045    0.0000 H   0  0  0  0  0  0  0  0  0  0  0  0
    3.0293   -0.8205    0.0000 H   0  0  0  0  0  0  0  0  0  0  0  0
    3.5180   -0.5383    0.0000 H   0  0  0  0  0  0  0  0  0  0  0  0
    1.4571   -0.8330    0.0000 H   0  0  0  0  0  0  0  0  0  0  0  0
    2.1541   -2.0703    0.0000 H   0  0  0  0  0  0  0  0  0  0  0  0
    2.8679   -1.6879    0.0000 H   0  0  0  0  0  0  0  0  0  0  0  0
    0.7426   -2.0705    0.0000 H   0  0  0  0  0  0  0  0  0  0  0  0
   -0.0326   -0.9633    0.0000 H   0  0  0  0  0  0  0  0  0  0  0  0
   -0.0326   -1.5277    0.0000 H   0  0  0  0  0  0  0  0  0  0  0  0
    0.4877    0.3641    0.0000 H   0  0  0  0  0  0  0  0  0  0  0  0
   -0.6774    0.4195    0.0000 H   0  0  0  0  0  0  0  0  0  0  0  0
   -0.7032   -0.3899    0.0000 H   0  0  0  0  0  0  0  0  0  0  0  0
    0.0281    1.6420    0.0000 H   0  0  0  0  0  0  0  0  0  0  0  0
    1.0248    2.0047    0.0000 H   0  0  0  0  0  0  0  0  0  0  0  0
    0.4604    2.0047    0.0000 H   0  0  0  0  0  0  0  0  0  0  0  0
  1  2  1  0  0  0  0
  2  3  1  0  0  0  0
  3  4  1  0  0  0  0
  4  5  1  0  0  0  0
  4  6  1  0  0  0  0
  6  7  1  0  0  0  0
  7  8  1  0  0  0  0
  7  9  1  0  0  0  0
  9 10  1  0  0  0  0
 10 11  1  0  0  0  0
 10 12  1  0  0  0  0
 12 13  1  0  0  0  0
 13 14  1  0  0  0  0
 13 15  1  0  0  0  0
 15 16  1  0  0  0  0
 16 17  1  0  0  0  0
 16 18  1  0  0  0  0
  2 18  1  0  0  0  0
  2 19  1  0  0  0  0
  3 20  1  0  0  0  0
  3 21  1  0  0  0  0
  4 22  1  0  0  0  0
  6 23  1  0  0  0  0
  6 24  1  0  0  0  0
  7 25  1  0  0  0  0
  9 26  1  0  0  0  0
  9 27  1  0  0  0  0
 10 28  1  0  0  0  0
 12 29  1  0  0  0  0
 12 30  1  0  0  0  0
 13 31  1  0  0  0  0
 15 32  1  0  0  0  0
 15 33  1  0  0  0  0
 16 34  1  0  0  0  0
 18 35  1  0  0  0  0
 18 36  1  0  0  0  0
M  END
>  <InChIKey>
InChI=1S/C12H18Br6/c13-7-1-8(14)3-10(16)5-12(18)6-11(17)4-9(15)2-7/h7-12H,1-6H2

>  <UN GHS>
Non-irritant

>  <CASRN>
25637-99-4

> <Outcome>
0

>  <Index>
2051

>  <StandardizerResult>
Clear Stereo (ID: ClearStereo)
Wedge Clean (ID: WedgeClean)
Mesomerize (ID: Mesomerize)
Tautomerize (ID: Tautomerize)
Add Explicit Hydrogens (ID: AddExplicitH)
Neutralize (ID: Neutralize)
Clean 2D (ID: Clean2D)

> <knn Distance>
3.0

> <CpId>
2051

$$$$
2215
  Mrv1532301301811342D          

 17 16  0  0  0  0            999 V2000
    1.7605    1.8414    0.0000 O   0  0  0  0  0  0  0  0  0  0  0  0
    2.4750    1.4289    0.0000 C   0  0  0  0  0  0  0  0  0  0  0  0
    3.1895    1.8414    0.0000 C   0  0  0  0  0  0  0  0  0  0  0  0
    3.9039    1.4289    0.0000 O   0  0  0  0  0  0  0  0  0  0  0  0
    4.6184    1.8414    0.0000 C   0  0  0  0  0  0  0  0  0  0  0  0
    5.3329    1.4289    0.0000 C   0  0  0  0  0  0  0  0  0  0  0  0
    6.0474    1.8414    0.0000 O   0  0  0  0  0  0  0  0  0  0  0  0
    1.7605    2.6664    0.0000 H   0  0  0  0  0  0  0  0  0  0  0  0
    2.1047    0.6917    0.0000 H   0  0  0  0  0  0  0  0  0  0  0  0
    2.8453    0.6917    0.0000 H   0  0  0  0  0  0  0  0  0  0  0  0
    3.5597    2.5786    0.0000 H   0  0  0  0  0  0  0  0  0  0  0  0
    2.8192    2.5786    0.0000 H   0  0  0  0  0  0  0  0  0  0  0  0
    4.9887    2.5786    0.0000 H   0  0  0  0  0  0  0  0  0  0  0  0
    4.2482    2.5786    0.0000 H   0  0  0  0  0  0  0  0  0  0  0  0
    4.9626    0.6917    0.0000 H   0  0  0  0  0  0  0  0  0  0  0  0
    5.7031    0.6917    0.0000 H   0  0  0  0  0  0  0  0  0  0  0  0
    6.7618    1.4289    0.0000 H   0  0  0  0  0  0  0  0  0  0  0  0
  1  2  1  0  0  0  0
  2  3  1  0  0  0  0
  3  4  1  0  0  0  0
  4  5  1  0  0  0  0
  5  6  1  0  0  0  0
  6  7  1  0  0  0  0
  1  8  1  0  0  0  0
  2  9  1  0  0  0  0
  2 10  1  0  0  0  0
  3 11  1  0  0  0  0
  3 12  1  0  0  0  0
  5 13  1  0  0  0  0
  5 14  1  0  0  0  0
  6 15  1  0  0  0  0
  6 16  1  0  0  0  0
  7 17  1  0  0  0  0
M  END
>  <InChIKey>
InChI=1S/C4H10O3/c5-1-3-7-4-2-6/h5-6H,1-4H2

>  <CASRN>
111-46-6

> <Outcome>
0

>  <Index>
2215

>  <StandardizerResult>
Clear Stereo (ID: ClearStereo)
Wedge Clean (ID: WedgeClean)
Mesomerize (ID: Mesomerize)
Tautomerize (ID: Tautomerize)
Add Explicit Hydrogens (ID: AddExplicitH)
Neutralize (ID: Neutralize)
Clean 2D (ID: Clean2D)

> <knn Distance>
3.0

> <CpId>
2215

$$$$
2273
  Mrv1532301301811342D          

 38 39  0  0  0  0            999 V2000
   -0.7145   -1.2375    0.0000 C   0  0  0  0  0  0  0  0  0  0  0  0
   -0.0000   -1.6500    0.0000 C   0  0  0  0  0  0  0  0  0  0  0  0
    0.7145   -1.2375    0.0000 C   0  0  0  0  0  0  0  0  0  0  0  0
    1.4289   -1.6500    0.0000 C   0  0  0  0  0  0  0  0  0  0  0  0
    2.1434   -1.2375    0.0000 C   0  0  0  0  0  0  0  0  0  0  0  0
    2.8579   -1.6500    0.0000 C   0  0  0  0  0  0  0  0  0  0  0  0
    1.4289   -2.4750    0.0000 C   0  0  0  0  0  0  0  0  0  0  0  0
    2.1434   -2.8875    0.0000 C   0  0  0  0  0  0  0  0  0  0  0  0
    2.1434   -3.7125    0.0000 C   0  0  0  0  0  0  0  0  0  0  0  0
    1.4289   -4.1250    0.0000 C   0  0  0  0  0  0  0  0  0  0  0  0
    1.4289   -4.9500    0.0000 O   0  0  0  0  0  0  0  0  0  0  0  0
    0.7145   -3.7125    0.0000 C   0  0  0  0  0  0  0  0  0  0  0  0
    0.7145   -2.8875    0.0000 C   0  0  0  0  0  0  0  0  0  0  0  0
    0.7145   -0.4125    0.0000 C   0  0  0  0  0  0  0  0  0  0  0  0
   -0.0000    0.0000    0.0000 C   0  0  0  0  0  0  0  0  0  0  0  0
   -0.0000    0.8250    0.0000 C   0  0  0  0  0  0  0  0  0  0  0  0
    0.7145    1.2375    0.0000 C   0  0  0  0  0  0  0  0  0  0  0  0
    0.7145    2.0625    0.0000 O   0  0  0  0  0  0  0  0  0  0  0  0
    1.4289    0.8250    0.0000 C   0  0  0  0  0  0  0  0  0  0  0  0
    1.4289    0.0000    0.0000 C   0  0  0  0  0  0  0  0  0  0  0  0
   -0.3020   -0.5230    0.0000 H   0  0  0  0  0  0  0  0  0  0  0  0
   -1.4289   -0.8250    0.0000 H   0  0  0  0  0  0  0  0  0  0  0  0
   -1.1270   -1.9520    0.0000 H   0  0  0  0  0  0  0  0  0  0  0  0
   -0.0000   -2.4750    0.0000 H   0  0  0  0  0  0  0  0  0  0  0  0
    2.1434   -0.4125    0.0000 H   0  0  0  0  0  0  0  0  0  0  0  0
    2.4454   -2.3645    0.0000 H   0  0  0  0  0  0  0  0  0  0  0  0
    3.5723   -2.0625    0.0000 H   0  0  0  0  0  0  0  0  0  0  0  0
    3.2704   -0.9355    0.0000 H   0  0  0  0  0  0  0  0  0  0  0  0
    2.9403   -3.1010    0.0000 H   0  0  0  0  0  0  0  0  0  0  0  0
    2.8579   -4.1250    0.0000 H   0  0  0  0  0  0  0  0  0  0  0  0
    0.7145   -5.3625    0.0000 H   0  0  0  0  0  0  0  0  0  0  0  0
   -0.0000   -4.1250    0.0000 H   0  0  0  0  0  0  0  0  0  0  0  0
    0.7145   -2.0625    0.0000 H   0  0  0  0  0  0  0  0  0  0  0  0
   -0.7969    0.2135    0.0000 H   0  0  0  0  0  0  0  0  0  0  0  0
   -0.7145    1.2375    0.0000 H   0  0  0  0  0  0  0  0  0  0  0  0
    1.4289    2.4750    0.0000 H   0  0  0  0  0  0  0  0  0  0  0  0
    2.1434    1.2375    0.0000 H   0  0  0  0  0  0  0  0  0  0  0  0
    1.4289   -0.8250    0.0000 H   0  0  0  0  0  0  0  0  0  0  0  0
  2  1  1  4  0  0  0
  2  3  2  0  0  0  0
  3  4  1  0  0  0  0
  4  5  2  0  0  0  0
  5  6  1  4  0  0  0
  4  7  1  0  0  0  0
  7  8  4  0  0  0  0
  8  9  4  0  0  0  0
  9 10  4  0  0  0  0
 10 11  1  0  0  0  0
 10 12  4  0  0  0  0
 12 13  4  0  0  0  0
  7 13  4  0  0  0  0
  3 14  1  0  0  0  0
 14 15  4  0  0  0  0
 15 16  4  0  0  0  0
 16 17  4  0  0  0  0
 17 18  1  0  0  0  0
 17 19  4  0  0  0  0
 19 20  4  0  0  0  0
 14 20  4  0  0  0  0
  1 21  1  0  0  0  0
  1 22  1  0  0  0  0
  1 23  1  0  0  0  0
  2 24  1  0  0  0  0
  5 25  1  0  0  0  0
  6 26  1  0  0  0  0
  6 27  1  0  0  0  0
  6 28  1  0  0  0  0
  8 29  1  0  0  0  0
  9 30  1  0  0  0  0
 11 31  1  0  0  0  0
 12 32  1  0  0  0  0
 13 33  1  0  0  0  0
 15 34  1  0  0  0  0
 16 35  1  0  0  0  0
 18 36  1  0  0  0  0
 19 37  1  0  0  0  0
 20 38  1  0  0  0  0
M  END
>  <InChIKey>
InChI=1S/C18H18O2/c1-3-17(13-5-9-15(19)10-6-13)18(4-2)14-7-11-16(20)12-8-14/h3-12,19-20H,1-2H3

>  <CASRN>
84-17-3

> <Outcome>
0

>  <Index>
2273

>  <StandardizerResult>
Dearomatize (ID: Dearomatize)
Clear Stereo (ID: ClearStereo)
Wedge Clean (ID: WedgeClean)
Mesomerize (ID: Mesomerize)
Tautomerize (ID: Tautomerize)
Aromatize (ID: Aromatize)
Add Explicit Hydrogens (ID: AddExplicitH)
Neutralize (ID: Neutralize)
Clean 2D (ID: Clean2D)

> <knn Distance>
3.0

> <CpId>
2273

$$$$
2283
  Mrv1532301301811342D          

 24 24  0  0  0  0            999 V2000
    1.4289    3.3000    0.0000 C   0  0  0  0  0  0  0  0  0  0  0  0
    1.4289    2.4750    0.0000 O   0  0  0  0  0  0  0  0  0  0  0  0
    0.7145    2.0625    0.0000 C   0  0  0  0  0  0  0  0  0  0  0  0
   -0.0000    2.4750    0.0000 O   0  0  0  0  0  0  0  0  0  0  0  0
    0.7145    1.2375    0.0000 C   0  0  0  0  0  0  0  0  0  0  0  0
    1.4289    0.8250    0.0000 C   0  0  0  0  0  0  0  0  0  0  0  0
    1.4289    0.0000    0.0000 C   0  0  0  0  0  0  0  0  0  0  0  0
    0.7145   -0.4125    0.0000 C   0  0  0  0  0  0  0  0  0  0  0  0
   -0.0000    0.0000    0.0000 C   0  0  0  0  0  0  0  0  0  0  0  0
   -0.0000    0.8250    0.0000 C   0  0  0  0  0  0  0  0  0  0  0  0
   -0.7145    1.2375    0.0000 C   0  0  0  0  0  0  0  0  0  0  0  0
   -1.4289    0.8250    0.0000 O   0  0  0  0  0  0  0  0  0  0  0  0
   -0.7145    2.0625    0.0000 O   0  0  0  0  0  0  0  0  0  0  0  0
   -1.4289    2.4750    0.0000 C   0  0  0  0  0  0  0  0  0  0  0  0
    2.2539    3.3000    0.0000 H   0  0  0  0  0  0  0  0  0  0  0  0
    1.4289    4.1250    0.0000 H   0  0  0  0  0  0  0  0  0  0  0  0
    0.6039    3.3000    0.0000 H   0  0  0  0  0  0  0  0  0  0  0  0
    2.1434    1.2375    0.0000 H   0  0  0  0  0  0  0  0  0  0  0  0
    2.1434   -0.4125    0.0000 H   0  0  0  0  0  0  0  0  0  0  0  0
    0.7145   -1.2375    0.0000 H   0  0  0  0  0  0  0  0  0  0  0  0
   -0.7145   -0.4125    0.0000 H   0  0  0  0  0  0  0  0  0  0  0  0
   -1.0164    3.1895    0.0000 H   0  0  0  0  0  0  0  0  0  0  0  0
   -2.1434    2.8875    0.0000 H   0  0  0  0  0  0  0  0  0  0  0  0
   -1.8414    1.7605    0.0000 H   0  0  0  0  0  0  0  0  0  0  0  0
  1  2  1  0  0  0  0
  2  3  1  0  0  0  0
  3  4  2  0  0  0  0
  3  5  1  0  0  0  0
  5  6  4  0  0  0  0
  6  7  4  0  0  0  0
  7  8  4  0  0  0  0
  8  9  4  0  0  0  0
  9 10  4  0  0  0  0
  5 10  4  0  0  0  0
 10 11  1  0  0  0  0
 11 12  2  0  0  0  0
 11 13  1  0  0  0  0
 13 14  1  0  0  0  0
  1 15  1  0  0  0  0
  1 16  1  0  0  0  0
  1 17  1  0  0  0  0
  6 18  1  0  0  0  0
  7 19  1  0  0  0  0
  8 20  1  0  0  0  0
  9 21  1  0  0  0  0
 14 22  1  0  0  0  0
 14 23  1  0  0  0  0
 14 24  1  0  0  0  0
M  END
>  <InChIKey>
InChI=1S/C10H10O4/c1-13-9(11)7-5-3-4-6-8(7)10(12)14-2/h3-6H,1-2H3

>  <CASRN>
131-11-3

> <Outcome>
0

>  <Index>
2283

>  <StandardizerResult>
Dearomatize (ID: Dearomatize)
Clear Stereo (ID: ClearStereo)
Wedge Clean (ID: WedgeClean)
Mesomerize (ID: Mesomerize)
Tautomerize (ID: Tautomerize)
Aromatize (ID: Aromatize)
Add Explicit Hydrogens (ID: AddExplicitH)
Neutralize (ID: Neutralize)
Clean 2D (ID: Clean2D)

> <knn Distance>
3.0

> <CpId>
2283

$$$$
2284
  Mrv1532301301811342D          

 35 36  0  0  0  0            999 V2000
    4.0287   -2.7676    0.0000 C   0  0  0  0  0  0  0  0  0  0  0  0
    3.6162   -2.0532    0.0000 C   0  0  0  0  0  0  0  0  0  0  0  0
    3.2037   -1.3387    0.0000 C   0  0  0  0  0  0  0  0  0  0  0  0
    2.9018   -2.4657    0.0000 O   0  0  0  0  0  0  0  0  0  0  0  0
    2.9018   -3.2907    0.0000 C   0  0  0  0  0  0  0  0  0  0  0  0
    3.6162   -3.7032    0.0000 C   0  0  0  0  0  0  0  0  0  0  0  0
    3.6162   -4.5282    0.0000 C   0  0  0  0  0  0  0  0  0  0  0  0
    2.9018   -4.9407    0.0000 C   0  0  0  0  0  0  0  0  0  0  0  0
    2.9018   -5.7657    0.0000 Cl  0  0  0  0  0  0  0  0  0  0  0  0
    2.1873   -4.5282    0.0000 C   0  0  0  0  0  0  0  0  0  0  0  0
    2.1873   -3.7032    0.0000 C   0  0  0  0  0  0  0  0  0  0  0  0
    4.3307   -1.6407    0.0000 C   0  0  0  0  0  0  0  0  0  0  0  0
    5.0452   -2.0532    0.0000 O   0  0  0  0  0  0  0  0  0  0  0  0
    4.3307   -0.8157    0.0000 O   0  0  0  0  0  0  0  0  0  0  0  0
    5.0452   -0.4032    0.0000 C   0  0  0  0  0  0  0  0  0  0  0  0
    5.0452    0.4218    0.0000 C   0  0  0  0  0  0  0  0  0  0  0  0
    5.7596    0.8343    0.0000 C   0  0  0  0  0  0  0  0  0  0  0  0
    6.4741    0.4218    0.0000 C   0  0  0  0  0  0  0  0  0  0  0  0
    7.1886    0.8343    0.0000 Cl  0  0  0  0  0  0  0  0  0  0  0  0
    6.4741   -0.4032    0.0000 C   0  0  0  0  0  0  0  0  0  0  0  0
    5.7596   -0.8157    0.0000 C   0  0  0  0  0  0  0  0  0  0  0  0
    3.3143   -3.1801    0.0000 H   0  0  0  0  0  0  0  0  0  0  0  0
    4.4412   -3.4821    0.0000 H   0  0  0  0  0  0  0  0  0  0  0  0
    4.7432   -2.3551    0.0000 H   0  0  0  0  0  0  0  0  0  0  0  0
    3.9182   -0.9262    0.0000 H   0  0  0  0  0  0  0  0  0  0  0  0
    2.7912   -0.6242    0.0000 H   0  0  0  0  0  0  0  0  0  0  0  0
    2.4893   -1.7512    0.0000 H   0  0  0  0  0  0  0  0  0  0  0  0
    2.9018   -4.1157    0.0000 H   0  0  0  0  0  0  0  0  0  0  0  0
    4.3307   -4.9407    0.0000 H   0  0  0  0  0  0  0  0  0  0  0  0
    1.4728   -4.9407    0.0000 H   0  0  0  0  0  0  0  0  0  0  0  0
    1.4728   -3.2907    0.0000 H   0  0  0  0  0  0  0  0  0  0  0  0
    4.3307    0.8343    0.0000 H   0  0  0  0  0  0  0  0  0  0  0  0
    5.7596    1.6593    0.0000 H   0  0  0  0  0  0  0  0  0  0  0  0
    7.1886   -0.8157    0.0000 H   0  0  0  0  0  0  0  0  0  0  0  0
    5.7596   -1.6407    0.0000 H   0  0  0  0  0  0  0  0  0  0  0  0
  1  2  1  0  0  0  0
  2  3  1  0  0  0  0
  2  4  1  0  0  0  0
  4  5  1  0  0  0  0
  5  6  4  0  0  0  0
  6  7  4  0  0  0  0
  7  8  4  0  0  0  0
  8  9  1  0  0  0  0
  8 10  4  0  0  0  0
 10 11  4  0  0  0  0
  5 11  4  0  0  0  0
  2 12  1  0  0  0  0
 12 13  2  0  0  0  0
 12 14  1  0  0  0  0
 14 15  1  0  0  0  0
 15 16  4  0  0  0  0
 16 17  4  0  0  0  0
 17 18  4  0  0  0  0
 18 19  1  0  0  0  0
 18 20  4  0  0  0  0
 20 21  4  0  0  0  0
 15 21  4  0  0  0  0
  1 22  1  0  0  0  0
  1 23  1  0  0  0  0
  1 24  1  0  0  0  0
  3 25  1  0  0  0  0
  3 26  1  0  0  0  0
  3 27  1  0  0  0  0
  6 28  1  0  0  0  0
  7 29  1  0  0  0  0
 10 30  1  0  0  0  0
 11 31  1  0  0  0  0
 16 32  1  0  0  0  0
 17 33  1  0  0  0  0
 20 34  1  0  0  0  0
 21 35  1  0  0  0  0
M  END
>  <InChIKey>
InChI=1S/C16H14Cl2O3/c1-16(2,21-14-9-5-12(18)6-10-14)15(19)20-13-7-3-11(17)4-8-13/h3-10H,1-2H3

>  <CASRN>
61887-16-9

> <Outcome>
0

>  <Index>
2284

>  <StandardizerResult>
Dearomatize (ID: Dearomatize)
Clear Stereo (ID: ClearStereo)
Wedge Clean (ID: WedgeClean)
Mesomerize (ID: Mesomerize)
Tautomerize (ID: Tautomerize)
Aromatize (ID: Aromatize)
Add Explicit Hydrogens (ID: AddExplicitH)
Neutralize (ID: Neutralize)
Clean 2D (ID: Clean2D)

> <knn Distance>
3.0

> <CpId>
2284

$$$$
2328
  Mrv1532301301811342D          

 27 29  0  0  0  0            999 V2000
    2.1434   -3.7132    0.0000 O   0  0  0  0  0  0  0  0  0  0  0  0
    2.1434   -2.8882    0.0000 C   0  0  0  0  0  0  0  0  0  0  0  0
    1.4289   -2.4757    0.0000 C   0  0  0  0  0  0  0  0  0  0  0  0
    1.4289   -1.6507    0.0000 C   0  0  0  0  0  0  0  0  0  0  0  0
    2.1434   -1.2382    0.0000 C   0  0  0  0  0  0  0  0  0  0  0  0
    2.8579   -1.6507    0.0000 C   0  0  0  0  0  0  0  0  0  0  0  0
    3.5724   -1.2382    0.0000 C   0  0  0  0  0  0  0  0  0  0  0  0
    4.2868   -1.6507    0.0000 C   0  0  0  0  0  0  0  0  0  0  0  0
    5.0013   -1.2382    0.0000 C   0  0  0  0  0  0  0  0  0  0  0  0
    5.7158   -1.6507    0.0000 C   0  0  0  0  0  0  0  0  0  0  0  0
    5.7158   -2.4757    0.0000 C   0  0  0  0  0  0  0  0  0  0  0  0
    5.0013   -2.8882    0.0000 C   0  0  0  0  0  0  0  0  0  0  0  0
    5.0013   -3.7132    0.0000 O   0  0  0  0  0  0  0  0  0  0  0  0
    4.2868   -2.4757    0.0000 C   0  0  0  0  0  0  0  0  0  0  0  0
    3.5724   -2.8882    0.0000 C   0  0  0  0  0  0  0  0  0  0  0  0
    3.5724   -3.7132    0.0000 O   0  0  0  0  0  0  0  0  0  0  0  0
    2.8579   -2.4757    0.0000 C   0  0  0  0  0  0  0  0  0  0  0  0
    1.4289   -4.1257    0.0000 H   0  0  0  0  0  0  0  0  0  0  0  0
    0.7145   -2.8882    0.0000 H   0  0  0  0  0  0  0  0  0  0  0  0
    0.7145   -1.2382    0.0000 H   0  0  0  0  0  0  0  0  0  0  0  0
    2.1434   -0.4132    0.0000 H   0  0  0  0  0  0  0  0  0  0  0  0
    3.9426   -0.5009    0.0000 H   0  0  0  0  0  0  0  0  0  0  0  0
    3.2021   -0.5009    0.0000 H   0  0  0  0  0  0  0  0  0  0  0  0
    5.0013   -0.4132    0.0000 H   0  0  0  0  0  0  0  0  0  0  0  0
    6.4302   -1.2382    0.0000 H   0  0  0  0  0  0  0  0  0  0  0  0
    6.4302   -2.8882    0.0000 H   0  0  0  0  0  0  0  0  0  0  0  0
    4.2868   -4.1257    0.0000 H   0  0  0  0  0  0  0  0  0  0  0  0
  1  2  1  0  0  0  0
  2  3  4  0  0  0  0
  3  4  4  0  0  0  0
  4  5  4  0  0  0  0
  5  6  4  0  0  0  0
  6  7  1  0  0  0  0
  7  8  1  0  0  0  0
  8  9  4  0  0  0  0
  9 10  4  0  0  0  0
 10 11  4  0  0  0  0
 11 12  4  0  0  0  0
 12 13  1  0  0  0  0
 12 14  4  0  0  0  0
  8 14  4  0  0  0  0
 14 15  1  0  0  0  0
 15 16  2  0  0  0  0
 15 17  1  0  0  0  0
  2 17  4  0  0  0  0
  6 17  4  0  0  0  0
  1 18  1  0  0  0  0
  3 19  1  0  0  0  0
  4 20  1  0  0  0  0
  5 21  1  0  0  0  0
  7 22  1  0  0  0  0
  7 23  1  0  0  0  0
  9 24  1  0  0  0  0
 10 25  1  0  0  0  0
 11 26  1  0  0  0  0
 13 27  1  0  0  0  0
M  END
>  <InChIKey>
InChI=1S/C14H10O3/c15-10-5-1-3-8-7-9-4-2-6-11(16)13(9)14(17)12(8)10/h1-6,15-16H,7H2

>  <CASRN>
1143-38-0

> <Outcome>
0

>  <Index>
2328

>  <StandardizerResult>
Dearomatize (ID: Dearomatize)
Clear Stereo (ID: ClearStereo)
Wedge Clean (ID: WedgeClean)
Mesomerize (ID: Mesomerize)
Tautomerize (ID: Tautomerize)
Aromatize (ID: Aromatize)
Add Explicit Hydrogens (ID: AddExplicitH)
Neutralize (ID: Neutralize)
Clean 2D (ID: Clean2D)

> <knn Distance>
3.0

> <CpId>
2328

$$$$
2448
  Mrv1532301301811342D          

 19 19  0  0  0  0            999 V2000
    0.7145    2.0625    0.0000 O   0  0  0  0  0  0  0  0  0  0  0  0
    0.7145    1.2375    0.0000 C   0  0  0  0  0  0  0  0  0  0  0  0
    1.4289    0.8250    0.0000 C   0  0  0  0  0  0  0  0  0  0  0  0
    1.4289    0.0000    0.0000 C   0  0  0  0  0  0  0  0  0  0  0  0
    0.7145   -0.4125    0.0000 C   0  0  0  0  0  0  0  0  0  0  0  0
   -0.0000    0.0000    0.0000 C   0  0  0  0  0  0  0  0  0  0  0  0
   -0.0000    0.8250    0.0000 C   0  0  0  0  0  0  0  0  0  0  0  0
   -0.7145    1.2375    0.0000 N   0  0  0  0  0  0  0  0  0  0  0  0
   -0.7145    2.0625    0.0000 O   0  0  0  0  0  0  0  0  0  0  0  0
   -1.4289    0.8250    0.0000 O   0  0  0  0  0  0  0  0  0  0  0  0
    0.7145   -1.2375    0.0000 N   0  0  0  0  0  0  0  0  0  0  0  0
    1.4289   -1.6500    0.0000 O   0  0  0  0  0  0  0  0  0  0  0  0
   -0.0000   -1.6500    0.0000 O   0  0  0  0  0  0  0  0  0  0  0  0
    2.1434    1.2375    0.0000 N   0  0  0  0  0  0  0  0  0  0  0  0
    2.8579    0.8250    0.0000 O   0  0  0  0  0  0  0  0  0  0  0  0
    2.1434    2.0625    0.0000 O   0  0  0  0  0  0  0  0  0  0  0  0
    1.4289    2.4750    0.0000 H   0  0  0  0  0  0  0  0  0  0  0  0
    2.1434   -0.4125    0.0000 H   0  0  0  0  0  0  0  0  0  0  0  0
   -0.7145   -0.4125    0.0000 H   0  0  0  0  0  0  0  0  0  0  0  0
  1  2  1  0  0  0  0
  2  3  4  0  0  0  0
  3  4  4  0  0  0  0
  4  5  4  0  0  0  0
  5  6  4  0  0  0  0
  6  7  4  0  0  0  0
  2  7  4  0  0  0  0
  7  8  1  0  0  0  0
  8  9  2  0  0  0  0
  8 10  2  0  0  0  0
  5 11  1  0  0  0  0
 11 12  2  0  0  0  0
 11 13  2  0  0  0  0
  3 14  1  0  0  0  0
 14 15  2  0  0  0  0
 14 16  2  0  0  0  0
  1 17  1  0  0  0  0
  4 18  1  0  0  0  0
  6 19  1  0  0  0  0
M  END
>  <InChIKey>
InChI=1S/C6H3N3O7/c10-6-4(8(13)14)1-3(7(11)12)2-5(6)9(15)16/h1-2,10H

>  <CASRN>
88-89-1

> <Outcome>
0

>  <Index>
2448

>  <StandardizerResult>
Dearomatize (ID: Dearomatize)
Clear Stereo (ID: ClearStereo)
Wedge Clean (ID: WedgeClean)
Mesomerize (ID: Mesomerize)
Tautomerize (ID: Tautomerize)
Aromatize (ID: Aromatize)
Add Explicit Hydrogens (ID: AddExplicitH)
Neutralize (ID: Neutralize)
Clean 2D (ID: Clean2D)

> <knn Distance>
3.0

> <CpId>
2448

$$$$
2477
  Mrv1532301301811342D          

 32 33  0  0  0  0            999 V2000
    1.4289   -1.6500    0.0000 C   0  0  0  0  0  0  0  0  0  0  0  0
    1.4289   -2.4750    0.0000 C   0  0  0  0  0  0  0  0  0  0  0  0
    2.1434   -2.8875    0.0000 C   0  0  0  0  0  0  0  0  0  0  0  0
    2.1434   -3.7125    0.0000 C   0  0  0  0  0  0  0  0  0  0  0  0
    1.4289   -4.1250    0.0000 C   0  0  0  0  0  0  0  0  0  0  0  0
    0.7145   -3.7125    0.0000 C   0  0  0  0  0  0  0  0  0  0  0  0
    0.7145   -2.8875    0.0000 C   0  0  0  0  0  0  0  0  0  0  0  0
    0.0000   -2.4750    0.0000 N   0  0  0  0  0  0  0  0  0  0  0  0
    2.8579   -4.1250    0.0000 N   0  0  0  0  0  0  0  0  0  0  0  0
    3.5724   -3.7125    0.0000 N   0  0  0  0  0  0  0  0  0  0  0  0
    4.2868   -4.1250    0.0000 C   0  0  0  0  0  0  0  0  0  0  0  0
    5.0013   -3.7125    0.0000 C   0  0  0  0  0  0  0  0  0  0  0  0
    5.7158   -4.1250    0.0000 C   0  0  0  0  0  0  0  0  0  0  0  0
    5.7158   -4.9500    0.0000 C   0  0  0  0  0  0  0  0  0  0  0  0
    5.0013   -5.3625    0.0000 C   0  0  0  0  0  0  0  0  0  0  0  0
    4.2868   -4.9500    0.0000 C   0  0  0  0  0  0  0  0  0  0  0  0
    3.5724   -5.3625    0.0000 C   0  0  0  0  0  0  0  0  0  0  0  0
    2.2539   -1.6500    0.0000 H   0  0  0  0  0  0  0  0  0  0  0  0
    1.4289   -0.8250    0.0000 H   0  0  0  0  0  0  0  0  0  0  0  0
    0.6039   -1.6500    0.0000 H   0  0  0  0  0  0  0  0  0  0  0  0
    2.8579   -2.4750    0.0000 H   0  0  0  0  0  0  0  0  0  0  0  0
    1.4289   -4.9500    0.0000 H   0  0  0  0  0  0  0  0  0  0  0  0
    0.0000   -4.1250    0.0000 H   0  0  0  0  0  0  0  0  0  0  0  0
    0.0000   -1.6500    0.0000 H   0  0  0  0  0  0  0  0  0  0  0  0
   -0.7145   -2.8875    0.0000 H   0  0  0  0  0  0  0  0  0  0  0  0
    5.0013   -2.8875    0.0000 H   0  0  0  0  0  0  0  0  0  0  0  0
    6.4302   -3.7125    0.0000 H   0  0  0  0  0  0  0  0  0  0  0  0
    6.4302   -5.3625    0.0000 H   0  0  0  0  0  0  0  0  0  0  0  0
    5.0013   -6.1875    0.0000 H   0  0  0  0  0  0  0  0  0  0  0  0
    3.1599   -4.6480    0.0000 H   0  0  0  0  0  0  0  0  0  0  0  0
    2.8579   -5.7750    0.0000 H   0  0  0  0  0  0  0  0  0  0  0  0
    3.9849   -6.0770    0.0000 H   0  0  0  0  0  0  0  0  0  0  0  0
  1  2  1  0  0  0  0
  2  3  4  0  0  0  0
  3  4  4  0  0  0  0
  4  5  4  0  0  0  0
  5  6  4  0  0  0  0
  6  7  4  0  0  0  0
  2  7  4  0  0  0  0
  7  8  1  0  0  0  0
  9  4  1  4  0  0  0
  9 10  2  0  0  0  0
 10 11  1  0  0  0  0
 11 12  4  0  0  0  0
 12 13  4  0  0  0  0
 13 14  4  0  0  0  0
 14 15  4  0  0  0  0
 15 16  4  0  0  0  0
 11 16  4  0  0  0  0
 16 17  1  0  0  0  0
  1 18  1  0  0  0  0
  1 19  1  0  0  0  0
  1 20  1  0  0  0  0
  3 21  1  0  0  0  0
  5 22  1  0  0  0  0
  6 23  1  0  0  0  0
  8 24  1  0  0  0  0
  8 25  1  0  0  0  0
 12 26  1  0  0  0  0
 13 27  1  0  0  0  0
 14 28  1  0  0  0  0
 15 29  1  0  0  0  0
 17 30  1  0  0  0  0
 17 31  1  0  0  0  0
 17 32  1  0  0  0  0
M  END
>  <InChIKey>
InChI=1S/C14H15N3/c1-10-5-3-4-6-14(10)17-16-12-7-8-13(15)11(2)9-12/h3-9H,15H2,1-2H3

>  <CASRN>
97-56-3

> <Outcome>
0

>  <Index>
2477

>  <StandardizerResult>
Dearomatize (ID: Dearomatize)
Clear Stereo (ID: ClearStereo)
Wedge Clean (ID: WedgeClean)
Mesomerize (ID: Mesomerize)
Tautomerize (ID: Tautomerize)
Aromatize (ID: Aromatize)
Add Explicit Hydrogens (ID: AddExplicitH)
Neutralize (ID: Neutralize)
Clean 2D (ID: Clean2D)

> <knn Distance>
3.0

> <CpId>
2477

$$$$
2495
  Mrv1532301301811342D          

 12 11  0  0  0  0            999 V2000
    2.0625   -0.7145    0.0000 N   0  0  0  0  0  0  0  0  0  0  0  0
    1.2375   -0.7145    0.0000 C   0  0  0  0  0  0  0  0  0  0  0  0
    0.8250   -0.0000    0.0000 C   0  0  0  0  0  0  0  0  0  0  0  0
    0.0000   -0.0000    0.0000 N   0  0  0  0  0  0  0  0  0  0  0  0
    2.4750   -1.4290    0.0000 H   0  0  0  0  0  0  0  0  0  0  0  0
    2.4750   -0.0000    0.0000 H   0  0  0  0  0  0  0  0  0  0  0  0
    0.5482   -1.1678    0.0000 H   0  0  0  0  0  0  0  0  0  0  0  0
    1.1895   -1.5381    0.0000 H   0  0  0  0  0  0  0  0  0  0  0  0
    1.5143    0.4533    0.0000 H   0  0  0  0  0  0  0  0  0  0  0  0
    0.8730    0.8236    0.0000 H   0  0  0  0  0  0  0  0  0  0  0  0
   -0.4125    0.7145    0.0000 H   0  0  0  0  0  0  0  0  0  0  0  0
   -0.4125   -0.7145    0.0000 H   0  0  0  0  0  0  0  0  0  0  0  0
  1  2  1  0  0  0  0
  2  3  1  0  0  0  0
  3  4  1  0  0  0  0
  1  5  1  0  0  0  0
  1  6  1  0  0  0  0
  2  7  1  0  0  0  0
  2  8  1  0  0  0  0
  3  9  1  0  0  0  0
  3 10  1  0  0  0  0
  4 11  1  0  0  0  0
  4 12  1  0  0  0  0
M  END
>  <InChIKey>
InChI=1S/C2H8N2/c3-1-2-4/h1-4H2

>  <CASRN>
107-15-3

> <Outcome>
0

>  <Index>
2495

>  <StandardizerResult>
Clear Stereo (ID: ClearStereo)
Wedge Clean (ID: WedgeClean)
Mesomerize (ID: Mesomerize)
Tautomerize (ID: Tautomerize)
Add Explicit Hydrogens (ID: AddExplicitH)
Neutralize (ID: Neutralize)
Clean 2D (ID: Clean2D)

> <knn Distance>
3.0

> <CpId>
2495

$$$$
2611
  Mrv1532301301811342D          

 26 27  0  0  0  0            999 V2000
    1.4289   -1.6500    0.0000 N   0  0  0  0  0  0  0  0  0  0  0  0
    1.4289   -2.4750    0.0000 C   0  0  0  0  0  0  0  0  0  0  0  0
    2.1434   -2.8875    0.0000 C   0  0  0  0  0  0  0  0  0  0  0  0
    2.1434   -3.7125    0.0000 C   0  0  0  0  0  0  0  0  0  0  0  0
    1.4289   -4.1250    0.0000 C   0  0  0  0  0  0  0  0  0  0  0  0
    0.7145   -3.7125    0.0000 C   0  0  0  0  0  0  0  0  0  0  0  0
    0.7145   -2.8875    0.0000 C   0  0  0  0  0  0  0  0  0  0  0  0
    1.4289   -4.9500    0.0000 N   0  0  0  0  0  0  0  0  0  0  0  0
    2.1434   -5.3625    0.0000 N   0  0  0  0  0  0  0  0  0  0  0  0
    2.1434   -6.1875    0.0000 C   0  0  0  0  0  0  0  0  0  0  0  0
    2.8579   -6.6000    0.0000 C   0  0  0  0  0  0  0  0  0  0  0  0
    2.8579   -7.4250    0.0000 C   0  0  0  0  0  0  0  0  0  0  0  0
    2.1434   -7.8375    0.0000 C   0  0  0  0  0  0  0  0  0  0  0  0
    1.4289   -7.4250    0.0000 C   0  0  0  0  0  0  0  0  0  0  0  0
    1.4289   -6.6000    0.0000 C   0  0  0  0  0  0  0  0  0  0  0  0
    2.1434   -1.2375    0.0000 H   0  0  0  0  0  0  0  0  0  0  0  0
    0.7145   -1.2375    0.0000 H   0  0  0  0  0  0  0  0  0  0  0  0
    2.8579   -2.4750    0.0000 H   0  0  0  0  0  0  0  0  0  0  0  0
    2.8579   -4.1250    0.0000 H   0  0  0  0  0  0  0  0  0  0  0  0
   -0.0000   -4.1250    0.0000 H   0  0  0  0  0  0  0  0  0  0  0  0
   -0.0000   -2.4750    0.0000 H   0  0  0  0  0  0  0  0  0  0  0  0
    3.5723   -6.1875    0.0000 H   0  0  0  0  0  0  0  0  0  0  0  0
    3.5723   -7.8375    0.0000 H   0  0  0  0  0  0  0  0  0  0  0  0
    2.1434   -8.6625    0.0000 H   0  0  0  0  0  0  0  0  0  0  0  0
    0.7145   -7.8375    0.0000 H   0  0  0  0  0  0  0  0  0  0  0  0
    0.7145   -6.1875    0.0000 H   0  0  0  0  0  0  0  0  0  0  0  0
  1  2  1  0  0  0  0
  2  3  4  0  0  0  0
  3  4  4  0  0  0  0
  4  5  4  0  0  0  0
  5  6  4  0  0  0  0
  6  7  4  0  0  0  0
  2  7  4  0  0  0  0
  8  5  1  4  0  0  0
  8  9  2  0  0  0  0
  9 10  1  0  0  0  0
 10 11  4  0  0  0  0
 11 12  4  0  0  0  0
 12 13  4  0  0  0  0
 13 14  4  0  0  0  0
 14 15  4  0  0  0  0
 10 15  4  0  0  0  0
  1 16  1  0  0  0  0
  1 17  1  0  0  0  0
  3 18  1  0  0  0  0
  4 19  1  0  0  0  0
  6 20  1  0  0  0  0
  7 21  1  0  0  0  0
 11 22  1  0  0  0  0
 12 23  1  0  0  0  0
 13 24  1  0  0  0  0
 14 25  1  0  0  0  0
 15 26  1  0  0  0  0
M  END
>  <InChIKey>
InChI=1S/C12H11N3/c13-10-6-8-12(9-7-10)15-14-11-4-2-1-3-5-11/h1-9H,13H2

>  <CASRN>
60-09-3

> <Outcome>
0

>  <Index>
2611

>  <StandardizerResult>
Dearomatize (ID: Dearomatize)
Clear Stereo (ID: ClearStereo)
Wedge Clean (ID: WedgeClean)
Mesomerize (ID: Mesomerize)
Tautomerize (ID: Tautomerize)
Aromatize (ID: Aromatize)
Add Explicit Hydrogens (ID: AddExplicitH)
Neutralize (ID: Neutralize)
Clean 2D (ID: Clean2D)

> <knn Distance>
3.0

> <CpId>
2611

$$$$
2709
  Mrv1532301301811342D          

 19 19  0  0  0  0            999 V2000
    0.7145    2.0625    0.0000 C   0  0  0  0  0  0  0  0  0  0  0  0
    0.7145    1.2375    0.0000 C   0  0  0  0  0  0  0  0  0  0  0  0
    1.4289    0.8250    0.0000 C   0  0  0  0  0  0  0  0  0  0  0  0
    2.1434    1.2375    0.0000 N   0  0  0  0  0  0  0  0  0  0  0  0
    1.4289   -0.0000    0.0000 C   0  0  0  0  0  0  0  0  0  0  0  0
    0.7145   -0.4125    0.0000 C   0  0  0  0  0  0  0  0  0  0  0  0
   -0.0000   -0.0000    0.0000 C   0  0  0  0  0  0  0  0  0  0  0  0
   -0.0000    0.8250    0.0000 C   0  0  0  0  0  0  0  0  0  0  0  0
   -0.7145    1.2375    0.0000 N   0  0  0  0  0  0  0  0  0  0  0  0
    1.5395    2.0625    0.0000 H   0  0  0  0  0  0  0  0  0  0  0  0
    0.7145    2.8875    0.0000 H   0  0  0  0  0  0  0  0  0  0  0  0
   -0.1105    2.0625    0.0000 H   0  0  0  0  0  0  0  0  0  0  0  0
    2.8579    0.8250    0.0000 H   0  0  0  0  0  0  0  0  0  0  0  0
    2.1434    2.0625    0.0000 H   0  0  0  0  0  0  0  0  0  0  0  0
    2.1434   -0.4125    0.0000 H   0  0  0  0  0  0  0  0  0  0  0  0
    0.7145   -1.2375    0.0000 H   0  0  0  0  0  0  0  0  0  0  0  0
   -0.7145   -0.4125    0.0000 H   0  0  0  0  0  0  0  0  0  0  0  0
   -0.7145    2.0625    0.0000 H   0  0  0  0  0  0  0  0  0  0  0  0
   -1.4289    0.8250    0.0000 H   0  0  0  0  0  0  0  0  0  0  0  0
  1  2  1  0  0  0  0
  2  3  4  0  0  0  0
  3  4  1  0  0  0  0
  3  5  4  0  0  0  0
  5  6  4  0  0  0  0
  6  7  4  0  0  0  0
  7  8  4  0  0  0  0
  2  8  4  0  0  0  0
  8  9  1  0  0  0  0
  1 10  1  0  0  0  0
  1 11  1  0  0  0  0
  1 12  1  0  0  0  0
  4 13  1  0  0  0  0
  4 14  1  0  0  0  0
  5 15  1  0  0  0  0
  6 16  1  0  0  0  0
  7 17  1  0  0  0  0
  9 18  1  0  0  0  0
  9 19  1  0  0  0  0
M  END
>  <InChIKey>
InChI=1S/C7H10N2/c1-5-6(8)3-2-4-7(5)9/h2-4H,8-9H2,1H3

>  <CASRN>
823-40-5

> <Outcome>
0

>  <Index>
2709

>  <StandardizerResult>
Dearomatize (ID: Dearomatize)
Clear Stereo (ID: ClearStereo)
Wedge Clean (ID: WedgeClean)
Mesomerize (ID: Mesomerize)
Tautomerize (ID: Tautomerize)
Aromatize (ID: Aromatize)
Add Explicit Hydrogens (ID: AddExplicitH)
Neutralize (ID: Neutralize)
Clean 2D (ID: Clean2D)

> <knn Distance>
3.0

> <CpId>
2709

$$$$
2718
  Mrv1532301301811342D          

 10  9  0  0  0  0            999 V2000
    0.0280   -1.3200    0.0000 O   0  0  0  0  0  0  0  0  0  0  0  0
    0.7425   -0.9075    0.0000 C   0  0  0  0  0  0  0  0  0  0  0  0
    1.4570   -1.3200    0.0000 O   0  0  0  0  0  0  0  0  0  0  0  0
    0.7425   -0.0825    0.0000 C   0  0  0  0  0  0  0  0  0  0  0  0
    0.7425    0.7425    0.0000 Cl  0  0  0  0  0  0  0  0  0  0  0  0
    1.5675   -0.0825    0.0000 Cl  0  0  0  0  0  0  0  0  0  0  0  0
   -0.0825   -0.0825    0.0000 Cl  0  0  0  0  0  0  0  0  0  0  0  0
   -0.6864   -0.9075    0.0000 H   0  0  0  0  0  0  0  0  0  0  0  0
    0.7425   -1.7325    0.0000 H   0  0  0  0  0  0  0  0  0  0  0  0
    2.2820   -1.3200    0.0000 H   0  0  0  0  0  0  0  0  0  0  0  0
  1  2  1  0  0  0  0
  2  3  1  0  0  0  0
  2  4  1  0  0  0  0
  4  5  1  0  0  0  0
  4  6  1  0  0  0  0
  4  7  1  0  0  0  0
  1  8  1  0  0  0  0
  2  9  1  0  0  0  0
  3 10  1  0  0  0  0
M  END
>  <InChIKey>
InChI=1S/C2H3Cl3O2/c3-2(4,5)1(6)7/h1,6-7H

>  <CASRN>
302-17-0

> <Outcome>
0

>  <Index>
2718

>  <StandardizerResult>
Clear Stereo (ID: ClearStereo)
Wedge Clean (ID: WedgeClean)
Mesomerize (ID: Mesomerize)
Tautomerize (ID: Tautomerize)
Add Explicit Hydrogens (ID: AddExplicitH)
Neutralize (ID: Neutralize)
Clean 2D (ID: Clean2D)

> <knn Distance>
3.0

> <CpId>
2718

$$$$
3093
  Mrv1532301301811342D          

 25 24  0  0  0  0            999 V2000
    1.7390    1.8579    0.0000 C   0  0  0  0  0  0  0  0  0  0  0  0
    2.4535    1.4454    0.0000 C   0  0  0  0  0  0  0  0  0  0  0  0
    3.1680    1.8579    0.0000 C   0  0  0  0  0  0  0  0  0  0  0  0
    3.8824    1.4454    0.0000 C   0  0  0  0  0  0  0  0  0  0  0  0
    4.5969    1.8579    0.0000 C   0  0  0  0  0  0  0  0  0  0  0  0
    5.3114    1.4454    0.0000 C   0  0  0  0  0  0  0  0  0  0  0  0
    6.0259    1.8579    0.0000 C   0  0  0  0  0  0  0  0  0  0  0  0
    5.3114    0.6204    0.0000 N   0  0  0  0  0  0  0  0  0  0  0  0
    2.1515    2.5724    0.0000 H   0  0  0  0  0  0  0  0  0  0  0  0
    1.0246    2.2704    0.0000 H   0  0  0  0  0  0  0  0  0  0  0  0
    1.3265    1.1434    0.0000 H   0  0  0  0  0  0  0  0  0  0  0  0
    2.0832    0.7082    0.0000 H   0  0  0  0  0  0  0  0  0  0  0  0
    2.8238    0.7082    0.0000 H   0  0  0  0  0  0  0  0  0  0  0  0
    3.5382    2.5951    0.0000 H   0  0  0  0  0  0  0  0  0  0  0  0
    2.7977    2.5951    0.0000 H   0  0  0  0  0  0  0  0  0  0  0  0
    3.5122    0.7082    0.0000 H   0  0  0  0  0  0  0  0  0  0  0  0
    4.2527    0.7082    0.0000 H   0  0  0  0  0  0  0  0  0  0  0  0
    4.9672    2.5951    0.0000 H   0  0  0  0  0  0  0  0  0  0  0  0
    4.2267    2.5951    0.0000 H   0  0  0  0  0  0  0  0  0  0  0  0
    5.3114    2.2704    0.0000 H   0  0  0  0  0  0  0  0  0  0  0  0
    6.2394    1.0610    0.0000 H   0  0  0  0  0  0  0  0  0  0  0  0
    6.8509    1.8579    0.0000 H   0  0  0  0  0  0  0  0  0  0  0  0
    6.2394    2.6548    0.0000 H   0  0  0  0  0  0  0  0  0  0  0  0
    4.5969    0.2079    0.0000 H   0  0  0  0  0  0  0  0  0  0  0  0
    6.0259    0.2079    0.0000 H   0  0  0  0  0  0  0  0  0  0  0  0
  1  2  1  0  0  0  0
  2  3  1  0  0  0  0
  3  4  1  0  0  0  0
  4  5  1  0  0  0  0
  5  6  1  0  0  0  0
  6  7  1  0  0  0  0
  6  8  1  0  0  0  0
  1  9  1  0  0  0  0
  1 10  1  0  0  0  0
  1 11  1  0  0  0  0
  2 12  1  0  0  0  0
  2 13  1  0  0  0  0
  3 14  1  0  0  0  0
  3 15  1  0  0  0  0
  4 16  1  0  0  0  0
  4 17  1  0  0  0  0
  5 18  1  0  0  0  0
  5 19  1  0  0  0  0
  6 20  1  0  0  0  0
  7 21  1  0  0  0  0
  7 22  1  0  0  0  0
  7 23  1  0  0  0  0
  8 24  1  0  0  0  0
  8 25  1  0  0  0  0
M  END
>  <InChIKey>
InChI=1S/C7H17N/c1-3-4-5-6-7(2)8/h7H,3-6,8H2,1-2H3

>  <CASRN>
123-82-0

> <Outcome>
0

>  <Index>
3093

>  <StandardizerResult>
Clear Stereo (ID: ClearStereo)
Wedge Clean (ID: WedgeClean)
Mesomerize (ID: Mesomerize)
Tautomerize (ID: Tautomerize)
Add Explicit Hydrogens (ID: AddExplicitH)
Neutralize (ID: Neutralize)
Clean 2D (ID: Clean2D)

> <knn Distance>
3.0

> <CpId>
3093

$$$$
3121
  Mrv1532301301811342D          

 98 98  0  0  0  0            999 V2000
   -7.1872  -15.6782    0.0000 C   0  0  0  0  0  0  0  0  0  0  0  0
   -6.4727  -16.0907    0.0000 C   0  0  0  0  0  0  0  0  0  0  0  0
   -5.7582  -15.6782    0.0000 C   0  0  0  0  0  0  0  0  0  0  0  0
   -5.0438  -16.0907    0.0000 C   0  0  0  0  0  0  0  0  0  0  0  0
   -4.3293  -15.6782    0.0000 C   0  0  0  0  0  0  0  0  0  0  0  0
   -3.6148  -16.0907    0.0000 C   0  0  0  0  0  0  0  0  0  0  0  0
   -2.9003  -15.6782    0.0000 C   0  0  0  0  0  0  0  0  0  0  0  0
   -2.1859  -16.0907    0.0000 C   0  0  0  0  0  0  0  0  0  0  0  0
   -1.4714  -15.6782    0.0000 C   0  0  0  0  0  0  0  0  0  0  0  0
   -0.7569  -16.0907    0.0000 C   0  0  0  0  0  0  0  0  0  0  0  0
   -0.0425  -15.6782    0.0000 C   0  0  0  0  0  0  0  0  0  0  0  0
    0.6720  -16.0907    0.0000 C   0  0  0  0  0  0  0  0  0  0  0  0
    1.3865  -15.6782    0.0000 C   0  0  0  0  0  0  0  0  0  0  0  0
    2.1010  -16.0907    0.0000 C   0  0  0  0  0  0  0  0  0  0  0  0
    2.8154  -15.6782    0.0000 C   0  0  0  0  0  0  0  0  0  0  0  0
    3.5299  -16.0907    0.0000 C   0  0  0  0  0  0  0  0  0  0  0  0
    3.5299  -16.9157    0.0000 O   0  0  0  0  0  0  0  0  0  0  0  0
    4.2444  -15.6782    0.0000 O   0  0  0  0  0  0  0  0  0  0  0  0
    4.9588  -16.0907    0.0000 C   0  0  0  0  0  0  0  0  0  0  0  0
    5.6733  -15.6782    0.0000 C   0  0  0  0  0  0  0  0  0  0  0  0
    6.3878  -16.0907    0.0000 C   0  0  0  0  0  0  0  0  0  0  0  0
    6.3878  -16.9157    0.0000 C   0  0  0  0  0  0  0  0  0  0  0  0
    7.1023  -15.6782    0.0000 C   0  0  0  0  0  0  0  0  0  0  0  0
    7.8167  -16.0907    0.0000 C   0  0  0  0  0  0  0  0  0  0  0  0
    8.5312  -15.6782    0.0000 C   0  0  0  0  0  0  0  0  0  0  0  0
    9.2457  -16.0907    0.0000 C   0  0  0  0  0  0  0  0  0  0  0  0
    9.2457  -16.9157    0.0000 C   0  0  0  0  0  0  0  0  0  0  0  0
    9.9601  -15.6782    0.0000 C   0  0  0  0  0  0  0  0  0  0  0  0
    9.9601  -14.8532    0.0000 C   0  0  0  0  0  0  0  0  0  0  0  0
   10.6746  -14.4407    0.0000 C   0  0  0  0  0  0  0  0  0  0  0  0
   10.6746  -13.6157    0.0000 C   0  0  0  0  0  0  0  0  0  0  0  0
    9.9601  -13.2032    0.0000 C   0  0  0  0  0  0  0  0  0  0  0  0
   11.3891  -13.2032    0.0000 C   0  0  0  0  0  0  0  0  0  0  0  0
   12.1036  -13.6157    0.0000 C   0  0  0  0  0  0  0  0  0  0  0  0
   12.1036  -14.4407    0.0000 C   0  0  0  0  0  0  0  0  0  0  0  0
   11.3891  -14.8532    0.0000 C   0  0  0  0  0  0  0  0  0  0  0  0
   11.7764  -15.5816    0.0000 C   0  0  0  0  0  0  0  0  0  0  0  0
   11.0018  -15.5816    0.0000 C   0  0  0  0  0  0  0  0  0  0  0  0
   -6.7747  -14.9637    0.0000 H   0  0  0  0  0  0  0  0  0  0  0  0
   -7.9016  -15.2657    0.0000 H   0  0  0  0  0  0  0  0  0  0  0  0
   -7.5997  -16.3927    0.0000 H   0  0  0  0  0  0  0  0  0  0  0  0
   -6.8430  -16.8279    0.0000 H   0  0  0  0  0  0  0  0  0  0  0  0
   -6.1024  -16.8279    0.0000 H   0  0  0  0  0  0  0  0  0  0  0  0
   -5.3880  -14.9410    0.0000 H   0  0  0  0  0  0  0  0  0  0  0  0
   -6.1285  -14.9410    0.0000 H   0  0  0  0  0  0  0  0  0  0  0  0
   -5.4140  -16.8279    0.0000 H   0  0  0  0  0  0  0  0  0  0  0  0
   -4.6735  -16.8279    0.0000 H   0  0  0  0  0  0  0  0  0  0  0  0
   -3.9590  -14.9410    0.0000 H   0  0  0  0  0  0  0  0  0  0  0  0
   -4.6995  -14.9410    0.0000 H   0  0  0  0  0  0  0  0  0  0  0  0
   -3.9851  -16.8279    0.0000 H   0  0  0  0  0  0  0  0  0  0  0  0
   -3.2446  -16.8279    0.0000 H   0  0  0  0  0  0  0  0  0  0  0  0
   -2.5301  -14.9410    0.0000 H   0  0  0  0  0  0  0  0  0  0  0  0
   -3.2706  -14.9410    0.0000 H   0  0  0  0  0  0  0  0  0  0  0  0
   -2.5561  -16.8279    0.0000 H   0  0  0  0  0  0  0  0  0  0  0  0
   -1.8156  -16.8279    0.0000 H   0  0  0  0  0  0  0  0  0  0  0  0
   -1.1011  -14.9410    0.0000 H   0  0  0  0  0  0  0  0  0  0  0  0
   -1.8417  -14.9410    0.0000 H   0  0  0  0  0  0  0  0  0  0  0  0
   -1.1272  -16.8279    0.0000 H   0  0  0  0  0  0  0  0  0  0  0  0
   -0.3867  -16.8279    0.0000 H   0  0  0  0  0  0  0  0  0  0  0  0
    0.3278  -14.9410    0.0000 H   0  0  0  0  0  0  0  0  0  0  0  0
   -0.4127  -14.9410    0.0000 H   0  0  0  0  0  0  0  0  0  0  0  0
    0.3018  -16.8279    0.0000 H   0  0  0  0  0  0  0  0  0  0  0  0
    1.0423  -16.8279    0.0000 H   0  0  0  0  0  0  0  0  0  0  0  0
    1.7567  -14.9410    0.0000 H   0  0  0  0  0  0  0  0  0  0  0  0
    1.0162  -14.9410    0.0000 H   0  0  0  0  0  0  0  0  0  0  0  0
    1.7307  -16.8279    0.0000 H   0  0  0  0  0  0  0  0  0  0  0  0
    2.4712  -16.8279    0.0000 H   0  0  0  0  0  0  0  0  0  0  0  0
    3.1857  -14.9410    0.0000 H   0  0  0  0  0  0  0  0  0  0  0  0
    2.4452  -14.9410    0.0000 H   0  0  0  0  0  0  0  0  0  0  0  0
    4.5886  -16.8279    0.0000 H   0  0  0  0  0  0  0  0  0  0  0  0
    5.3291  -16.8279    0.0000 H   0  0  0  0  0  0  0  0  0  0  0  0
    5.6733  -14.8532    0.0000 H   0  0  0  0  0  0  0  0  0  0  0  0
    5.5628  -16.9157    0.0000 H   0  0  0  0  0  0  0  0  0  0  0  0
    6.3878  -17.7407    0.0000 H   0  0  0  0  0  0  0  0  0  0  0  0
    7.2128  -16.9157    0.0000 H   0  0  0  0  0  0  0  0  0  0  0  0
    7.1023  -14.8532    0.0000 H   0  0  0  0  0  0  0  0  0  0  0  0
    7.8167  -16.9157    0.0000 H   0  0  0  0  0  0  0  0  0  0  0  0
    8.5312  -14.8532    0.0000 H   0  0  0  0  0  0  0  0  0  0  0  0
    8.4207  -16.9157    0.0000 H   0  0  0  0  0  0  0  0  0  0  0  0
    9.2457  -17.7407    0.0000 H   0  0  0  0  0  0  0  0  0  0  0  0
   10.0707  -16.9157    0.0000 H   0  0  0  0  0  0  0  0  0  0  0  0
   10.6746  -16.0907    0.0000 H   0  0  0  0  0  0  0  0  0  0  0  0
    9.2457  -14.4407    0.0000 H   0  0  0  0  0  0  0  0  0  0  0  0
   10.3726  -12.4887    0.0000 H   0  0  0  0  0  0  0  0  0  0  0  0
    9.2457  -12.7907    0.0000 H   0  0  0  0  0  0  0  0  0  0  0  0
    9.5476  -13.9177    0.0000 H   0  0  0  0  0  0  0  0  0  0  0  0
   11.7593  -12.4660    0.0000 H   0  0  0  0  0  0  0  0  0  0  0  0
   11.0188  -12.4660    0.0000 H   0  0  0  0  0  0  0  0  0  0  0  0
   12.9272  -13.5677    0.0000 H   0  0  0  0  0  0  0  0  0  0  0  0
   12.5569  -12.9264    0.0000 H   0  0  0  0  0  0  0  0  0  0  0  0
   12.5569  -15.1300    0.0000 H   0  0  0  0  0  0  0  0  0  0  0  0
   12.9272  -14.4887    0.0000 H   0  0  0  0  0  0  0  0  0  0  0  0
   11.2743  -16.2363    0.0000 H   0  0  0  0  0  0  0  0  0  0  0  0
   11.9903  -16.3784    0.0000 H   0  0  0  0  0  0  0  0  0  0  0  0
   12.5388  -15.8968    0.0000 H   0  0  0  0  0  0  0  0  0  0  0  0
   10.7769  -14.7879    0.0000 H   0  0  0  0  0  0  0  0  0  0  0  0
   10.2899  -15.1646    0.0000 H   0  0  0  0  0  0  0  0  0  0  0  0
   10.1994  -15.7736    0.0000 H   0  0  0  0  0  0  0  0  0  0  0  0
  1  2  1  0  0  0  0
  2  3  1  0  0  0  0
  3  4  1  0  0  0  0
  4  5  1  0  0  0  0
  5  6  1  0  0  0  0
  6  7  1  0  0  0  0
  7  8  1  0  0  0  0
  8  9  1  0  0  0  0
  9 10  1  0  0  0  0
 10 11  1  0  0  0  0
 11 12  1  0  0  0  0
 12 13  1  0  0  0  0
 13 14  1  0  0  0  0
 14 15  1  0  0  0  0
 15 16  1  0  0  0  0
 16 17  2  0  0  0  0
 16 18  1  0  0  0  0
 18 19  1  0  0  0  0
 20 19  1  4  0  0  0
 20 21  2  0  0  0  0
 21 22  1  0  0  0  0
 23 21  1  4  0  0  0
 23 24  2  0  0  0  0
 25 24  1  4  0  0  0
 25 26  2  0  0  0  0
 26 27  1  0  0  0  0
 28 26  1  4  0  0  0
 28 29  2  0  0  0  0
 29 30  1  0  0  0  0
 30 31  2  0  0  0  0
 31 32  1  0  0  0  0
 31 33  1  0  0  0  0
 33 34  1  0  0  0  0
 34 35  1  0  0  0  0
 35 36  1  0  0  0  0
 30 36  1  0  0  0  0
 36 37  1  0  0  0  0
 36 38  1  0  0  0  0
  1 39  1  0  0  0  0
  1 40  1  0  0  0  0
  1 41  1  0  0  0  0
  2 42  1  0  0  0  0
  2 43  1  0  0  0  0
  3 44  1  0  0  0  0
  3 45  1  0  0  0  0
  4 46  1  0  0  0  0
  4 47  1  0  0  0  0
  5 48  1  0  0  0  0
  5 49  1  0  0  0  0
  6 50  1  0  0  0  0
  6 51  1  0  0  0  0
  7 52  1  0  0  0  0
  7 53  1  0  0  0  0
  8 54  1  0  0  0  0
  8 55  1  0  0  0  0
  9 56  1  0  0  0  0
  9 57  1  0  0  0  0
 10 58  1  0  0  0  0
 10 59  1  0  0  0  0
 11 60  1  0  0  0  0
 11 61  1  0  0  0  0
 12 62  1  0  0  0  0
 12 63  1  0  0  0  0
 13 64  1  0  0  0  0
 13 65  1  0  0  0  0
 14 66  1  0  0  0  0
 14 67  1  0  0  0  0
 15 68  1  0  0  0  0
 15 69  1  0  0  0  0
 19 70  1  0  0  0  0
 19 71  1  0  0  0  0
 20 72  1  0  0  0  0
 22 73  1  0  0  0  0
 22 74  1  0  0  0  0
 22 75  1  0  0  0  0
 23 76  1  0  0  0  0
 24 77  1  0  0  0  0
 25 78  1  0  0  0  0
 27 79  1  0  0  0  0
 27 80  1  0  0  0  0
 27 81  1  0  0  0  0
 28 82  1  0  0  0  0
 29 83  1  0  0  0  0
 32 84  1  0  0  0  0
 32 85  1  0  0  0  0
 32 86  1  0  0  0  0
 33 87  1  0  0  0  0
 33 88  1  0  0  0  0
 34 89  1  0  0  0  0
 34 90  1  0  0  0  0
 35 91  1  0  0  0  0
 35 92  1  0  0  0  0
 37 93  1  0  0  0  0
 37 94  1  0  0  0  0
 37 95  1  0  0  0  0
 38 96  1  0  0  0  0
 38 97  1  0  0  0  0
 38 98  1  0  0  0  0
M  END
>  <InChIKey>
InChI=1S/C36H60O2/c1-7-8-9-10-11-12-13-14-15-16-17-18-19-25-35(37)38-30-28-32(3)23-20-22-31(2)26-27-34-33(4)24-21-29-36(34,5)6/h20,22-23,26-28H,7-19,21,24-25,29-30H2,1-6H3

>  <CASRN>
79-81-2

> <Outcome>
0

>  <Index>
3121

>  <StandardizerResult>
Clear Stereo (ID: ClearStereo)
Wedge Clean (ID: WedgeClean)
Mesomerize (ID: Mesomerize)
Tautomerize (ID: Tautomerize)
Add Explicit Hydrogens (ID: AddExplicitH)
Neutralize (ID: Neutralize)
Clean 2D (ID: Clean2D)

> <knn Distance>
3.0

> <CpId>
3121

$$$$
3403
  Mrv1532301301811342D          

 13 12  0  0  0  0            999 V2000
    0.8250    1.4289    0.0000 C   0  0  0  0  0  0  0  0  0  0  0  0
    1.2375    0.7144    0.0000 O   0  0  0  0  0  0  0  0  0  0  0  0
    0.8250   -0.0000    0.0000 C   0  0  0  0  0  0  0  0  0  0  0  0
    1.2375   -0.7145    0.0000 C   0  0  0  0  0  0  0  0  0  0  0  0
   -0.0000   -0.0000    0.0000 C   0  0  0  0  0  0  0  0  0  0  0  0
    1.5395    1.8414    0.0000 H   0  0  0  0  0  0  0  0  0  0  0  0
    0.4125    2.1434    0.0000 H   0  0  0  0  0  0  0  0  0  0  0  0
    0.1105    1.0164    0.0000 H   0  0  0  0  0  0  0  0  0  0  0  0
    0.5230   -1.1270    0.0000 H   0  0  0  0  0  0  0  0  0  0  0  0
    1.6500   -1.4290    0.0000 H   0  0  0  0  0  0  0  0  0  0  0  0
    1.9520   -0.3020    0.0000 H   0  0  0  0  0  0  0  0  0  0  0  0
   -0.4125    0.7144    0.0000 H   0  0  0  0  0  0  0  0  0  0  0  0
   -0.4125   -0.7145    0.0000 H   0  0  0  0  0  0  0  0  0  0  0  0
  1  2  1  0  0  0  0
  2  3  1  0  0  0  0
  3  4  1  0  0  0  0
  3  5  2  0  0  0  0
  1  6  1  0  0  0  0
  1  7  1  0  0  0  0
  1  8  1  0  0  0  0
  4  9  1  0  0  0  0
  4 10  1  0  0  0  0
  4 11  1  0  0  0  0
  5 12  1  0  0  0  0
  5 13  1  0  0  0  0
M  END
>  <InChIKey>
InChI=1S/C4H8O/c1-4(2)5-3/h1H2,2-3H3

>  <CASRN>
116-11-0

> <Outcome>
0

>  <Index>
3403

>  <StandardizerResult>
Clear Stereo (ID: ClearStereo)
Wedge Clean (ID: WedgeClean)
Mesomerize (ID: Mesomerize)
Tautomerize (ID: Tautomerize)
Add Explicit Hydrogens (ID: AddExplicitH)
Neutralize (ID: Neutralize)
Clean 2D (ID: Clean2D)

> <knn Distance>
3.0

> <CpId>
3403

$$$$
3488
  Mrv1532301301811342D          

 12 11  0  0  0  0            999 V2000
    2.0625   -0.7145    0.0000 C   0  0  0  0  0  0  0  0  0  0  0  0
    1.2375   -0.7145    0.0000 N   0  0  0  0  0  0  0  0  0  0  0  0
    0.8250   -1.4289    0.0000 C   0  0  0  0  0  0  0  0  0  0  0  0
    0.8250    0.0000    0.0000 C   0  0  0  0  0  0  0  0  0  0  0  0
   -0.0000    0.0000    0.0000 O   0  0  0  0  0  0  0  0  0  0  0  0
    2.0625   -1.5395    0.0000 H   0  0  0  0  0  0  0  0  0  0  0  0
    2.8875   -0.7145    0.0000 H   0  0  0  0  0  0  0  0  0  0  0  0
    2.0625    0.1105    0.0000 H   0  0  0  0  0  0  0  0  0  0  0  0
    0.1105   -1.0164    0.0000 H   0  0  0  0  0  0  0  0  0  0  0  0
    0.4125   -2.1434    0.0000 H   0  0  0  0  0  0  0  0  0  0  0  0
    1.5395   -1.8414    0.0000 H   0  0  0  0  0  0  0  0  0  0  0  0
    1.2375    0.7145    0.0000 H   0  0  0  0  0  0  0  0  0  0  0  0
  1  2  1  0  0  0  0
  2  3  1  0  0  0  0
  2  4  1  0  0  0  0
  4  5  2  0  0  0  0
  1  6  1  0  0  0  0
  1  7  1  0  0  0  0
  1  8  1  0  0  0  0
  3  9  1  0  0  0  0
  3 10  1  0  0  0  0
  3 11  1  0  0  0  0
  4 12  1  0  0  0  0
M  END
>  <InChIKey>
InChI=1S/C3H7NO/c1-4(2)3-5/h3H,1-2H3

>  <CASRN>
68-12-2

> <Outcome>
0

>  <Index>
3488

>  <StandardizerResult>
Clear Stereo (ID: ClearStereo)
Wedge Clean (ID: WedgeClean)
Mesomerize (ID: Mesomerize)
Tautomerize (ID: Tautomerize)
Add Explicit Hydrogens (ID: AddExplicitH)
Neutralize (ID: Neutralize)
Clean 2D (ID: Clean2D)

> <knn Distance>
3.0

> <CpId>
3488

$$$$
13
  Mrv1532301301811342D          

 25 25  0  0  0  0            999 V2000
    0.0000   -2.4757    0.0000 C   0  0  0  0  0  0  0  0  0  0  0  0
    0.7145   -2.8882    0.0000 C   0  0  0  0  0  0  0  0  0  0  0  0
    0.7145   -3.7132    0.0000 C   0  0  0  0  0  0  0  0  0  0  0  0
    1.4289   -2.4757    0.0000 C   0  0  0  0  0  0  0  0  0  0  0  0
    1.4289   -1.6507    0.0000 O   0  0  0  0  0  0  0  0  0  0  0  0
    2.1434   -2.8882    0.0000 O   0  0  0  0  0  0  0  0  0  0  0  0
    2.8579   -2.4757    0.0000 C   0  0  0  0  0  0  0  0  0  0  0  0
    3.5724   -2.8882    0.0000 C   0  0  0  0  0  0  0  0  0  0  0  0
    4.2868   -2.4757    0.0000 C   0  0  0  0  0  0  0  0  0  0  0  0
    5.0013   -2.8882    0.0000 C   0  0  0  0  0  0  0  0  0  0  0  0
    5.0013   -3.7132    0.0000 C   0  0  0  0  0  0  0  0  0  0  0  0
    4.2868   -4.1257    0.0000 C   0  0  0  0  0  0  0  0  0  0  0  0
    3.5724   -3.7132    0.0000 C   0  0  0  0  0  0  0  0  0  0  0  0
    0.4125   -1.7612    0.0000 H   0  0  0  0  0  0  0  0  0  0  0  0
   -0.7145   -2.0632    0.0000 H   0  0  0  0  0  0  0  0  0  0  0  0
   -0.4125   -3.1902    0.0000 H   0  0  0  0  0  0  0  0  0  0  0  0
    0.0000   -4.1257    0.0000 H   0  0  0  0  0  0  0  0  0  0  0  0
    1.4289   -4.1257    0.0000 H   0  0  0  0  0  0  0  0  0  0  0  0
    3.2281   -1.7385    0.0000 H   0  0  0  0  0  0  0  0  0  0  0  0
    2.4876   -1.7385    0.0000 H   0  0  0  0  0  0  0  0  0  0  0  0
    4.2868   -1.6507    0.0000 H   0  0  0  0  0  0  0  0  0  0  0  0
    5.7158   -2.4757    0.0000 H   0  0  0  0  0  0  0  0  0  0  0  0
    5.7158   -4.1257    0.0000 H   0  0  0  0  0  0  0  0  0  0  0  0
    4.2868   -4.9507    0.0000 H   0  0  0  0  0  0  0  0  0  0  0  0
    2.8579   -4.1257    0.0000 H   0  0  0  0  0  0  0  0  0  0  0  0
  1  2  1  0  0  0  0
  2  3  2  0  0  0  0
  2  4  1  0  0  0  0
  4  5  2  0  0  0  0
  4  6  1  0  0  0  0
  6  7  1  0  0  0  0
  7  8  1  0  0  0  0
  8  9  4  0  0  0  0
  9 10  4  0  0  0  0
 10 11  4  0  0  0  0
 11 12  4  0  0  0  0
 12 13  4  0  0  0  0
  8 13  4  0  0  0  0
  1 14  1  0  0  0  0
  1 15  1  0  0  0  0
  1 16  1  0  0  0  0
  3 17  1  0  0  0  0
  3 18  1  0  0  0  0
  7 19  1  0  0  0  0
  7 20  1  0  0  0  0
  9 21  1  0  0  0  0
 10 22  1  0  0  0  0
 11 23  1  0  0  0  0
 12 24  1  0  0  0  0
 13 25  1  0  0  0  0
M  END
>  <InChIKey>
AOJOEFVRHOZDFN-UHFFFAOYSA-N

>  <UN GHS>
Non-irritant

>  <CASRN>
2495-37-6

> <Outcome>
0

>  <Index>
13

>  <StandardizerResult>
Dearomatize (ID: Dearomatize)
Clear Stereo (ID: ClearStereo)
Wedge Clean (ID: WedgeClean)
Mesomerize (ID: Mesomerize)
Tautomerize (ID: Tautomerize)
Aromatize (ID: Aromatize)
Add Explicit Hydrogens (ID: AddExplicitH)
Neutralize (ID: Neutralize)
Clean 2D (ID: Clean2D)

> <knn Distance>
3.16227769851685

> <CpId>
13

$$$$
40
  Mrv1532301301811342D          

 20 19  0  0  0  0            999 V2000
    2.7334    0.7093    0.0000 C   0  0  0  0  0  0  0  0  0  0  0  0
    2.0190    0.2968    0.0000 O   0  0  0  0  0  0  0  0  0  0  0  0
    1.3045    0.7093    0.0000 Si  0  0  0  0  0  0  0  0  0  0  0  0
    1.7170    1.4238    0.0000 C   0  0  0  0  0  0  0  0  0  0  0  0
    0.5900    1.1218    0.0000 O   0  0  0  0  0  0  0  0  0  0  0  0
   -0.1244    0.7093    0.0000 C   0  0  0  0  0  0  0  0  0  0  0  0
    0.8920   -0.0051    0.0000 O   0  0  0  0  0  0  0  0  0  0  0  0
    0.0670   -0.0051    0.0000 C   0  0  0  0  0  0  0  0  0  0  0  0
    3.1459   -0.0051    0.0000 H   0  0  0  0  0  0  0  0  0  0  0  0
    3.4479    1.1218    0.0000 H   0  0  0  0  0  0  0  0  0  0  0  0
    2.3209    1.4238    0.0000 H   0  0  0  0  0  0  0  0  0  0  0  0
    2.1295    2.1383    0.0000 H   0  0  0  0  0  0  0  0  0  0  0  0
    1.3045    2.1383    0.0000 H   0  0  0  0  0  0  0  0  0  0  0  0
    0.8920    1.4238    0.0000 H   0  0  0  0  0  0  0  0  0  0  0  0
   -0.1784    1.5326    0.0000 H   0  0  0  0  0  0  0  0  0  0  0  0
   -0.8866    1.0251    0.0000 H   0  0  0  0  0  0  0  0  0  0  0  0
   -0.7447    0.1654    0.0000 H   0  0  0  0  0  0  0  0  0  0  0  0
   -0.3107   -0.7386    0.0000 H   0  0  0  0  0  0  0  0  0  0  0  0
    0.2859   -0.8006    0.0000 H   0  0  0  0  0  0  0  0  0  0  0  0
    0.5692    0.6494    0.0000 H   0  0  0  0  0  0  0  0  0  0  0  0
  1  2  1  0  0  0  0
  2  3  1  0  0  0  0
  3  4  1  0  0  0  0
  3  5  1  0  0  0  0
  5  6  1  0  0  0  0
  3  7  1  0  0  0  0
  7  8  1  0  0  0  0
  1  9  1  0  0  0  0
  1 10  1  0  0  0  0
  1 11  1  0  0  0  0
  4 12  1  0  0  0  0
  4 13  1  0  0  0  0
  4 14  1  0  0  0  0
  6 15  1  0  0  0  0
  6 16  1  0  0  0  0
  6 17  1  0  0  0  0
  8 18  1  0  0  0  0
  8 19  1  0  0  0  0
  8 20  1  0  0  0  0
M  END
>  <InChIKey>
BFXIKLCIZHOAAZ-UHFFFAOYSA-N

>  <UN GHS>
Non-irritant

>  <CASRN>
1185-55-3

> <Outcome>
0

>  <Index>
40

>  <StandardizerResult>
Clear Stereo (ID: ClearStereo)
Wedge Clean (ID: WedgeClean)
Mesomerize (ID: Mesomerize)
Tautomerize (ID: Tautomerize)
Add Explicit Hydrogens (ID: AddExplicitH)
Neutralize (ID: Neutralize)
Clean 2D (ID: Clean2D)

> <knn Distance>
3.16227769851685

> <CpId>
40

$$$$
47
  Mrv1532301301811342D          

 66 66  0  0  0  0            999 V2000
   -2.1805   -5.3631    0.0000 C   0  0  0  0  0  0  0  0  0  0  0  0
   -1.4660   -4.9506    0.0000 C   0  0  0  0  0  0  0  0  0  0  0  0
   -1.4660   -4.1256    0.0000 C   0  0  0  0  0  0  0  0  0  0  0  0
   -0.7515   -3.7131    0.0000 C   0  0  0  0  0  0  0  0  0  0  0  0
   -0.7515   -2.8881    0.0000 C   0  0  0  0  0  0  0  0  0  0  0  0
   -1.4660   -2.4756    0.0000 C   0  0  0  0  0  0  0  0  0  0  0  0
   -1.4660   -1.6506    0.0000 C   0  0  0  0  0  0  0  0  0  0  0  0
   -0.0371   -2.4756    0.0000 C   0  0  0  0  0  0  0  0  0  0  0  0
   -0.0371   -1.6506    0.0000 O   0  0  0  0  0  0  0  0  0  0  0  0
    0.6774   -1.2381    0.0000 C   0  0  0  0  0  0  0  0  0  0  0  0
    1.3919   -1.6506    0.0000 O   0  0  0  0  0  0  0  0  0  0  0  0
    0.6774   -0.4131    0.0000 C   0  0  0  0  0  0  0  0  0  0  0  0
   -0.0371   -0.0006    0.0000 C   0  0  0  0  0  0  0  0  0  0  0  0
   -0.0371    0.8244    0.0000 C   0  0  0  0  0  0  0  0  0  0  0  0
    0.6774    1.2369    0.0000 C   0  0  0  0  0  0  0  0  0  0  0  0
    1.3919    0.8244    0.0000 C   0  0  0  0  0  0  0  0  0  0  0  0
    1.3919   -0.0006    0.0000 C   0  0  0  0  0  0  0  0  0  0  0  0
    2.1064   -0.4131    0.0000 C   0  0  0  0  0  0  0  0  0  0  0  0
    2.1064   -1.2381    0.0000 O   0  0  0  0  0  0  0  0  0  0  0  0
    2.8208   -0.0006    0.0000 O   0  0  0  0  0  0  0  0  0  0  0  0
    3.5353   -0.4131    0.0000 C   0  0  0  0  0  0  0  0  0  0  0  0
    4.2498   -0.0006    0.0000 C   0  0  0  0  0  0  0  0  0  0  0  0
    4.2498    0.8244    0.0000 C   0  0  0  0  0  0  0  0  0  0  0  0
    4.9642    1.2369    0.0000 C   0  0  0  0  0  0  0  0  0  0  0  0
    4.9642   -0.4131    0.0000 C   0  0  0  0  0  0  0  0  0  0  0  0
    5.6787   -0.0006    0.0000 C   0  0  0  0  0  0  0  0  0  0  0  0
    6.3932   -0.4131    0.0000 C   0  0  0  0  0  0  0  0  0  0  0  0
    7.1077   -0.0006    0.0000 C   0  0  0  0  0  0  0  0  0  0  0  0
   -2.5930   -4.6487    0.0000 H   0  0  0  0  0  0  0  0  0  0  0  0
   -2.8949   -5.7756    0.0000 H   0  0  0  0  0  0  0  0  0  0  0  0
   -1.7680   -6.0776    0.0000 H   0  0  0  0  0  0  0  0  0  0  0  0
   -1.0127   -5.6399    0.0000 H   0  0  0  0  0  0  0  0  0  0  0  0
   -0.6424   -4.9986    0.0000 H   0  0  0  0  0  0  0  0  0  0  0  0
   -1.9193   -3.4364    0.0000 H   0  0  0  0  0  0  0  0  0  0  0  0
   -2.2896   -4.0777    0.0000 H   0  0  0  0  0  0  0  0  0  0  0  0
   -0.2982   -4.4024    0.0000 H   0  0  0  0  0  0  0  0  0  0  0  0
    0.0721   -3.7611    0.0000 H   0  0  0  0  0  0  0  0  0  0  0  0
   -1.4660   -3.3006    0.0000 H   0  0  0  0  0  0  0  0  0  0  0  0
   -2.2412   -2.1935    0.0000 H   0  0  0  0  0  0  0  0  0  0  0  0
   -2.2412   -2.7578    0.0000 H   0  0  0  0  0  0  0  0  0  0  0  0
   -0.6646   -1.8467    0.0000 H   0  0  0  0  0  0  0  0  0  0  0  0
   -1.0851   -0.9189    0.0000 H   0  0  0  0  0  0  0  0  0  0  0  0
   -2.0863   -1.1067    0.0000 H   0  0  0  0  0  0  0  0  0  0  0  0
    0.4163   -3.1649    0.0000 H   0  0  0  0  0  0  0  0  0  0  0  0
    0.7866   -2.5236    0.0000 H   0  0  0  0  0  0  0  0  0  0  0  0
   -0.7515   -0.4131    0.0000 H   0  0  0  0  0  0  0  0  0  0  0  0
   -0.7515    1.2369    0.0000 H   0  0  0  0  0  0  0  0  0  0  0  0
    0.6774    2.0619    0.0000 H   0  0  0  0  0  0  0  0  0  0  0  0
    2.1064    1.2369    0.0000 H   0  0  0  0  0  0  0  0  0  0  0  0
    3.1650   -1.1504    0.0000 H   0  0  0  0  0  0  0  0  0  0  0  0
    3.9056   -1.1504    0.0000 H   0  0  0  0  0  0  0  0  0  0  0  0
    3.5353    0.4119    0.0000 H   0  0  0  0  0  0  0  0  0  0  0  0
    4.1065    1.6368    0.0000 H   0  0  0  0  0  0  0  0  0  0  0  0
    3.6178    1.3547    0.0000 H   0  0  0  0  0  0  0  0  0  0  0  0
    5.1951    0.4448    0.0000 H   0  0  0  0  0  0  0  0  0  0  0  0
    5.7885    1.2728    0.0000 H   0  0  0  0  0  0  0  0  0  0  0  0
    5.1252    2.0460    0.0000 H   0  0  0  0  0  0  0  0  0  0  0  0
    4.5940   -1.1504    0.0000 H   0  0  0  0  0  0  0  0  0  0  0  0
    5.3345   -1.1504    0.0000 H   0  0  0  0  0  0  0  0  0  0  0  0
    6.1674    0.6640    0.0000 H   0  0  0  0  0  0  0  0  0  0  0  0
    5.6787   -0.8256    0.0000 H   0  0  0  0  0  0  0  0  0  0  0  0
    6.5364   -1.2256    0.0000 H   0  0  0  0  0  0  0  0  0  0  0  0
    7.0252   -0.9434    0.0000 H   0  0  0  0  0  0  0  0  0  0  0  0
    7.8889   -0.2658    0.0000 H   0  0  0  0  0  0  0  0  0  0  0  0
    7.5509    0.6952    0.0000 H   0  0  0  0  0  0  0  0  0  0  0  0
    6.5372    0.5953    0.0000 H   0  0  0  0  0  0  0  0  0  0  0  0
  1  2  1  0  0  0  0
  2  3  1  0  0  0  0
  3  4  1  0  0  0  0
  4  5  1  0  0  0  0
  5  6  1  0  0  0  0
  6  7  1  0  0  0  0
  5  8  1  0  0  0  0
  8  9  1  0  0  0  0
  9 10  1  0  0  0  0
 10 11  2  0  0  0  0
 10 12  1  0  0  0  0
 12 13  4  0  0  0  0
 13 14  4  0  0  0  0
 14 15  4  0  0  0  0
 15 16  4  0  0  0  0
 16 17  4  0  0  0  0
 12 17  4  0  0  0  0
 17 18  1  0  0  0  0
 18 19  2  0  0  0  0
 18 20  1  0  0  0  0
 20 21  1  0  0  0  0
 21 22  1  0  0  0  0
 22 23  1  0  0  0  0
 23 24  1  0  0  0  0
 22 25  1  0  0  0  0
 25 26  1  0  0  0  0
 26 27  1  0  0  0  0
 27 28  1  0  0  0  0
  1 29  1  0  0  0  0
  1 30  1  0  0  0  0
  1 31  1  0  0  0  0
  2 32  1  0  0  0  0
  2 33  1  0  0  0  0
  3 34  1  0  0  0  0
  3 35  1  0  0  0  0
  4 36  1  0  0  0  0
  4 37  1  0  0  0  0
  5 38  1  0  0  0  0
  6 39  1  0  0  0  0
  6 40  1  0  0  0  0
  7 41  1  0  0  0  0
  7 42  1  0  0  0  0
  7 43  1  0  0  0  0
  8 44  1  0  0  0  0
  8 45  1  0  0  0  0
 13 46  1  0  0  0  0
 14 47  1  0  0  0  0
 15 48  1  0  0  0  0
 16 49  1  0  0  0  0
 21 50  1  0  0  0  0
 21 51  1  0  0  0  0
 22 52  1  0  0  0  0
 23 53  1  0  0  0  0
 23 54  1  0  0  0  0
 24 55  1  0  0  0  0
 24 56  1  0  0  0  0
 24 57  1  0  0  0  0
 25 58  1  0  0  0  0
 25 59  1  0  0  0  0
 26 60  1  0  0  0  0
 26 61  1  0  0  0  0
 27 62  1  0  0  0  0
 27 63  1  0  0  0  0
 28 64  1  0  0  0  0
 28 65  1  0  0  0  0
 28 66  1  0  0  0  0
M  END
>  <InChIKey>
BJQHLKABXJIVAM-UHFFFAOYSA-N

>  <UN GHS>
Non-irritant

>  <CASRN>
117-81-7

> <Outcome>
0

>  <Index>
47

>  <StandardizerResult>
Dearomatize (ID: Dearomatize)
Clear Stereo (ID: ClearStereo)
Wedge Clean (ID: WedgeClean)
Mesomerize (ID: Mesomerize)
Tautomerize (ID: Tautomerize)
Aromatize (ID: Aromatize)
Add Explicit Hydrogens (ID: AddExplicitH)
Neutralize (ID: Neutralize)
Clean 2D (ID: Clean2D)

> <knn Distance>
3.16227769851685

> <CpId>
47

$$$$
54
  Mrv1532301301811342D          

 33 32  0  0  0  0            999 V2000
    2.8780    1.8338    0.0000 C   0  0  0  0  0  0  0  0  0  0  0  0
    2.1635    1.4213    0.0000 C   0  0  0  0  0  0  0  0  0  0  0  0
    1.4490    1.8338    0.0000 O   0  0  0  0  0  0  0  0  0  0  0  0
    0.7345    1.4213    0.0000 Si  0  0  0  0  0  0  0  0  0  0  0  0
    0.0201    1.0088    0.0000 O   0  0  0  0  0  0  0  0  0  0  0  0
   -0.6944    1.4213    0.0000 C   0  0  0  0  0  0  0  0  0  0  0  0
   -1.4089    1.0088    0.0000 C   0  0  0  0  0  0  0  0  0  0  0  0
    0.3220    2.1358    0.0000 O   0  0  0  0  0  0  0  0  0  0  0  0
   -0.5030    2.1358    0.0000 C   0  0  0  0  0  0  0  0  0  0  0  0
   -0.9155    2.8502    0.0000 C   0  0  0  0  0  0  0  0  0  0  0  0
    1.1470    0.7068    0.0000 O   0  0  0  0  0  0  0  0  0  0  0  0
    0.7345   -0.0077    0.0000 C   0  0  0  0  0  0  0  0  0  0  0  0
   -0.0905   -0.0077    0.0000 C   0  0  0  0  0  0  0  0  0  0  0  0
    3.2905    1.1193    0.0000 H   0  0  0  0  0  0  0  0  0  0  0  0
    3.5924    2.2463    0.0000 H   0  0  0  0  0  0  0  0  0  0  0  0
    2.4655    2.5483    0.0000 H   0  0  0  0  0  0  0  0  0  0  0  0
    1.7932    0.6840    0.0000 H   0  0  0  0  0  0  0  0  0  0  0  0
    2.5337    0.6840    0.0000 H   0  0  0  0  0  0  0  0  0  0  0  0
   -1.3489    1.9235    0.0000 H   0  0  0  0  0  0  0  0  0  0  0  0
    0.0678    1.7370    0.0000 H   0  0  0  0  0  0  0  0  0  0  0  0
   -2.1943    1.2612    0.0000 H   0  0  0  0  0  0  0  0  0  0  0  0
   -1.8445    0.3082    0.0000 H   0  0  0  0  0  0  0  0  0  0  0  0
   -0.8351    0.4160    0.0000 H   0  0  0  0  0  0  0  0  0  0  0  0
    0.1290    2.6661    0.0000 H   0  0  0  0  0  0  0  0  0  0  0  0
   -0.3597    2.9482    0.0000 H   0  0  0  0  0  0  0  0  0  0  0  0
   -0.8078    3.6682    0.0000 H   0  0  0  0  0  0  0  0  0  0  0  0
   -1.6632    3.1989    0.0000 H   0  0  0  0  0  0  0  0  0  0  0  0
   -1.4728    2.2420    0.0000 H   0  0  0  0  0  0  0  0  0  0  0  0
    0.7825   -0.8313    0.0000 H   0  0  0  0  0  0  0  0  0  0  0  0
    1.4238   -0.4610    0.0000 H   0  0  0  0  0  0  0  0  0  0  0  0
   -0.5996   -0.6568    0.0000 H   0  0  0  0  0  0  0  0  0  0  0  0
    0.0311   -0.8236    0.0000 H   0  0  0  0  0  0  0  0  0  0  0  0
    0.1205    0.7899    0.0000 H   0  0  0  0  0  0  0  0  0  0  0  0
  1  2  1  0  0  0  0
  2  3  1  0  0  0  0
  3  4  1  0  0  0  0
  4  5  1  0  0  0  0
  5  6  1  0  0  0  0
  6  7  1  0  0  0  0
  4  8  1  0  0  0  0
  8  9  1  0  0  0  0
  9 10  1  0  0  0  0
  4 11  1  0  0  0  0
 11 12  1  0  0  0  0
 12 13  1  0  0  0  0
  1 14  1  0  0  0  0
  1 15  1  0  0  0  0
  1 16  1  0  0  0  0
  2 17  1  0  0  0  0
  2 18  1  0  0  0  0
  6 19  1  0  0  0  0
  6 20  1  0  0  0  0
  7 21  1  0  0  0  0
  7 22  1  0  0  0  0
  7 23  1  0  0  0  0
  9 24  1  0  0  0  0
  9 25  1  0  0  0  0
 10 26  1  0  0  0  0
 10 27  1  0  0  0  0
 10 28  1  0  0  0  0
 12 29  1  0  0  0  0
 12 30  1  0  0  0  0
 13 31  1  0  0  0  0
 13 32  1  0  0  0  0
 13 33  1  0  0  0  0
M  END
>  <InChIKey>
BOTDANWDWHJENH-UHFFFAOYSA-N

>  <UN GHS>
Non-irritant

>  <CASRN>
78-10-4

> <Outcome>
0

>  <Index>
54

>  <StandardizerResult>
Clear Stereo (ID: ClearStereo)
Wedge Clean (ID: WedgeClean)
Mesomerize (ID: Mesomerize)
Tautomerize (ID: Tautomerize)
Add Explicit Hydrogens (ID: AddExplicitH)
Neutralize (ID: Neutralize)
Clean 2D (ID: Clean2D)

> <knn Distance>
3.16227769851685

> <CpId>
54

$$$$
93
  Mrv1532301301811342D          

 30 30  0  0  0  0            999 V2000
    0.0601    2.5041    0.0000 C   0  0  0  0  0  0  0  0  0  0  0  0
    0.7745    2.0916    0.0000 C   0  0  0  0  0  0  0  0  0  0  0  0
    1.4890    2.5041    0.0000 C   0  0  0  0  0  0  0  0  0  0  0  0
    0.7745    1.2666    0.0000 C   0  0  0  0  0  0  0  0  0  0  0  0
    1.4890    0.8541    0.0000 C   0  0  0  0  0  0  0  0  0  0  0  0
    1.4890    0.0291    0.0000 C   0  0  0  0  0  0  0  0  0  0  0  0
    0.7745   -0.3834    0.0000 C   0  0  0  0  0  0  0  0  0  0  0  0
    0.7745   -1.2084    0.0000 C   0  0  0  0  0  0  0  0  0  0  0  0
    0.0601    0.0291    0.0000 C   0  0  0  0  0  0  0  0  0  0  0  0
    0.0601    0.8541    0.0000 C   0  0  0  0  0  0  0  0  0  0  0  0
    0.4726    3.2185    0.0000 H   0  0  0  0  0  0  0  0  0  0  0  0
   -0.6544    2.9166    0.0000 H   0  0  0  0  0  0  0  0  0  0  0  0
   -0.3524    1.7896    0.0000 H   0  0  0  0  0  0  0  0  0  0  0  0
    0.7745    2.9166    0.0000 H   0  0  0  0  0  0  0  0  0  0  0  0
    1.7025    1.7072    0.0000 H   0  0  0  0  0  0  0  0  0  0  0  0
    2.3140    2.5041    0.0000 H   0  0  0  0  0  0  0  0  0  0  0  0
    1.7025    3.3009    0.0000 H   0  0  0  0  0  0  0  0  0  0  0  0
    0.0601    1.6791    0.0000 H   0  0  0  0  0  0  0  0  0  0  0  0
    2.3078    0.7531    0.0000 H   0  0  0  0  0  0  0  0  0  0  0  0
    0.7745    0.4416    0.0000 H   0  0  0  0  0  0  0  0  0  0  0  0
    1.9424   -0.6602    0.0000 H   0  0  0  0  0  0  0  0  0  0  0  0
    2.3126   -0.0189    0.0000 H   0  0  0  0  0  0  0  0  0  0  0  0
    0.0601   -0.7959    0.0000 H   0  0  0  0  0  0  0  0  0  0  0  0
    0.1912   -1.7918    0.0000 H   0  0  0  0  0  0  0  0  0  0  0  0
    1.1870   -1.9229    0.0000 H   0  0  0  0  0  0  0  0  0  0  0  0
    1.5714   -0.9949    0.0000 H   0  0  0  0  0  0  0  0  0  0  0  0
   -0.7152    0.3112    0.0000 H   0  0  0  0  0  0  0  0  0  0  0  0
   -0.7152   -0.2531    0.0000 H   0  0  0  0  0  0  0  0  0  0  0  0
   -0.4884    1.4704    0.0000 H   0  0  0  0  0  0  0  0  0  0  0  0
   -0.7593    0.9498    0.0000 H   0  0  0  0  0  0  0  0  0  0  0  0
  1  2  1  0  0  0  0
  2  3  1  0  0  0  0
  2  4  1  0  0  0  0
  4  5  1  0  0  0  0
  5  6  1  0  0  0  0
  6  7  1  0  0  0  0
  7  8  1  0  0  0  0
  7  9  1  0  0  0  0
  9 10  1  0  0  0  0
  4 10  1  0  0  0  0
  1 11  1  0  0  0  0
  1 12  1  0  0  0  0
  1 13  1  0  0  0  0
  2 14  1  0  0  0  0
  3 15  1  0  0  0  0
  3 16  1  0  0  0  0
  3 17  1  0  0  0  0
  4 18  1  0  0  0  0
  5 19  1  0  0  0  0
  5 20  1  0  0  0  0
  6 21  1  0  0  0  0
  6 22  1  0  0  0  0
  7 23  1  0  0  0  0
  8 24  1  0  0  0  0
  8 25  1  0  0  0  0
  8 26  1  0  0  0  0
  9 27  1  0  0  0  0
  9 28  1  0  0  0  0
 10 29  1  0  0  0  0
 10 30  1  0  0  0  0
M  END
>  <InChIKey>
CFJYNSNXFXLKNS-UHFFFAOYSA-N

>  <UN GHS>
Non-irritant

>  <CASRN>
99-82-1

> <Outcome>
0

>  <Index>
93

>  <StandardizerResult>
Clear Stereo (ID: ClearStereo)
Wedge Clean (ID: WedgeClean)
Mesomerize (ID: Mesomerize)
Tautomerize (ID: Tautomerize)
Add Explicit Hydrogens (ID: AddExplicitH)
Neutralize (ID: Neutralize)
Clean 2D (ID: Clean2D)

> <knn Distance>
3.16227769851685

> <CpId>
93

$$$$
97
  Mrv1532301301811342D          

 47 51  0  0  0  0            999 V2000
   -0.2715    4.0408    0.0000 N   0  0  0  0  0  0  0  0  0  0  0  0
    0.2806    3.4278    0.0000 C   0  0  0  0  0  0  0  0  0  0  0  0
    1.0875    3.5993    0.0000 C   0  0  0  0  0  0  0  0  0  0  0  0
    1.6396    2.9862    0.0000 C   0  0  0  0  0  0  0  0  0  0  0  0
    1.3846    2.2016    0.0000 C   0  0  0  0  0  0  0  0  0  0  0  0
    0.5777    2.0300    0.0000 C   0  0  0  0  0  0  0  0  0  0  0  0
    0.0256    2.6431    0.0000 C   0  0  0  0  0  0  0  0  0  0  0  0
   -0.7814    2.4716    0.0000 Cl  0  0  0  0  0  0  0  0  0  0  0  0
    1.9367    1.5885    0.0000 C   0  0  0  0  0  0  0  0  0  0  0  0
    2.6041    1.1035    0.0000 C   0  0  0  0  0  0  0  0  0  0  0  0
    3.4111    1.2751    0.0000 C   0  0  0  0  0  0  0  0  0  0  0  0
    3.9631    0.6620    0.0000 C   0  0  0  0  0  0  0  0  0  0  0  0
    3.7082   -0.1226    0.0000 C   0  0  0  0  0  0  0  0  0  0  0  0
    2.9012   -0.2942    0.0000 C   0  0  0  0  0  0  0  0  0  0  0  0
    2.3492    0.3189    0.0000 C   0  0  0  0  0  0  0  0  0  0  0  0
    1.5242    0.3189    0.0000 C   0  0  0  0  0  0  0  0  0  0  0  0
    0.9721   -0.2942    0.0000 C   0  0  0  0  0  0  0  0  0  0  0  0
    0.1652   -0.1226    0.0000 C   0  0  0  0  0  0  0  0  0  0  0  0
   -0.0898    0.6620    0.0000 C   0  0  0  0  0  0  0  0  0  0  0  0
    0.4622    1.2751    0.0000 C   0  0  0  0  0  0  0  0  0  0  0  0
    1.2692    1.1035    0.0000 C   0  0  0  0  0  0  0  0  0  0  0  0
    2.4887    2.2016    0.0000 C   0  0  0  0  0  0  0  0  0  0  0  0
    2.2337    2.9862    0.0000 C   0  0  0  0  0  0  0  0  0  0  0  0
    2.7858    3.5993    0.0000 C   0  0  0  0  0  0  0  0  0  0  0  0
    3.5928    3.4278    0.0000 C   0  0  0  0  0  0  0  0  0  0  0  0
    4.1448    4.0408    0.0000 N   0  0  0  0  0  0  0  0  0  0  0  0
    3.8477    2.6431    0.0000 C   0  0  0  0  0  0  0  0  0  0  0  0
    4.6547    2.4716    0.0000 Cl  0  0  0  0  0  0  0  0  0  0  0  0
    3.2957    2.0300    0.0000 C   0  0  0  0  0  0  0  0  0  0  0  0
   -0.0165    4.8255    0.0000 H   0  0  0  0  0  0  0  0  0  0  0  0
   -1.0784    3.8693    0.0000 H   0  0  0  0  0  0  0  0  0  0  0  0
    1.3425    4.3839    0.0000 H   0  0  0  0  0  0  0  0  0  0  0  0
    1.9751    3.7399    0.0000 H   0  0  0  0  0  0  0  0  0  0  0  0
   -0.2127    1.7936    0.0000 H   0  0  0  0  0  0  0  0  0  0  0  0
    4.1567    1.6282    0.0000 H   0  0  0  0  0  0  0  0  0  0  0  0
    4.7701    0.8335    0.0000 H   0  0  0  0  0  0  0  0  0  0  0  0
    4.2602   -0.7357    0.0000 H   0  0  0  0  0  0  0  0  0  0  0  0
    2.6462   -1.0788    0.0000 H   0  0  0  0  0  0  0  0  0  0  0  0
    1.2271   -1.0788    0.0000 H   0  0  0  0  0  0  0  0  0  0  0  0
   -0.3869   -0.7357    0.0000 H   0  0  0  0  0  0  0  0  0  0  0  0
   -0.8968    0.8335    0.0000 H   0  0  0  0  0  0  0  0  0  0  0  0
    0.7172    0.4905    0.0000 H   0  0  0  0  0  0  0  0  0  0  0  0
    1.7488    2.3187    0.0000 H   0  0  0  0  0  0  0  0  0  0  0  0
    2.9421    4.4093    0.0000 H   0  0  0  0  0  0  0  0  0  0  0  0
    4.9518    3.8693    0.0000 H   0  0  0  0  0  0  0  0  0  0  0  0
    3.8898    4.8255    0.0000 H   0  0  0  0  0  0  0  0  0  0  0  0
    2.6957    1.4638    0.0000 H   0  0  0  0  0  0  0  0  0  0  0  0
  1  2  1  0  0  0  0
  2  3  4  0  0  0  0
  3  4  4  0  0  0  0
  4  5  4  0  0  0  0
  5  6  4  0  0  0  0
  6  7  4  0  0  0  0
  2  7  4  0  0  0  0
  7  8  1  0  0  0  0
  5  9  1  0  0  0  0
  9 10  1  0  0  0  0
 10 11  4  0  0  0  0
 11 12  4  0  0  0  0
 12 13  4  0  0  0  0
 13 14  4  0  0  0  0
 14 15  4  0  0  0  0
 10 15  4  0  0  0  0
 15 16  1  0  0  0  0
 16 17  4  0  0  0  0
 17 18  4  0  0  0  0
 18 19  4  0  0  0  0
 19 20  4  0  0  0  0
 20 21  4  0  0  0  0
  9 21  1  0  0  0  0
 16 21  4  0  0  0  0
  9 22  1  0  0  0  0
 22 23  4  0  0  0  0
 23 24  4  0  0  0  0
 24 25  4  0  0  0  0
 25 26  1  0  0  0  0
 25 27  4  0  0  0  0
 27 28  1  0  0  0  0
 27 29  4  0  0  0  0
 22 29  4  0  0  0  0
  1 30  1  0  0  0  0
  1 31  1  0  0  0  0
  3 32  1  0  0  0  0
  4 33  1  0  0  0  0
  6 34  1  0  0  0  0
 11 35  1  0  0  0  0
 12 36  1  0  0  0  0
 13 37  1  0  0  0  0
 14 38  1  0  0  0  0
 17 39  1  0  0  0  0
 18 40  1  0  0  0  0
 19 41  1  0  0  0  0
 20 42  1  0  0  0  0
 23 43  1  0  0  0  0
 24 44  1  0  0  0  0
 26 45  1  0  0  0  0
 26 46  1  0  0  0  0
 29 47  1  0  0  0  0
M  END
>  <InChIKey>
CIZUMWWHWPJAAK-UHFFFAOYSA-N

>  <UN GHS>
Non-irritant

>  <CASRN>
107934-68-9

> <Outcome>
0

>  <Index>
97

>  <StandardizerResult>
Dearomatize (ID: Dearomatize)
Clear Stereo (ID: ClearStereo)
Wedge Clean (ID: WedgeClean)
Mesomerize (ID: Mesomerize)
Tautomerize (ID: Tautomerize)
Aromatize (ID: Aromatize)
Add Explicit Hydrogens (ID: AddExplicitH)
Neutralize (ID: Neutralize)
Clean 2D (ID: Clean2D)

> <knn Distance>
3.16227769851685

> <CpId>
97

$$$$
127
  Mrv1532301301811342D          

 39 38  0  0  0  0            999 V2000
    0.4259    5.0955    0.0000 C   0  0  0  0  0  0  0  0  0  0  0  0
    0.8384    4.3810    0.0000 C   0  0  0  0  0  0  0  0  0  0  0  0
    1.6634    4.3810    0.0000 C   0  0  0  0  0  0  0  0  0  0  0  0
    0.4259    3.6666    0.0000 C   0  0  0  0  0  0  0  0  0  0  0  0
   -0.3991    3.6666    0.0000 O   0  0  0  0  0  0  0  0  0  0  0  0
    0.8384    2.9521    0.0000 C   0  0  0  0  0  0  0  0  0  0  0  0
    0.1239    2.5396    0.0000 C   0  0  0  0  0  0  0  0  0  0  0  0
    1.5528    3.3646    0.0000 C   0  0  0  0  0  0  0  0  0  0  0  0
    1.2509    2.2376    0.0000 C   0  0  0  0  0  0  0  0  0  0  0  0
    0.8384    1.5232    0.0000 O   0  0  0  0  0  0  0  0  0  0  0  0
    1.2509    0.8087    0.0000 C   0  0  0  0  0  0  0  0  0  0  0  0
    2.0759    0.8087    0.0000 O   0  0  0  0  0  0  0  0  0  0  0  0
    0.8384    0.0942    0.0000 C   0  0  0  0  0  0  0  0  0  0  0  0
    1.2509   -0.6203    0.0000 C   0  0  0  0  0  0  0  0  0  0  0  0
    0.0134    0.0942    0.0000 C   0  0  0  0  0  0  0  0  0  0  0  0
    1.1403    5.5080    0.0000 H   0  0  0  0  0  0  0  0  0  0  0  0
    0.0134    5.8100    0.0000 H   0  0  0  0  0  0  0  0  0  0  0  0
   -0.2886    4.6830    0.0000 H   0  0  0  0  0  0  0  0  0  0  0  0
    1.2509    5.0955    0.0000 H   0  0  0  0  0  0  0  0  0  0  0  0
    1.4498    3.5841    0.0000 H   0  0  0  0  0  0  0  0  0  0  0  0
    2.3778    3.9685    0.0000 H   0  0  0  0  0  0  0  0  0  0  0  0
    2.2467    4.9644    0.0000 H   0  0  0  0  0  0  0  0  0  0  0  0
    0.0134    4.3810    0.0000 H   0  0  0  0  0  0  0  0  0  0  0  0
   -1.1136    3.2541    0.0000 H   0  0  0  0  0  0  0  0  0  0  0  0
   -0.2886    3.2541    0.0000 H   0  0  0  0  0  0  0  0  0  0  0  0
   -0.5906    2.1271    0.0000 H   0  0  0  0  0  0  0  0  0  0  0  0
    0.5364    1.8251    0.0000 H   0  0  0  0  0  0  0  0  0  0  0  0
    1.6431    2.5445    0.0000 H   0  0  0  0  0  0  0  0  0  0  0  0
    2.3399    3.1174    0.0000 H   0  0  0  0  0  0  0  0  0  0  0  0
    2.0957    3.9858    0.0000 H   0  0  0  0  0  0  0  0  0  0  0  0
    1.5690    1.4764    0.0000 H   0  0  0  0  0  0  0  0  0  0  0  0
    2.0491    2.0291    0.0000 H   0  0  0  0  0  0  0  0  0  0  0  0
    1.6634    0.0942    0.0000 H   0  0  0  0  0  0  0  0  0  0  0  0
    0.4540   -0.8338    0.0000 H   0  0  0  0  0  0  0  0  0  0  0  0
    1.2509   -1.4453    0.0000 H   0  0  0  0  0  0  0  0  0  0  0  0
    2.0478   -0.8338    0.0000 H   0  0  0  0  0  0  0  0  0  0  0  0
    0.0134    0.9192    0.0000 H   0  0  0  0  0  0  0  0  0  0  0  0
   -0.8116    0.0942    0.0000 H   0  0  0  0  0  0  0  0  0  0  0  0
    0.0134   -0.7308    0.0000 H   0  0  0  0  0  0  0  0  0  0  0  0
  1  2  1  0  0  0  0
  2  3  1  0  0  0  0
  2  4  1  0  0  0  0
  4  5  1  0  0  0  0
  4  6  1  0  0  0  0
  6  7  1  0  0  0  0
  6  8  1  0  0  0  0
  6  9  1  0  0  0  0
  9 10  1  0  0  0  0
 10 11  1  0  0  0  0
 11 12  2  0  0  0  0
 11 13  1  0  0  0  0
 13 14  1  0  0  0  0
 13 15  1  0  0  0  0
  1 16  1  0  0  0  0
  1 17  1  0  0  0  0
  1 18  1  0  0  0  0
  2 19  1  0  0  0  0
  3 20  1  0  0  0  0
  3 21  1  0  0  0  0
  3 22  1  0  0  0  0
  4 23  1  0  0  0  0
  5 24  1  0  0  0  0
  7 25  1  0  0  0  0
  7 26  1  0  0  0  0
  7 27  1  0  0  0  0
  8 28  1  0  0  0  0
  8 29  1  0  0  0  0
  8 30  1  0  0  0  0
  9 31  1  0  0  0  0
  9 32  1  0  0  0  0
 13 33  1  0  0  0  0
 14 34  1  0  0  0  0
 14 35  1  0  0  0  0
 14 36  1  0  0  0  0
 15 37  1  0  0  0  0
 15 38  1  0  0  0  0
 15 39  1  0  0  0  0
M  END
>  <InChIKey>
DAFHKNAQFPVRKR-UHFFFAOYSA-N

>  <UN GHS>
Non-irritant

>  <CASRN>
25265-77-4

> <Outcome>
0

>  <Index>
127

>  <StandardizerResult>
Clear Stereo (ID: ClearStereo)
Wedge Clean (ID: WedgeClean)
Mesomerize (ID: Mesomerize)
Tautomerize (ID: Tautomerize)
Add Explicit Hydrogens (ID: AddExplicitH)
Neutralize (ID: Neutralize)
Clean 2D (ID: Clean2D)

> <knn Distance>
3.16227769851685

> <CpId>
127

$$$$
143
  Mrv1532301301811342D          

 12 11  0  0  0  0            999 V2000
    2.0625    0.7145    0.0000 O   0  0  0  0  0  0  0  0  0  0  0  0
    1.6500    0.0000    0.0000 C   0  0  0  0  0  0  0  0  0  0  0  0
    0.8250    0.0000    0.0000 C   0  0  0  0  0  0  0  0  0  0  0  0
    0.0000    0.0000    0.0000 C   0  0  0  0  0  0  0  0  0  0  0  0
   -0.8250    0.0000    0.0000 C   0  0  0  0  0  0  0  0  0  0  0  0
   -1.2375   -0.7145    0.0000 O   0  0  0  0  0  0  0  0  0  0  0  0
    2.8875    0.7145    0.0000 H   0  0  0  0  0  0  0  0  0  0  0  0
    1.6980   -0.8236    0.0000 H   0  0  0  0  0  0  0  0  0  0  0  0
    2.3393   -0.4533    0.0000 H   0  0  0  0  0  0  0  0  0  0  0  0
   -0.8730    0.8236    0.0000 H   0  0  0  0  0  0  0  0  0  0  0  0
   -1.5143    0.4533    0.0000 H   0  0  0  0  0  0  0  0  0  0  0  0
   -2.0625   -0.7145    0.0000 H   0  0  0  0  0  0  0  0  0  0  0  0
  1  2  1  0  0  0  0
  2  3  1  0  0  0  0
  3  4  3  0  0  0  0
  4  5  1  0  0  0  0
  5  6  1  0  0  0  0
  1  7  1  0  0  0  0
  2  8  1  0  0  0  0
  2  9  1  0  0  0  0
  5 10  1  0  0  0  0
  5 11  1  0  0  0  0
  6 12  1  0  0  0  0
M  END
>  <InChIKey>
DLDJFQGPPSQZKI-UHFFFAOYSA-N

>  <UN GHS>
Non-irritant

>  <CASRN>
110-65-6

> <Outcome>
0

>  <Index>
143

>  <StandardizerResult>
Clear Stereo (ID: ClearStereo)
Wedge Clean (ID: WedgeClean)
Mesomerize (ID: Mesomerize)
Tautomerize (ID: Tautomerize)
Add Explicit Hydrogens (ID: AddExplicitH)
Neutralize (ID: Neutralize)
Clean 2D (ID: Clean2D)

> <knn Distance>
3.16227769851685

> <CpId>
143

$$$$
156
  Mrv1532301301811342D          

 34 34  0  0  0  0            999 V2000
    2.1434   -5.3630    0.0000 C   0  0  0  0  0  0  0  0  0  0  0  0
    2.8579   -4.9505    0.0000 C   0  0  0  0  0  0  0  0  0  0  0  0
    3.5724   -5.3630    0.0000 C   0  0  0  0  0  0  0  0  0  0  0  0
    4.2868   -4.9505    0.0000 C   0  0  0  0  0  0  0  0  0  0  0  0
    5.0013   -5.3630    0.0000 C   0  0  0  0  0  0  0  0  0  0  0  0
    5.7158   -4.9505    0.0000 C   0  0  0  0  0  0  0  0  0  0  0  0
    6.4302   -5.3630    0.0000 O   0  0  0  0  0  0  0  0  0  0  0  0
    7.1447   -4.9505    0.0000 C   0  0  0  0  0  0  0  0  0  0  0  0
    7.1447   -4.1255    0.0000 O   0  0  0  0  0  0  0  0  0  0  0  0
    7.8592   -5.3630    0.0000 C   0  0  0  0  0  0  0  0  0  0  0  0
    8.5737   -4.9505    0.0000 C   0  0  0  0  0  0  0  0  0  0  0  0
    9.2881   -5.3630    0.0000 C   0  0  0  0  0  0  0  0  0  0  0  0
    9.2881   -6.1880    0.0000 C   0  0  0  0  0  0  0  0  0  0  0  0
    8.5737   -6.6005    0.0000 C   0  0  0  0  0  0  0  0  0  0  0  0
    7.8592   -6.1880    0.0000 C   0  0  0  0  0  0  0  0  0  0  0  0
    7.1447   -6.6005    0.0000 O   0  0  0  0  0  0  0  0  0  0  0  0
    1.7309   -4.6485    0.0000 H   0  0  0  0  0  0  0  0  0  0  0  0
    1.4290   -5.7755    0.0000 H   0  0  0  0  0  0  0  0  0  0  0  0
    2.5559   -6.0775    0.0000 H   0  0  0  0  0  0  0  0  0  0  0  0
    3.2282   -4.2133    0.0000 H   0  0  0  0  0  0  0  0  0  0  0  0
    2.4876   -4.2133    0.0000 H   0  0  0  0  0  0  0  0  0  0  0  0
    3.2021   -6.1003    0.0000 H   0  0  0  0  0  0  0  0  0  0  0  0
    3.9426   -6.1003    0.0000 H   0  0  0  0  0  0  0  0  0  0  0  0
    4.6571   -4.2133    0.0000 H   0  0  0  0  0  0  0  0  0  0  0  0
    3.9166   -4.2133    0.0000 H   0  0  0  0  0  0  0  0  0  0  0  0
    4.6310   -6.1003    0.0000 H   0  0  0  0  0  0  0  0  0  0  0  0
    5.3716   -6.1003    0.0000 H   0  0  0  0  0  0  0  0  0  0  0  0
    6.0860   -4.2133    0.0000 H   0  0  0  0  0  0  0  0  0  0  0  0
    5.3455   -4.2133    0.0000 H   0  0  0  0  0  0  0  0  0  0  0  0
    8.5737   -4.1255    0.0000 H   0  0  0  0  0  0  0  0  0  0  0  0
   10.0026   -4.9505    0.0000 H   0  0  0  0  0  0  0  0  0  0  0  0
   10.0026   -6.6005    0.0000 H   0  0  0  0  0  0  0  0  0  0  0  0
    8.5737   -7.4255    0.0000 H   0  0  0  0  0  0  0  0  0  0  0  0
    6.4302   -6.1880    0.0000 H   0  0  0  0  0  0  0  0  0  0  0  0
  1  2  1  0  0  0  0
  2  3  1  0  0  0  0
  3  4  1  0  0  0  0
  4  5  1  0  0  0  0
  5  6  1  0  0  0  0
  6  7  1  0  0  0  0
  7  8  1  0  0  0  0
  8  9  2  0  0  0  0
  8 10  1  0  0  0  0
 10 11  4  0  0  0  0
 11 12  4  0  0  0  0
 12 13  4  0  0  0  0
 13 14  4  0  0  0  0
 14 15  4  0  0  0  0
 10 15  4  0  0  0  0
 15 16  1  0  0  0  0
  1 17  1  0  0  0  0
  1 18  1  0  0  0  0
  1 19  1  0  0  0  0
  2 20  1  0  0  0  0
  2 21  1  0  0  0  0
  3 22  1  0  0  0  0
  3 23  1  0  0  0  0
  4 24  1  0  0  0  0
  4 25  1  0  0  0  0
  5 26  1  0  0  0  0
  5 27  1  0  0  0  0
  6 28  1  0  0  0  0
  6 29  1  0  0  0  0
 11 30  1  0  0  0  0
 12 31  1  0  0  0  0
 13 32  1  0  0  0  0
 14 33  1  0  0  0  0
 16 34  1  0  0  0  0
M  END
>  <InChIKey>
DUKPKQFHJQGTGU-UHFFFAOYSA-N

>  <UN GHS>
Non-irritant

>  <CASRN>
6259-76-3

> <Outcome>
0

>  <Index>
156

>  <StandardizerResult>
Dearomatize (ID: Dearomatize)
Clear Stereo (ID: ClearStereo)
Wedge Clean (ID: WedgeClean)
Mesomerize (ID: Mesomerize)
Tautomerize (ID: Tautomerize)
Aromatize (ID: Aromatize)
Add Explicit Hydrogens (ID: AddExplicitH)
Neutralize (ID: Neutralize)
Clean 2D (ID: Clean2D)

> <knn Distance>
3.16227769851685

> <CpId>
156

$$$$
227
  Mrv1532301301811342D          

 26 25  0  0  0  0            999 V2000
    1.3640   -4.7327    0.0000 C   0  0  0  0  0  0  0  0  0  0  0  0
    1.3640   -3.9077    0.0000 C   0  0  0  0  0  0  0  0  0  0  0  0
    0.6496   -3.4952    0.0000 O   0  0  0  0  0  0  0  0  0  0  0  0
    0.6496   -2.6702    0.0000 C   0  0  0  0  0  0  0  0  0  0  0  0
   -0.0649   -2.2577    0.0000 O   0  0  0  0  0  0  0  0  0  0  0  0
   -0.0649   -1.4327    0.0000 C   0  0  0  0  0  0  0  0  0  0  0  0
   -0.7794   -1.0202    0.0000 C   0  0  0  0  0  0  0  0  0  0  0  0
    1.3640   -2.2577    0.0000 O   0  0  0  0  0  0  0  0  0  0  0  0
    1.3640   -1.4327    0.0000 C   0  0  0  0  0  0  0  0  0  0  0  0
    2.0785   -1.0202    0.0000 C   0  0  0  0  0  0  0  0  0  0  0  0
    0.5390   -4.7327    0.0000 H   0  0  0  0  0  0  0  0  0  0  0  0
    1.3640   -5.5577    0.0000 H   0  0  0  0  0  0  0  0  0  0  0  0
    2.1890   -4.7327    0.0000 H   0  0  0  0  0  0  0  0  0  0  0  0
    2.1876   -3.8598    0.0000 H   0  0  0  0  0  0  0  0  0  0  0  0
    1.8174   -3.2185    0.0000 H   0  0  0  0  0  0  0  0  0  0  0  0
   -0.0649   -3.0827    0.0000 H   0  0  0  0  0  0  0  0  0  0  0  0
    0.7587   -1.3848    0.0000 H   0  0  0  0  0  0  0  0  0  0  0  0
    0.3884   -0.7435    0.0000 H   0  0  0  0  0  0  0  0  0  0  0  0
   -0.3669   -0.3058    0.0000 H   0  0  0  0  0  0  0  0  0  0  0  0
   -1.4939   -0.6077    0.0000 H   0  0  0  0  0  0  0  0  0  0  0  0
   -1.1919   -1.7347    0.0000 H   0  0  0  0  0  0  0  0  0  0  0  0
    1.1822   -0.6280    0.0000 H   0  0  0  0  0  0  0  0  0  0  0  0
    2.0785   -1.8452    0.0000 H   0  0  0  0  0  0  0  0  0  0  0  0
    2.8754   -1.2338    0.0000 H   0  0  0  0  0  0  0  0  0  0  0  0
    2.4910   -0.3058    0.0000 H   0  0  0  0  0  0  0  0  0  0  0  0
    1.4951   -0.4369    0.0000 H   0  0  0  0  0  0  0  0  0  0  0  0
  1  2  1  0  0  0  0
  2  3  1  0  0  0  0
  3  4  1  0  0  0  0
  4  5  1  0  0  0  0
  5  6  1  0  0  0  0
  6  7  1  0  0  0  0
  4  8  1  0  0  0  0
  8  9  1  0  0  0  0
  9 10  1  0  0  0  0
  1 11  1  0  0  0  0
  1 12  1  0  0  0  0
  1 13  1  0  0  0  0
  2 14  1  0  0  0  0
  2 15  1  0  0  0  0
  4 16  1  0  0  0  0
  6 17  1  0  0  0  0
  6 18  1  0  0  0  0
  7 19  1  0  0  0  0
  7 20  1  0  0  0  0
  7 21  1  0  0  0  0
  9 22  1  0  0  0  0
  9 23  1  0  0  0  0
 10 24  1  0  0  0  0
 10 25  1  0  0  0  0
 10 26  1  0  0  0  0
M  END
>  <InChIKey>
GKASDNZWUGIAMG-UHFFFAOYSA-N

>  <UN GHS>
Non-irritant

>  <CASRN>
122-51-0

> <Outcome>
0

>  <Index>
227

>  <StandardizerResult>
Clear Stereo (ID: ClearStereo)
Wedge Clean (ID: WedgeClean)
Mesomerize (ID: Mesomerize)
Tautomerize (ID: Tautomerize)
Add Explicit Hydrogens (ID: AddExplicitH)
Neutralize (ID: Neutralize)
Clean 2D (ID: Clean2D)

> <knn Distance>
3.16227769851685

> <CpId>
227

$$$$
236
  Mrv1532301301811342D          

 25 24  0  0  0  0            999 V2000
    1.4070   -4.6938    0.0000 O   0  0  0  0  0  0  0  0  0  0  0  0
    1.4070   -3.8688    0.0000 C   0  0  0  0  0  0  0  0  0  0  0  0
    0.6925   -3.4563    0.0000 C   0  0  0  0  0  0  0  0  0  0  0  0
    0.6925   -2.6313    0.0000 N   0  0  0  0  0  0  0  0  0  0  0  0
   -0.0220   -2.2188    0.0000 C   0  0  0  0  0  0  0  0  0  0  0  0
   -0.0220   -1.3938    0.0000 C   0  0  0  0  0  0  0  0  0  0  0  0
   -0.7364   -0.9813    0.0000 O   0  0  0  0  0  0  0  0  0  0  0  0
    1.4070   -2.2188    0.0000 C   0  0  0  0  0  0  0  0  0  0  0  0
    1.4070   -1.3938    0.0000 C   0  0  0  0  0  0  0  0  0  0  0  0
    2.1214   -0.9813    0.0000 O   0  0  0  0  0  0  0  0  0  0  0  0
    0.6925   -5.1063    0.0000 H   0  0  0  0  0  0  0  0  0  0  0  0
    2.2306   -3.8208    0.0000 H   0  0  0  0  0  0  0  0  0  0  0  0
    1.8603   -3.1795    0.0000 H   0  0  0  0  0  0  0  0  0  0  0  0
   -0.1311   -3.5042    0.0000 H   0  0  0  0  0  0  0  0  0  0  0  0
    0.2391   -4.1455    0.0000 H   0  0  0  0  0  0  0  0  0  0  0  0
   -0.8456   -2.2667    0.0000 H   0  0  0  0  0  0  0  0  0  0  0  0
   -0.4753   -2.9080    0.0000 H   0  0  0  0  0  0  0  0  0  0  0  0
    0.8016   -1.3458    0.0000 H   0  0  0  0  0  0  0  0  0  0  0  0
    0.4314   -0.7045    0.0000 H   0  0  0  0  0  0  0  0  0  0  0  0
   -0.7364   -0.1563    0.0000 H   0  0  0  0  0  0  0  0  0  0  0  0
    1.8603   -2.9080    0.0000 H   0  0  0  0  0  0  0  0  0  0  0  0
    2.2306   -2.2667    0.0000 H   0  0  0  0  0  0  0  0  0  0  0  0
    1.2251   -0.5891    0.0000 H   0  0  0  0  0  0  0  0  0  0  0  0
    2.1214   -1.8063    0.0000 H   0  0  0  0  0  0  0  0  0  0  0  0
    2.5339   -0.2668    0.0000 H   0  0  0  0  0  0  0  0  0  0  0  0
  1  2  1  0  0  0  0
  2  3  1  0  0  0  0
  3  4  1  0  0  0  0
  4  5  1  0  0  0  0
  5  6  1  0  0  0  0
  6  7  1  0  0  0  0
  4  8  1  0  0  0  0
  8  9  1  0  0  0  0
  9 10  1  0  0  0  0
  1 11  1  0  0  0  0
  2 12  1  0  0  0  0
  2 13  1  0  0  0  0
  3 14  1  0  0  0  0
  3 15  1  0  0  0  0
  5 16  1  0  0  0  0
  5 17  1  0  0  0  0
  6 18  1  0  0  0  0
  6 19  1  0  0  0  0
  7 20  1  0  0  0  0
  8 21  1  0  0  0  0
  8 22  1  0  0  0  0
  9 23  1  0  0  0  0
  9 24  1  0  0  0  0
 10 25  1  0  0  0  0
M  END
>  <InChIKey>
GSEJCLTVZPLZKY-UHFFFAOYSA-N

>  <UN GHS>
Non-irritant

>  <CASRN>
102-71-6

> <Outcome>
0

>  <Index>
236

>  <StandardizerResult>
Clear Stereo (ID: ClearStereo)
Wedge Clean (ID: WedgeClean)
Mesomerize (ID: Mesomerize)
Tautomerize (ID: Tautomerize)
Add Explicit Hydrogens (ID: AddExplicitH)
Neutralize (ID: Neutralize)
Clean 2D (ID: Clean2D)

> <knn Distance>
3.16227769851685

> <CpId>
236

$$$$
240
  Mrv1532301301811342D          

 58 58  0  0  0  0            999 V2000
   -0.0060    4.9631    0.0000 C   0  0  0  0  0  0  0  0  0  0  0  0
   -0.0060    4.1381    0.0000 C   0  0  0  0  0  0  0  0  0  0  0  0
   -0.8310    4.1381    0.0000 C   0  0  0  0  0  0  0  0  0  0  0  0
    0.8190    4.1381    0.0000 C   0  0  0  0  0  0  0  0  0  0  0  0
   -0.0060    3.3131    0.0000 O   0  0  0  0  0  0  0  0  0  0  0  0
    0.7085    2.9006    0.0000 O   0  0  0  0  0  0  0  0  0  0  0  0
    0.7085    2.0756    0.0000 C   0  0  0  0  0  0  0  0  0  0  0  0
   -0.1165    2.0756    0.0000 C   0  0  0  0  0  0  0  0  0  0  0  0
    1.5335    2.0756    0.0000 C   0  0  0  0  0  0  0  0  0  0  0  0
    0.7085    1.2506    0.0000 C   0  0  0  0  0  0  0  0  0  0  0  0
    1.4230    0.8381    0.0000 C   0  0  0  0  0  0  0  0  0  0  0  0
    1.4230    0.0131    0.0000 C   0  0  0  0  0  0  0  0  0  0  0  0
    0.7085   -0.3994    0.0000 C   0  0  0  0  0  0  0  0  0  0  0  0
   -0.0060    0.0131    0.0000 C   0  0  0  0  0  0  0  0  0  0  0  0
   -0.0060    0.8381    0.0000 C   0  0  0  0  0  0  0  0  0  0  0  0
    0.7085   -1.2244    0.0000 C   0  0  0  0  0  0  0  0  0  0  0  0
   -0.1165   -1.2244    0.0000 C   0  0  0  0  0  0  0  0  0  0  0  0
    1.5335   -1.2244    0.0000 C   0  0  0  0  0  0  0  0  0  0  0  0
    0.7085   -2.0494    0.0000 O   0  0  0  0  0  0  0  0  0  0  0  0
   -0.0060   -2.4619    0.0000 O   0  0  0  0  0  0  0  0  0  0  0  0
   -0.0060   -3.2869    0.0000 C   0  0  0  0  0  0  0  0  0  0  0  0
   -0.0060   -4.1119    0.0000 C   0  0  0  0  0  0  0  0  0  0  0  0
   -0.8310   -3.2869    0.0000 C   0  0  0  0  0  0  0  0  0  0  0  0
    0.8190   -3.2869    0.0000 C   0  0  0  0  0  0  0  0  0  0  0  0
    0.8190    4.9631    0.0000 H   0  0  0  0  0  0  0  0  0  0  0  0
   -0.0060    5.7881    0.0000 H   0  0  0  0  0  0  0  0  0  0  0  0
   -0.8310    4.9631    0.0000 H   0  0  0  0  0  0  0  0  0  0  0  0
   -1.5932    4.4538    0.0000 H   0  0  0  0  0  0  0  0  0  0  0  0
   -1.4143    3.5547    0.0000 H   0  0  0  0  0  0  0  0  0  0  0  0
   -0.5153    3.3759    0.0000 H   0  0  0  0  0  0  0  0  0  0  0  0
    0.5033    3.3759    0.0000 H   0  0  0  0  0  0  0  0  0  0  0  0
    1.4024    3.5547    0.0000 H   0  0  0  0  0  0  0  0  0  0  0  0
    1.5812    4.4538    0.0000 H   0  0  0  0  0  0  0  0  0  0  0  0
   -0.1165    2.9006    0.0000 H   0  0  0  0  0  0  0  0  0  0  0  0
   -0.9415    2.0756    0.0000 H   0  0  0  0  0  0  0  0  0  0  0  0
   -0.1165    1.2506    0.0000 H   0  0  0  0  0  0  0  0  0  0  0  0
    1.5335    1.2506    0.0000 H   0  0  0  0  0  0  0  0  0  0  0  0
    2.3585    2.0756    0.0000 H   0  0  0  0  0  0  0  0  0  0  0  0
    1.5335    2.9006    0.0000 H   0  0  0  0  0  0  0  0  0  0  0  0
    2.2409    0.7304    0.0000 H   0  0  0  0  0  0  0  0  0  0  0  0
    2.1374   -0.3994    0.0000 H   0  0  0  0  0  0  0  0  0  0  0  0
   -0.7205   -0.3994    0.0000 H   0  0  0  0  0  0  0  0  0  0  0  0
   -0.8239    0.7304    0.0000 H   0  0  0  0  0  0  0  0  0  0  0  0
   -0.1165   -0.3994    0.0000 H   0  0  0  0  0  0  0  0  0  0  0  0
   -0.9415   -1.2244    0.0000 H   0  0  0  0  0  0  0  0  0  0  0  0
   -0.1165   -2.0494    0.0000 H   0  0  0  0  0  0  0  0  0  0  0  0
    1.5335   -2.0494    0.0000 H   0  0  0  0  0  0  0  0  0  0  0  0
    2.3585   -1.2244    0.0000 H   0  0  0  0  0  0  0  0  0  0  0  0
    1.5335   -0.3994    0.0000 H   0  0  0  0  0  0  0  0  0  0  0  0
   -0.8310   -4.1119    0.0000 H   0  0  0  0  0  0  0  0  0  0  0  0
   -0.0060   -4.9369    0.0000 H   0  0  0  0  0  0  0  0  0  0  0  0
    0.8190   -4.1119    0.0000 H   0  0  0  0  0  0  0  0  0  0  0  0
   -0.5153   -2.5247    0.0000 H   0  0  0  0  0  0  0  0  0  0  0  0
   -1.4143   -2.7036    0.0000 H   0  0  0  0  0  0  0  0  0  0  0  0
   -1.5932   -3.6026    0.0000 H   0  0  0  0  0  0  0  0  0  0  0  0
    1.5812   -3.6026    0.0000 H   0  0  0  0  0  0  0  0  0  0  0  0
    1.4024   -2.7036    0.0000 H   0  0  0  0  0  0  0  0  0  0  0  0
    0.5033   -2.5247    0.0000 H   0  0  0  0  0  0  0  0  0  0  0  0
  1  2  1  0  0  0  0
  2  3  1  0  0  0  0
  2  4  1  0  0  0  0
  2  5  1  0  0  0  0
  5  6  1  0  0  0  0
  6  7  1  0  0  0  0
  7  8  1  0  0  0  0
  7  9  1  0  0  0  0
  7 10  1  0  0  0  0
 10 11  4  0  0  0  0
 11 12  4  0  0  0  0
 12 13  4  0  0  0  0
 13 14  4  0  0  0  0
 14 15  4  0  0  0  0
 10 15  4  0  0  0  0
 13 16  1  0  0  0  0
 16 17  1  0  0  0  0
 16 18  1  0  0  0  0
 16 19  1  0  0  0  0
 19 20  1  0  0  0  0
 20 21  1  0  0  0  0
 21 22  1  0  0  0  0
 21 23  1  0  0  0  0
 21 24  1  0  0  0  0
  1 25  1  0  0  0  0
  1 26  1  0  0  0  0
  1 27  1  0  0  0  0
  3 28  1  0  0  0  0
  3 29  1  0  0  0  0
  3 30  1  0  0  0  0
  4 31  1  0  0  0  0
  4 32  1  0  0  0  0
  4 33  1  0  0  0  0
  8 34  1  0  0  0  0
  8 35  1  0  0  0  0
  8 36  1  0  0  0  0
  9 37  1  0  0  0  0
  9 38  1  0  0  0  0
  9 39  1  0  0  0  0
 11 40  1  0  0  0  0
 12 41  1  0  0  0  0
 14 42  1  0  0  0  0
 15 43  1  0  0  0  0
 17 44  1  0  0  0  0
 17 45  1  0  0  0  0
 17 46  1  0  0  0  0
 18 47  1  0  0  0  0
 18 48  1  0  0  0  0
 18 49  1  0  0  0  0
 22 50  1  0  0  0  0
 22 51  1  0  0  0  0
 22 52  1  0  0  0  0
 23 53  1  0  0  0  0
 23 54  1  0  0  0  0
 23 55  1  0  0  0  0
 24 56  1  0  0  0  0
 24 57  1  0  0  0  0
 24 58  1  0  0  0  0
M  END
>  <InChIKey>
GWQOYRSARAWVTC-UHFFFAOYSA-N

>  <UN GHS>
Non-irritant

>  <CASRN>
25155-25-3

> <Outcome>
0

>  <Index>
240

>  <StandardizerResult>
Dearomatize (ID: Dearomatize)
Clear Stereo (ID: ClearStereo)
Wedge Clean (ID: WedgeClean)
Mesomerize (ID: Mesomerize)
Tautomerize (ID: Tautomerize)
Aromatize (ID: Aromatize)
Add Explicit Hydrogens (ID: AddExplicitH)
Neutralize (ID: Neutralize)
Clean 2D (ID: Clean2D)

> <knn Distance>
3.16227769851685

> <CpId>
240

$$$$
242
  Mrv1532301301811342D          

 30 31  0  0  0  0            999 V2000
   -0.7145   -2.8875    0.0000 C   0  0  0  0  0  0  0  0  0  0  0  0
   -0.0000   -2.4750    0.0000 O   0  0  0  0  0  0  0  0  0  0  0  0
   -0.0000   -1.6500    0.0000 C   0  0  0  0  0  0  0  0  0  0  0  0
   -0.7145   -1.2375    0.0000 O   0  0  0  0  0  0  0  0  0  0  0  0
    0.7145   -1.2375    0.0000 C   0  0  0  0  0  0  0  0  0  0  0  0
    0.7145   -0.4125    0.0000 C   0  0  0  0  0  0  0  0  0  0  0  0
    1.4289   -0.0000    0.0000 C   0  0  0  0  0  0  0  0  0  0  0  0
    2.1434   -0.4125    0.0000 C   0  0  0  0  0  0  0  0  0  0  0  0
    2.8579   -0.0000    0.0000 C   0  0  0  0  0  0  0  0  0  0  0  0
    3.5724   -0.4125    0.0000 C   0  0  0  0  0  0  0  0  0  0  0  0
    3.5724   -1.2375    0.0000 C   0  0  0  0  0  0  0  0  0  0  0  0
    2.8579   -1.6500    0.0000 C   0  0  0  0  0  0  0  0  0  0  0  0
    2.1434   -1.2375    0.0000 C   0  0  0  0  0  0  0  0  0  0  0  0
    1.4289   -1.6500    0.0000 C   0  0  0  0  0  0  0  0  0  0  0  0
    4.2868   -0.0000    0.0000 C   0  0  0  0  0  0  0  0  0  0  0  0
    4.2868    0.8250    0.0000 O   0  0  0  0  0  0  0  0  0  0  0  0
    5.0013   -0.4125    0.0000 O   0  0  0  0  0  0  0  0  0  0  0  0
    5.7158   -0.0000    0.0000 C   0  0  0  0  0  0  0  0  0  0  0  0
   -1.1270   -2.1730    0.0000 H   0  0  0  0  0  0  0  0  0  0  0  0
   -1.4289   -3.3000    0.0000 H   0  0  0  0  0  0  0  0  0  0  0  0
   -0.3020   -3.6020    0.0000 H   0  0  0  0  0  0  0  0  0  0  0  0
   -0.0000   -0.0000    0.0000 H   0  0  0  0  0  0  0  0  0  0  0  0
    1.4289    0.8250    0.0000 H   0  0  0  0  0  0  0  0  0  0  0  0
    2.8579    0.8250    0.0000 H   0  0  0  0  0  0  0  0  0  0  0  0
    4.2868   -1.6500    0.0000 H   0  0  0  0  0  0  0  0  0  0  0  0
    2.8579   -2.4750    0.0000 H   0  0  0  0  0  0  0  0  0  0  0  0
    1.4289   -2.4750    0.0000 H   0  0  0  0  0  0  0  0  0  0  0  0
    6.1283   -0.7145    0.0000 H   0  0  0  0  0  0  0  0  0  0  0  0
    6.4302    0.4125    0.0000 H   0  0  0  0  0  0  0  0  0  0  0  0
    5.3033    0.7145    0.0000 H   0  0  0  0  0  0  0  0  0  0  0  0
  1  2  1  0  0  0  0
  2  3  1  0  0  0  0
  3  4  2  0  0  0  0
  3  5  1  0  0  0  0
  5  6  4  0  0  0  0
  6  7  4  0  0  0  0
  7  8  4  0  0  0  0
  8  9  4  0  0  0  0
  9 10  4  0  0  0  0
 10 11  4  0  0  0  0
 11 12  4  0  0  0  0
 12 13  4  0  0  0  0
  8 13  4  0  0  0  0
 13 14  4  0  0  0  0
  5 14  4  0  0  0  0
 10 15  1  0  0  0  0
 15 16  2  0  0  0  0
 15 17  1  0  0  0  0
 17 18  1  0  0  0  0
  1 19  1  0  0  0  0
  1 20  1  0  0  0  0
  1 21  1  0  0  0  0
  6 22  1  0  0  0  0
  7 23  1  0  0  0  0
  9 24  1  0  0  0  0
 11 25  1  0  0  0  0
 12 26  1  0  0  0  0
 14 27  1  0  0  0  0
 18 28  1  0  0  0  0
 18 29  1  0  0  0  0
 18 30  1  0  0  0  0
M  END
>  <InChIKey>
GYUVMLBYMPKZAZ-UHFFFAOYSA-N

>  <UN GHS>
Non-irritant

>  <CASRN>
840-65-3

> <Outcome>
0

>  <Index>
242

>  <StandardizerResult>
Dearomatize (ID: Dearomatize)
Clear Stereo (ID: ClearStereo)
Wedge Clean (ID: WedgeClean)
Mesomerize (ID: Mesomerize)
Tautomerize (ID: Tautomerize)
Aromatize (ID: Aromatize)
Add Explicit Hydrogens (ID: AddExplicitH)
Neutralize (ID: Neutralize)
Clean 2D (ID: Clean2D)

> <knn Distance>
3.16227769851685

> <CpId>
242

$$$$
274
  Mrv1532301301811342D          

 46 45  0  0  0  0            999 V2000
    2.9458   -2.5724    0.0000 C   0  0  0  0  0  0  0  0  0  0  0  0
    3.6603   -2.1599    0.0000 C   0  0  0  0  0  0  0  0  0  0  0  0
    4.3747   -2.5724    0.0000 C   0  0  0  0  0  0  0  0  0  0  0  0
    5.0892   -2.1599    0.0000 C   0  0  0  0  0  0  0  0  0  0  0  0
    5.8037   -2.5724    0.0000 C   0  0  0  0  0  0  0  0  0  0  0  0
    5.8037   -3.3974    0.0000 C   0  0  0  0  0  0  0  0  0  0  0  0
    6.5182   -3.8099    0.0000 C   0  0  0  0  0  0  0  0  0  0  0  0
    6.5182   -2.1599    0.0000 C   0  0  0  0  0  0  0  0  0  0  0  0
    7.2326   -2.5724    0.0000 O   0  0  0  0  0  0  0  0  0  0  0  0
    7.9471   -2.1599    0.0000 C   0  0  0  0  0  0  0  0  0  0  0  0
    7.9471   -1.3349    0.0000 O   0  0  0  0  0  0  0  0  0  0  0  0
    8.6616   -2.5724    0.0000 O   0  0  0  0  0  0  0  0  0  0  0  0
    9.3760   -2.1599    0.0000 O   0  0  0  0  0  0  0  0  0  0  0  0
   10.0905   -2.5724    0.0000 C   0  0  0  0  0  0  0  0  0  0  0  0
    9.6780   -3.2869    0.0000 C   0  0  0  0  0  0  0  0  0  0  0  0
   10.5030   -1.8580    0.0000 C   0  0  0  0  0  0  0  0  0  0  0  0
   10.8050   -2.9849    0.0000 C   0  0  0  0  0  0  0  0  0  0  0  0
   11.5195   -2.5724    0.0000 C   0  0  0  0  0  0  0  0  0  0  0  0
    2.5333   -1.8580    0.0000 H   0  0  0  0  0  0  0  0  0  0  0  0
    2.2313   -2.9849    0.0000 H   0  0  0  0  0  0  0  0  0  0  0  0
    3.3583   -3.2869    0.0000 H   0  0  0  0  0  0  0  0  0  0  0  0
    4.0305   -1.4227    0.0000 H   0  0  0  0  0  0  0  0  0  0  0  0
    3.2900   -1.4227    0.0000 H   0  0  0  0  0  0  0  0  0  0  0  0
    4.0045   -3.3097    0.0000 H   0  0  0  0  0  0  0  0  0  0  0  0
    4.7450   -3.3097    0.0000 H   0  0  0  0  0  0  0  0  0  0  0  0
    5.4595   -1.4227    0.0000 H   0  0  0  0  0  0  0  0  0  0  0  0
    4.7190   -1.4227    0.0000 H   0  0  0  0  0  0  0  0  0  0  0  0
    5.0892   -2.9849    0.0000 H   0  0  0  0  0  0  0  0  0  0  0  0
    5.1717   -3.9277    0.0000 H   0  0  0  0  0  0  0  0  0  0  0  0
    5.6604   -4.2099    0.0000 H   0  0  0  0  0  0  0  0  0  0  0  0
    6.6791   -4.6191    0.0000 H   0  0  0  0  0  0  0  0  0  0  0  0
    7.3424   -3.8459    0.0000 H   0  0  0  0  0  0  0  0  0  0  0  0
    6.7490   -3.0179    0.0000 H   0  0  0  0  0  0  0  0  0  0  0  0
    6.8884   -1.4227    0.0000 H   0  0  0  0  0  0  0  0  0  0  0  0
    6.1479   -1.4227    0.0000 H   0  0  0  0  0  0  0  0  0  0  0  0
    8.9635   -2.8744    0.0000 H   0  0  0  0  0  0  0  0  0  0  0  0
    9.2655   -4.0014    0.0000 H   0  0  0  0  0  0  0  0  0  0  0  0
   10.3925   -3.6994    0.0000 H   0  0  0  0  0  0  0  0  0  0  0  0
   11.2175   -2.2705    0.0000 H   0  0  0  0  0  0  0  0  0  0  0  0
   10.9155   -1.1435    0.0000 H   0  0  0  0  0  0  0  0  0  0  0  0
    9.7885   -1.4455    0.0000 H   0  0  0  0  0  0  0  0  0  0  0  0
   11.0871   -3.7602    0.0000 H   0  0  0  0  0  0  0  0  0  0  0  0
   11.5802   -3.2671    0.0000 H   0  0  0  0  0  0  0  0  0  0  0  0
   12.2339   -2.9849    0.0000 H   0  0  0  0  0  0  0  0  0  0  0  0
   12.2672   -2.2238    0.0000 H   0  0  0  0  0  0  0  0  0  0  0  0
   11.6627   -1.7600    0.0000 H   0  0  0  0  0  0  0  0  0  0  0  0
  1  2  1  0  0  0  0
  2  3  1  0  0  0  0
  3  4  1  0  0  0  0
  4  5  1  0  0  0  0
  5  6  1  0  0  0  0
  6  7  1  0  0  0  0
  5  8  1  0  0  0  0
  8  9  1  0  0  0  0
  9 10  1  0  0  0  0
 10 11  2  0  0  0  0
 10 12  1  0  0  0  0
 12 13  1  0  0  0  0
 13 14  1  0  0  0  0
 14 15  1  0  0  0  0
 14 16  1  0  0  0  0
 14 17  1  0  0  0  0
 17 18  1  0  0  0  0
  1 19  1  0  0  0  0
  1 20  1  0  0  0  0
  1 21  1  0  0  0  0
  2 22  1  0  0  0  0
  2 23  1  0  0  0  0
  3 24  1  0  0  0  0
  3 25  1  0  0  0  0
  4 26  1  0  0  0  0
  4 27  1  0  0  0  0
  5 28  1  0  0  0  0
  6 29  1  0  0  0  0
  6 30  1  0  0  0  0
  7 31  1  0  0  0  0
  7 32  1  0  0  0  0
  7 33  1  0  0  0  0
  8 34  1  0  0  0  0
  8 35  1  0  0  0  0
 15 36  1  0  0  0  0
 15 37  1  0  0  0  0
 15 38  1  0  0  0  0
 16 39  1  0  0  0  0
 16 40  1  0  0  0  0
 16 41  1  0  0  0  0
 17 42  1  0  0  0  0
 17 43  1  0  0  0  0
 18 44  1  0  0  0  0
 18 45  1  0  0  0  0
 18 46  1  0  0  0  0
M  END
>  <InChIKey>
HTCRKQHJUYBQTK-UHFFFAOYSA-N

>  <UN GHS>
Non-irritant

>  <CASRN>
70833-40-8

> <Outcome>
0

>  <Index>
274

>  <StandardizerResult>
Clear Stereo (ID: ClearStereo)
Wedge Clean (ID: WedgeClean)
Mesomerize (ID: Mesomerize)
Tautomerize (ID: Tautomerize)
Add Explicit Hydrogens (ID: AddExplicitH)
Neutralize (ID: Neutralize)
Clean 2D (ID: Clean2D)

> <knn Distance>
3.16227769851685

> <CpId>
274

$$$$
294
  Mrv1532301301811342D          

 29 28  0  0  0  0            999 V2000
    2.2836    3.7934    0.0000 C   0  0  0  0  0  0  0  0  0  0  0  0
    2.9980    3.3809    0.0000 C   0  0  0  0  0  0  0  0  0  0  0  0
    3.7125    3.7934    0.0000 O   0  0  0  0  0  0  0  0  0  0  0  0
    2.9980    2.5559    0.0000 C   0  0  0  0  0  0  0  0  0  0  0  0
    3.7125    2.1434    0.0000 C   0  0  0  0  0  0  0  0  0  0  0  0
    3.7125    1.3184    0.0000 O   0  0  0  0  0  0  0  0  0  0  0  0
    4.4270    2.5559    0.0000 O   0  0  0  0  0  0  0  0  0  0  0  0
    5.1414    2.1434    0.0000 C   0  0  0  0  0  0  0  0  0  0  0  0
    5.8559    2.5559    0.0000 C   0  0  0  0  0  0  0  0  0  0  0  0
    6.5704    2.1434    0.0000 O   0  0  0  0  0  0  0  0  0  0  0  0
    7.2849    2.5559    0.0000 C   0  0  0  0  0  0  0  0  0  0  0  0
    7.2849    3.3809    0.0000 O   0  0  0  0  0  0  0  0  0  0  0  0
    7.9993    2.1434    0.0000 C   0  0  0  0  0  0  0  0  0  0  0  0
    8.7138    2.5559    0.0000 C   0  0  0  0  0  0  0  0  0  0  0  0
    7.9993    1.3184    0.0000 C   0  0  0  0  0  0  0  0  0  0  0  0
    2.6961    4.5079    0.0000 H   0  0  0  0  0  0  0  0  0  0  0  0
    1.5691    4.2059    0.0000 H   0  0  0  0  0  0  0  0  0  0  0  0
    1.8711    3.0789    0.0000 H   0  0  0  0  0  0  0  0  0  0  0  0
    4.4270    3.3809    0.0000 H   0  0  0  0  0  0  0  0  0  0  0  0
    2.2836    2.1434    0.0000 H   0  0  0  0  0  0  0  0  0  0  0  0
    4.7712    1.4062    0.0000 H   0  0  0  0  0  0  0  0  0  0  0  0
    5.5117    1.4062    0.0000 H   0  0  0  0  0  0  0  0  0  0  0  0
    6.2262    3.2931    0.0000 H   0  0  0  0  0  0  0  0  0  0  0  0
    5.4857    3.2931    0.0000 H   0  0  0  0  0  0  0  0  0  0  0  0
    9.1263    1.8414    0.0000 H   0  0  0  0  0  0  0  0  0  0  0  0
    9.4283    2.9684    0.0000 H   0  0  0  0  0  0  0  0  0  0  0  0
    8.3013    3.2704    0.0000 H   0  0  0  0  0  0  0  0  0  0  0  0
    7.2849    0.9059    0.0000 H   0  0  0  0  0  0  0  0  0  0  0  0
    8.7138    0.9059    0.0000 H   0  0  0  0  0  0  0  0  0  0  0  0
  1  2  1  0  0  0  0
  2  3  1  0  0  0  0
  2  4  2  0  0  0  0
  4  5  1  4  0  0  0
  5  6  2  0  0  0  0
  5  7  1  0  0  0  0
  7  8  1  0  0  0  0
  8  9  1  0  0  0  0
  9 10  1  0  0  0  0
 10 11  1  0  0  0  0
 11 12  2  0  0  0  0
 11 13  1  0  0  0  0
 13 14  1  0  0  0  0
 13 15  2  0  0  0  0
  1 16  1  0  0  0  0
  1 17  1  0  0  0  0
  1 18  1  0  0  0  0
  3 19  1  0  0  0  0
  4 20  1  0  0  0  0
  8 21  1  0  0  0  0
  8 22  1  0  0  0  0
  9 23  1  0  0  0  0
  9 24  1  0  0  0  0
 14 25  1  0  0  0  0
 14 26  1  0  0  0  0
 14 27  1  0  0  0  0
 15 28  1  0  0  0  0
 15 29  1  0  0  0  0
M  END
>  <InChIKey>
IBDVWXAVKPRHCU-UHFFFAOYSA-N

>  <UN GHS>
Non-irritant

>  <CASRN>
21282-97-3

> <Outcome>
0

>  <Index>
294

>  <StandardizerResult>
Clear Stereo (ID: ClearStereo)
Wedge Clean (ID: WedgeClean)
Mesomerize (ID: Mesomerize)
Tautomerize (ID: Tautomerize)
Add Explicit Hydrogens (ID: AddExplicitH)
Neutralize (ID: Neutralize)
Clean 2D (ID: Clean2D)

> <knn Distance>
3.16227769851685

> <CpId>
294

$$$$
331
  Mrv1532301301811342D          

 20 20  0  0  0  0            999 V2000
    0.7145    2.0625    0.0000 O   0  0  0  0  0  0  0  0  0  0  0  0
    0.7145    1.2375    0.0000 C   0  0  0  0  0  0  0  0  0  0  0  0
    1.4289    0.8250    0.0000 C   0  0  0  0  0  0  0  0  0  0  0  0
    1.4289    0.0000    0.0000 C   0  0  0  0  0  0  0  0  0  0  0  0
    0.7145   -0.4125    0.0000 C   0  0  0  0  0  0  0  0  0  0  0  0
   -0.0000    0.0000    0.0000 C   0  0  0  0  0  0  0  0  0  0  0  0
   -0.7145   -0.4125    0.0000 O   0  0  0  0  0  0  0  0  0  0  0  0
   -0.0000    0.8250    0.0000 C   0  0  0  0  0  0  0  0  0  0  0  0
   -0.7145    1.2375    0.0000 N   0  0  0  0  0  0  0  0  0  0  0  0
   -0.7145    2.0625    0.0000 O   0  0  0  0  0  0  0  0  0  0  0  0
   -1.4289    0.8250    0.0000 O   0  0  0  0  0  0  0  0  0  0  0  0
    0.7145   -1.2375    0.0000 N   0  0  0  0  0  0  0  0  0  0  0  0
    1.4289   -1.6500    0.0000 O   0  0  0  0  0  0  0  0  0  0  0  0
   -0.0000   -1.6500    0.0000 O   0  0  0  0  0  0  0  0  0  0  0  0
    2.1434    1.2375    0.0000 N   0  0  0  0  0  0  0  0  0  0  0  0
    2.8579    0.8250    0.0000 O   0  0  0  0  0  0  0  0  0  0  0  0
    2.1434    2.0625    0.0000 O   0  0  0  0  0  0  0  0  0  0  0  0
    1.4289    2.4750    0.0000 H   0  0  0  0  0  0  0  0  0  0  0  0
    2.1434   -0.4125    0.0000 H   0  0  0  0  0  0  0  0  0  0  0  0
   -1.4289    0.0000    0.0000 H   0  0  0  0  0  0  0  0  0  0  0  0
  1  2  1  0  0  0  0
  2  3  4  0  0  0  0
  3  4  4  0  0  0  0
  4  5  4  0  0  0  0
  5  6  4  0  0  0  0
  6  7  1  0  0  0  0
  6  8  4  0  0  0  0
  2  8  4  0  0  0  0
  8  9  1  0  0  0  0
  9 10  2  0  0  0  0
  9 11  2  0  0  0  0
  5 12  1  0  0  0  0
 12 13  2  0  0  0  0
 12 14  2  0  0  0  0
  3 15  1  0  0  0  0
 15 16  2  0  0  0  0
 15 17  2  0  0  0  0
  1 18  1  0  0  0  0
  4 19  1  0  0  0  0
  7 20  1  0  0  0  0
M  END
>  <InChIKey>
IXHMHWIBCIYOAZ-UHFFFAOYSA-L

>  <UN GHS>
Non-irritant

>  <CASRN>
15245-44-0

> <Outcome>
0

>  <Index>
331

>  <StandardizerResult>
Dearomatize (ID: Dearomatize)
Clear Stereo (ID: ClearStereo)
Wedge Clean (ID: WedgeClean)
Mesomerize (ID: Mesomerize)
Tautomerize (ID: Tautomerize)
Aromatize (ID: Aromatize)
Add Explicit Hydrogens (ID: AddExplicitH)
Neutralize (ID: Neutralize)
Clean 2D (ID: Clean2D)

> <knn Distance>
3.16227769851685

> <CpId>
331

$$$$
340
  Mrv1532301301811342D          

 37 36  0  0  0  0            999 V2000
    7.9480    5.4128    0.0000 C   0  0  0  0  0  0  0  0  0  0  0  0
    8.6625    5.0003    0.0000 C   0  0  0  0  0  0  0  0  0  0  0  0
    9.3770    5.4128    0.0000 C   0  0  0  0  0  0  0  0  0  0  0  0
   10.0914    5.0003    0.0000 O   0  0  0  0  0  0  0  0  0  0  0  0
   10.8059    5.4128    0.0000 C   0  0  0  0  0  0  0  0  0  0  0  0
   10.8059    6.2378    0.0000 O   0  0  0  0  0  0  0  0  0  0  0  0
   11.5204    5.0003    0.0000 O   0  0  0  0  0  0  0  0  0  0  0  0
   12.2349    5.4128    0.0000 C   0  0  0  0  0  0  0  0  0  0  0  0
   12.9493    5.0003    0.0000 C   0  0  0  0  0  0  0  0  0  0  0  0
   13.6638    5.4128    0.0000 O   0  0  0  0  0  0  0  0  0  0  0  0
   14.3783    5.0003    0.0000 C   0  0  0  0  0  0  0  0  0  0  0  0
   15.0927    5.4128    0.0000 C   0  0  0  0  0  0  0  0  0  0  0  0
   15.8072    5.0003    0.0000 O   0  0  0  0  0  0  0  0  0  0  0  0
   16.5217    5.4128    0.0000 C   0  0  0  0  0  0  0  0  0  0  0  0
   16.5217    6.2378    0.0000 O   0  0  0  0  0  0  0  0  0  0  0  0
   17.2362    5.0003    0.0000 O   0  0  0  0  0  0  0  0  0  0  0  0
   17.9506    5.4128    0.0000 C   0  0  0  0  0  0  0  0  0  0  0  0
   18.6651    5.0003    0.0000 C   0  0  0  0  0  0  0  0  0  0  0  0
   19.3796    5.4128    0.0000 C   0  0  0  0  0  0  0  0  0  0  0  0
    7.9480    6.2378    0.0000 H   0  0  0  0  0  0  0  0  0  0  0  0
    7.2336    5.0003    0.0000 H   0  0  0  0  0  0  0  0  0  0  0  0
    8.6625    4.1753    0.0000 H   0  0  0  0  0  0  0  0  0  0  0  0
    9.7472    6.1501    0.0000 H   0  0  0  0  0  0  0  0  0  0  0  0
    9.0067    6.1501    0.0000 H   0  0  0  0  0  0  0  0  0  0  0  0
   12.6051    6.1501    0.0000 H   0  0  0  0  0  0  0  0  0  0  0  0
   11.8646    6.1501    0.0000 H   0  0  0  0  0  0  0  0  0  0  0  0
   12.5791    4.2631    0.0000 H   0  0  0  0  0  0  0  0  0  0  0  0
   13.3196    4.2631    0.0000 H   0  0  0  0  0  0  0  0  0  0  0  0
   14.0080    4.2631    0.0000 H   0  0  0  0  0  0  0  0  0  0  0  0
   14.7485    4.2631    0.0000 H   0  0  0  0  0  0  0  0  0  0  0  0
   15.4630    6.1501    0.0000 H   0  0  0  0  0  0  0  0  0  0  0  0
   14.7225    6.1501    0.0000 H   0  0  0  0  0  0  0  0  0  0  0  0
   18.3209    6.1501    0.0000 H   0  0  0  0  0  0  0  0  0  0  0  0
   17.5804    6.1501    0.0000 H   0  0  0  0  0  0  0  0  0  0  0  0
   18.6651    4.1753    0.0000 H   0  0  0  0  0  0  0  0  0  0  0  0
   20.0940    5.0003    0.0000 H   0  0  0  0  0  0  0  0  0  0  0  0
   19.3796    6.2378    0.0000 H   0  0  0  0  0  0  0  0  0  0  0  0
  1  2  2  0  0  0  0
  2  3  1  0  0  0  0
  3  4  1  0  0  0  0
  4  5  1  0  0  0  0
  5  6  2  0  0  0  0
  5  7  1  0  0  0  0
  7  8  1  0  0  0  0
  8  9  1  0  0  0  0
  9 10  1  0  0  0  0
 10 11  1  0  0  0  0
 11 12  1  0  0  0  0
 12 13  1  0  0  0  0
 13 14  1  0  0  0  0
 14 15  2  0  0  0  0
 14 16  1  0  0  0  0
 16 17  1  0  0  0  0
 17 18  1  0  0  0  0
 18 19  2  0  0  0  0
  1 20  1  0  0  0  0
  1 21  1  0  0  0  0
  2 22  1  0  0  0  0
  3 23  1  0  0  0  0
  3 24  1  0  0  0  0
  8 25  1  0  0  0  0
  8 26  1  0  0  0  0
  9 27  1  0  0  0  0
  9 28  1  0  0  0  0
 11 29  1  0  0  0  0
 11 30  1  0  0  0  0
 12 31  1  0  0  0  0
 12 32  1  0  0  0  0
 17 33  1  0  0  0  0
 17 34  1  0  0  0  0
 18 35  1  0  0  0  0
 19 36  1  0  0  0  0
 19 37  1  0  0  0  0
M  END
>  <InChIKey>
JHQVCQDWGSXTFE-UHFFFAOYSA-N

>  <UN GHS>
Non-irritant

>  <CASRN>
142-22-3

> <Outcome>
0

>  <Index>
340

>  <StandardizerResult>
Clear Stereo (ID: ClearStereo)
Wedge Clean (ID: WedgeClean)
Mesomerize (ID: Mesomerize)
Tautomerize (ID: Tautomerize)
Add Explicit Hydrogens (ID: AddExplicitH)
Neutralize (ID: Neutralize)
Clean 2D (ID: Clean2D)

> <knn Distance>
3.16227769851685

> <CpId>
340

$$$$
349
  Mrv1532301301811342D          

 19 18  0  0  0  0            999 V2000
   -0.2196    0.7344    0.0000 C   0  0  0  0  0  0  0  0  0  0  0  0
    0.4949    1.1469    0.0000 C   0  0  0  0  0  0  0  0  0  0  0  0
    1.2093    0.7344    0.0000 O   0  0  0  0  0  0  0  0  0  0  0  0
    1.9238    1.1469    0.0000 C   0  0  0  0  0  0  0  0  0  0  0  0
    2.6383    0.7344    0.0000 C   0  0  0  0  0  0  0  0  0  0  0  0
    3.3527    1.1469    0.0000 C   0  0  0  0  0  0  0  0  0  0  0  0
    2.6383   -0.0906    0.0000 O   0  0  0  0  0  0  0  0  0  0  0  0
   -0.6321    1.4489    0.0000 H   0  0  0  0  0  0  0  0  0  0  0  0
   -0.9341    0.3219    0.0000 H   0  0  0  0  0  0  0  0  0  0  0  0
    0.1929    0.0199    0.0000 H   0  0  0  0  0  0  0  0  0  0  0  0
    0.8651    1.8842    0.0000 H   0  0  0  0  0  0  0  0  0  0  0  0
    0.1246    1.8842    0.0000 H   0  0  0  0  0  0  0  0  0  0  0  0
    2.2941    1.8842    0.0000 H   0  0  0  0  0  0  0  0  0  0  0  0
    1.5535    1.8842    0.0000 H   0  0  0  0  0  0  0  0  0  0  0  0
    2.6383    1.5594    0.0000 H   0  0  0  0  0  0  0  0  0  0  0  0
    3.5663    0.3500    0.0000 H   0  0  0  0  0  0  0  0  0  0  0  0
    4.1777    1.1469    0.0000 H   0  0  0  0  0  0  0  0  0  0  0  0
    3.5663    1.9438    0.0000 H   0  0  0  0  0  0  0  0  0  0  0  0
    1.9238   -0.5031    0.0000 H   0  0  0  0  0  0  0  0  0  0  0  0
  1  2  1  0  0  0  0
  2  3  1  0  0  0  0
  3  4  1  0  0  0  0
  4  5  1  0  0  0  0
  5  6  1  0  0  0  0
  5  7  1  0  0  0  0
  1  8  1  0  0  0  0
  1  9  1  0  0  0  0
  1 10  1  0  0  0  0
  2 11  1  0  0  0  0
  2 12  1  0  0  0  0
  4 13  1  0  0  0  0
  4 14  1  0  0  0  0
  5 15  1  0  0  0  0
  6 16  1  0  0  0  0
  6 17  1  0  0  0  0
  6 18  1  0  0  0  0
  7 19  1  0  0  0  0
M  END
>  <InChIKey>
JOLQKTGDSGKSKJ-UHFFFAOYSA-N

>  <UN GHS>
Non-irritant

>  <CASRN>
1569-02-4

> <Outcome>
0

>  <Index>
349

>  <StandardizerResult>
Clear Stereo (ID: ClearStereo)
Wedge Clean (ID: WedgeClean)
Mesomerize (ID: Mesomerize)
Tautomerize (ID: Tautomerize)
Add Explicit Hydrogens (ID: AddExplicitH)
Neutralize (ID: Neutralize)
Clean 2D (ID: Clean2D)

> <knn Distance>
3.16227769851685

> <CpId>
349

$$$$
358
  Mrv1532301301811342D          

 19 18  0  0  0  0            999 V2000
   -0.2414    0.6022    0.0000 C   0  0  0  0  0  0  0  0  0  0  0  0
    0.4731    1.0147    0.0000 O   0  0  0  0  0  0  0  0  0  0  0  0
    1.1876    0.6022    0.0000 C   0  0  0  0  0  0  0  0  0  0  0  0
    1.1876   -0.2228    0.0000 C   0  0  0  0  0  0  0  0  0  0  0  0
    1.9020    1.0147    0.0000 C   0  0  0  0  0  0  0  0  0  0  0  0
    2.6165    0.6022    0.0000 C   0  0  0  0  0  0  0  0  0  0  0  0
    3.3310    1.0147    0.0000 O   0  0  0  0  0  0  0  0  0  0  0  0
   -0.6539    1.3167    0.0000 H   0  0  0  0  0  0  0  0  0  0  0  0
   -0.9559    0.1897    0.0000 H   0  0  0  0  0  0  0  0  0  0  0  0
    0.1711   -0.1122    0.0000 H   0  0  0  0  0  0  0  0  0  0  0  0
    0.4731    0.1897    0.0000 H   0  0  0  0  0  0  0  0  0  0  0  0
    0.6042   -0.8061    0.0000 H   0  0  0  0  0  0  0  0  0  0  0  0
    1.6001   -0.9372    0.0000 H   0  0  0  0  0  0  0  0  0  0  0  0
    1.9845   -0.0092    0.0000 H   0  0  0  0  0  0  0  0  0  0  0  0
    2.2723    1.7520    0.0000 H   0  0  0  0  0  0  0  0  0  0  0  0
    1.5318    1.7520    0.0000 H   0  0  0  0  0  0  0  0  0  0  0  0
    3.1133   -0.0564    0.0000 H   0  0  0  0  0  0  0  0  0  0  0  0
    2.6165    1.4272    0.0000 H   0  0  0  0  0  0  0  0  0  0  0  0
    4.1560    1.0147    0.0000 H   0  0  0  0  0  0  0  0  0  0  0  0
  1  2  1  0  0  0  0
  2  3  1  0  0  0  0
  3  4  1  0  0  0  0
  3  5  1  0  0  0  0
  5  6  1  0  0  0  0
  6  7  1  0  0  0  0
  1  8  1  0  0  0  0
  1  9  1  0  0  0  0
  1 10  1  0  0  0  0
  3 11  1  0  0  0  0
  4 12  1  0  0  0  0
  4 13  1  0  0  0  0
  4 14  1  0  0  0  0
  5 15  1  0  0  0  0
  5 16  1  0  0  0  0
  6 17  1  0  0  0  0
  6 18  1  0  0  0  0
  7 19  1  0  0  0  0
M  END
>  <InChIKey>
JSGVZVOGOQILFM-UHFFFAOYSA-N

>  <UN GHS>
Non-irritant

>  <CASRN>
2517-43-3

> <Outcome>
0

>  <Index>
358

>  <StandardizerResult>
Clear Stereo (ID: ClearStereo)
Wedge Clean (ID: WedgeClean)
Mesomerize (ID: Mesomerize)
Tautomerize (ID: Tautomerize)
Add Explicit Hydrogens (ID: AddExplicitH)
Neutralize (ID: Neutralize)
Clean 2D (ID: Clean2D)

> <knn Distance>
3.16227769851685

> <CpId>
358

$$$$
399
  Mrv1532301301811342D          

 36 36  0  0  0  0            999 V2000
   -0.7064    3.7181    0.0000 C   0  0  0  0  0  0  0  0  0  0  0  0
    0.0080    3.3056    0.0000 C   0  0  0  0  0  0  0  0  0  0  0  0
    0.0080    2.4806    0.0000 O   0  0  0  0  0  0  0  0  0  0  0  0
    0.7225    2.0681    0.0000 C   0  0  0  0  0  0  0  0  0  0  0  0
    1.4370    2.4806    0.0000 O   0  0  0  0  0  0  0  0  0  0  0  0
    0.7225    1.2431    0.0000 C   0  0  0  0  0  0  0  0  0  0  0  0
    1.4370    0.8306    0.0000 C   0  0  0  0  0  0  0  0  0  0  0  0
    1.4370    0.0056    0.0000 C   0  0  0  0  0  0  0  0  0  0  0  0
    0.7225   -0.4069    0.0000 C   0  0  0  0  0  0  0  0  0  0  0  0
    0.0080    0.0056    0.0000 C   0  0  0  0  0  0  0  0  0  0  0  0
    0.0080    0.8306    0.0000 C   0  0  0  0  0  0  0  0  0  0  0  0
    0.7225   -1.2319    0.0000 C   0  0  0  0  0  0  0  0  0  0  0  0
    0.0080   -1.6444    0.0000 O   0  0  0  0  0  0  0  0  0  0  0  0
    1.4370   -1.6444    0.0000 O   0  0  0  0  0  0  0  0  0  0  0  0
    1.4370   -2.4694    0.0000 C   0  0  0  0  0  0  0  0  0  0  0  0
    2.1514   -2.8819    0.0000 C   0  0  0  0  0  0  0  0  0  0  0  0
   -0.2939    4.4326    0.0000 H   0  0  0  0  0  0  0  0  0  0  0  0
   -1.4209    4.1306    0.0000 H   0  0  0  0  0  0  0  0  0  0  0  0
   -1.1189    3.0036    0.0000 H   0  0  0  0  0  0  0  0  0  0  0  0
    0.8316    3.3536    0.0000 H   0  0  0  0  0  0  0  0  0  0  0  0
    0.4614    3.9949    0.0000 H   0  0  0  0  0  0  0  0  0  0  0  0
    0.0080    1.6556    0.0000 H   0  0  0  0  0  0  0  0  0  0  0  0
    2.2606    0.8786    0.0000 H   0  0  0  0  0  0  0  0  0  0  0  0
    1.8903    1.5199    0.0000 H   0  0  0  0  0  0  0  0  0  0  0  0
    1.8903   -0.6837    0.0000 H   0  0  0  0  0  0  0  0  0  0  0  0
    2.2606   -0.0424    0.0000 H   0  0  0  0  0  0  0  0  0  0  0  0
    0.0080   -0.8194    0.0000 H   0  0  0  0  0  0  0  0  0  0  0  0
   -0.7672    0.2878    0.0000 H   0  0  0  0  0  0  0  0  0  0  0  0
   -0.7672   -0.2766    0.0000 H   0  0  0  0  0  0  0  0  0  0  0  0
   -0.7238    1.2116    0.0000 H   0  0  0  0  0  0  0  0  0  0  0  0
    0.7225    0.4181    0.0000 H   0  0  0  0  0  0  0  0  0  0  0  0
    0.6134   -2.5174    0.0000 H   0  0  0  0  0  0  0  0  0  0  0  0
    0.9836   -3.1587    0.0000 H   0  0  0  0  0  0  0  0  0  0  0  0
    1.7389   -3.5964    0.0000 H   0  0  0  0  0  0  0  0  0  0  0  0
    2.8659   -3.2944    0.0000 H   0  0  0  0  0  0  0  0  0  0  0  0
    2.5639   -2.1674    0.0000 H   0  0  0  0  0  0  0  0  0  0  0  0
  1  2  1  0  0  0  0
  2  3  1  0  0  0  0
  3  4  1  0  0  0  0
  4  5  2  0  0  0  0
  4  6  1  0  0  0  0
  6  7  1  0  0  0  0
  7  8  1  0  0  0  0
  8  9  1  0  0  0  0
  9 10  1  0  0  0  0
 10 11  1  0  0  0  0
  6 11  1  0  0  0  0
  9 12  1  0  0  0  0
 12 13  2  0  0  0  0
 12 14  1  0  0  0  0
 14 15  1  0  0  0  0
 15 16  1  0  0  0  0
  1 17  1  0  0  0  0
  1 18  1  0  0  0  0
  1 19  1  0  0  0  0
  2 20  1  0  0  0  0
  2 21  1  0  0  0  0
  6 22  1  0  0  0  0
  7 23  1  0  0  0  0
  7 24  1  0  0  0  0
  8 25  1  0  0  0  0
  8 26  1  0  0  0  0
  9 27  1  0  0  0  0
 10 28  1  0  0  0  0
 10 29  1  0  0  0  0
 11 30  1  0  0  0  0
 11 31  1  0  0  0  0
 15 32  1  0  0  0  0
 15 33  1  0  0  0  0
 16 34  1  0  0  0  0
 16 35  1  0  0  0  0
 16 36  1  0  0  0  0
M  END
>  <InChIKey>
KRJHRNUTLDTSKY-UHFFFAOYSA-N

>  <UN GHS>
Non-irritant

>  <CASRN>
72903-27-6

> <Outcome>
0

>  <Index>
399

>  <StandardizerResult>
Clear Stereo (ID: ClearStereo)
Wedge Clean (ID: WedgeClean)
Mesomerize (ID: Mesomerize)
Tautomerize (ID: Tautomerize)
Add Explicit Hydrogens (ID: AddExplicitH)
Neutralize (ID: Neutralize)
Clean 2D (ID: Clean2D)

> <knn Distance>
3.16227769851685

> <CpId>
399

$$$$
436
  Mrv1532301301811342D          

 21 20  0  0  0  0            999 V2000
    1.7307    1.8529    0.0000 C   0  0  0  0  0  0  0  0  0  0  0  0
    2.4452    1.4404    0.0000 O   0  0  0  0  0  0  0  0  0  0  0  0
    3.1597    1.8529    0.0000 C   0  0  0  0  0  0  0  0  0  0  0  0
    3.8741    1.4404    0.0000 C   0  0  0  0  0  0  0  0  0  0  0  0
    3.8741    0.6154    0.0000 C   0  0  0  0  0  0  0  0  0  0  0  0
    4.5886    1.8529    0.0000 O   0  0  0  0  0  0  0  0  0  0  0  0
    5.3031    1.4404    0.0000 C   0  0  0  0  0  0  0  0  0  0  0  0
    6.0175    1.8529    0.0000 C   0  0  0  0  0  0  0  0  0  0  0  0
    5.3031    0.6154    0.0000 O   0  0  0  0  0  0  0  0  0  0  0  0
    2.1432    2.5674    0.0000 H   0  0  0  0  0  0  0  0  0  0  0  0
    1.0162    2.2654    0.0000 H   0  0  0  0  0  0  0  0  0  0  0  0
    1.3182    1.1384    0.0000 H   0  0  0  0  0  0  0  0  0  0  0  0
    3.5299    2.5902    0.0000 H   0  0  0  0  0  0  0  0  0  0  0  0
    2.7894    2.5902    0.0000 H   0  0  0  0  0  0  0  0  0  0  0  0
    3.1597    1.0279    0.0000 H   0  0  0  0  0  0  0  0  0  0  0  0
    3.2908    0.0320    0.0000 H   0  0  0  0  0  0  0  0  0  0  0  0
    4.2866   -0.0991    0.0000 H   0  0  0  0  0  0  0  0  0  0  0  0
    4.6710    0.8289    0.0000 H   0  0  0  0  0  0  0  0  0  0  0  0
    6.4300    1.1384    0.0000 H   0  0  0  0  0  0  0  0  0  0  0  0
    6.7320    2.2654    0.0000 H   0  0  0  0  0  0  0  0  0  0  0  0
    5.6050    2.5674    0.0000 H   0  0  0  0  0  0  0  0  0  0  0  0
  1  2  1  0  0  0  0
  2  3  1  0  0  0  0
  3  4  1  0  0  0  0
  4  5  1  0  0  0  0
  4  6  1  0  0  0  0
  6  7  1  0  0  0  0
  7  8  1  0  0  0  0
  7  9  2  0  0  0  0
  1 10  1  0  0  0  0
  1 11  1  0  0  0  0
  1 12  1  0  0  0  0
  3 13  1  0  0  0  0
  3 14  1  0  0  0  0
  4 15  1  0  0  0  0
  5 16  1  0  0  0  0
  5 17  1  0  0  0  0
  5 18  1  0  0  0  0
  8 19  1  0  0  0  0
  8 20  1  0  0  0  0
  8 21  1  0  0  0  0
M  END
>  <InChIKey>
LLHKCFNBLRBOGN-UHFFFAOYSA-N

>  <UN GHS>
Non-irritant

>  <CASRN>
108-65-6

> <Outcome>
0

>  <Index>
436

>  <StandardizerResult>
Clear Stereo (ID: ClearStereo)
Wedge Clean (ID: WedgeClean)
Mesomerize (ID: Mesomerize)
Tautomerize (ID: Tautomerize)
Add Explicit Hydrogens (ID: AddExplicitH)
Neutralize (ID: Neutralize)
Clean 2D (ID: Clean2D)

> <knn Distance>
3.16227769851685

> <CpId>
436

$$$$
437
  Mrv1532301301811342D          

 63 62  0  0  0  0            999 V2000
   -2.1434   -7.8245    0.0000 C   0  0  0  0  0  0  0  0  0  0  0  0
   -1.4289   -8.2370    0.0000 C   0  0  0  0  0  0  0  0  0  0  0  0
   -0.7145   -7.8245    0.0000 C   0  0  0  0  0  0  0  0  0  0  0  0
    0.0000   -8.2370    0.0000 C   0  0  0  0  0  0  0  0  0  0  0  0
    0.7145   -7.8245    0.0000 N   0  0  0  0  0  0  0  0  0  0  0  0
    0.7145   -6.9995    0.0000 C   0  0  0  0  0  0  0  0  0  0  0  0
    0.0000   -6.5870    0.0000 C   0  0  0  0  0  0  0  0  0  0  0  0
    0.0000   -5.7620    0.0000 C   0  0  0  0  0  0  0  0  0  0  0  0
   -0.7145   -5.3495    0.0000 C   0  0  0  0  0  0  0  0  0  0  0  0
    1.4289   -8.2370    0.0000 C   0  0  0  0  0  0  0  0  0  0  0  0
    1.4289   -9.0620    0.0000 S   0  0  0  0  0  0  0  0  0  0  0  0
    2.1434   -7.8245    0.0000 S   0  0  0  0  0  0  0  0  0  0  0  0
    2.8579   -8.2370    0.0000 C   0  0  0  0  0  0  0  0  0  0  0  0
    3.5724   -7.8245    0.0000 S   0  0  0  0  0  0  0  0  0  0  0  0
    4.2868   -8.2370    0.0000 C   0  0  0  0  0  0  0  0  0  0  0  0
    4.2868   -9.0620    0.0000 S   0  0  0  0  0  0  0  0  0  0  0  0
    5.0013   -7.8245    0.0000 N   0  0  0  0  0  0  0  0  0  0  0  0
    5.7158   -8.2370    0.0000 C   0  0  0  0  0  0  0  0  0  0  0  0
    6.4302   -7.8245    0.0000 C   0  0  0  0  0  0  0  0  0  0  0  0
    7.1447   -8.2370    0.0000 C   0  0  0  0  0  0  0  0  0  0  0  0
    7.8592   -7.8245    0.0000 C   0  0  0  0  0  0  0  0  0  0  0  0
    5.0013   -6.9995    0.0000 C   0  0  0  0  0  0  0  0  0  0  0  0
    5.7158   -6.5870    0.0000 C   0  0  0  0  0  0  0  0  0  0  0  0
    5.7158   -5.7620    0.0000 C   0  0  0  0  0  0  0  0  0  0  0  0
    6.4302   -5.3495    0.0000 C   0  0  0  0  0  0  0  0  0  0  0  0
   -1.7309   -7.1100    0.0000 H   0  0  0  0  0  0  0  0  0  0  0  0
   -2.8579   -7.4120    0.0000 H   0  0  0  0  0  0  0  0  0  0  0  0
   -2.5559   -8.5389    0.0000 H   0  0  0  0  0  0  0  0  0  0  0  0
   -1.7992   -8.9742    0.0000 H   0  0  0  0  0  0  0  0  0  0  0  0
   -1.0587   -8.9742    0.0000 H   0  0  0  0  0  0  0  0  0  0  0  0
   -0.3442   -7.0872    0.0000 H   0  0  0  0  0  0  0  0  0  0  0  0
   -1.0847   -7.0872    0.0000 H   0  0  0  0  0  0  0  0  0  0  0  0
   -0.3703   -8.9742    0.0000 H   0  0  0  0  0  0  0  0  0  0  0  0
    0.3703   -8.9742    0.0000 H   0  0  0  0  0  0  0  0  0  0  0  0
    1.5381   -6.9515    0.0000 H   0  0  0  0  0  0  0  0  0  0  0  0
    1.1678   -6.3102    0.0000 H   0  0  0  0  0  0  0  0  0  0  0  0
   -0.7878   -6.3421    0.0000 H   0  0  0  0  0  0  0  0  0  0  0  0
    0.7145   -6.1745    0.0000 H   0  0  0  0  0  0  0  0  0  0  0  0
    0.6320   -5.2317    0.0000 H   0  0  0  0  0  0  0  0  0  0  0  0
    0.1433   -4.9495    0.0000 H   0  0  0  0  0  0  0  0  0  0  0  0
   -0.8754   -4.5403    0.0000 H   0  0  0  0  0  0  0  0  0  0  0  0
   -1.5387   -5.3135    0.0000 H   0  0  0  0  0  0  0  0  0  0  0  0
   -0.9453   -6.1415    0.0000 H   0  0  0  0  0  0  0  0  0  0  0  0
    2.4876   -8.9742    0.0000 H   0  0  0  0  0  0  0  0  0  0  0  0
    3.2281   -8.9742    0.0000 H   0  0  0  0  0  0  0  0  0  0  0  0
    5.3455   -8.9742    0.0000 H   0  0  0  0  0  0  0  0  0  0  0  0
    6.0860   -8.9742    0.0000 H   0  0  0  0  0  0  0  0  0  0  0  0
    6.8005   -7.0872    0.0000 H   0  0  0  0  0  0  0  0  0  0  0  0
    6.0600   -7.0872    0.0000 H   0  0  0  0  0  0  0  0  0  0  0  0
    6.7745   -8.9742    0.0000 H   0  0  0  0  0  0  0  0  0  0  0  0
    7.5150   -8.9742    0.0000 H   0  0  0  0  0  0  0  0  0  0  0  0
    8.2717   -8.5389    0.0000 H   0  0  0  0  0  0  0  0  0  0  0  0
    8.5737   -7.4120    0.0000 H   0  0  0  0  0  0  0  0  0  0  0  0
    7.4467   -7.1100    0.0000 H   0  0  0  0  0  0  0  0  0  0  0  0
    4.5480   -6.3102    0.0000 H   0  0  0  0  0  0  0  0  0  0  0  0
    4.1777   -6.9515    0.0000 H   0  0  0  0  0  0  0  0  0  0  0  0
    6.5036   -6.3421    0.0000 H   0  0  0  0  0  0  0  0  0  0  0  0
    5.0013   -6.1745    0.0000 H   0  0  0  0  0  0  0  0  0  0  0  0
    5.5725   -4.9495    0.0000 H   0  0  0  0  0  0  0  0  0  0  0  0
    5.0838   -5.2317    0.0000 H   0  0  0  0  0  0  0  0  0  0  0  0
    6.6611   -6.1415    0.0000 H   0  0  0  0  0  0  0  0  0  0  0  0
    7.2545   -5.3135    0.0000 H   0  0  0  0  0  0  0  0  0  0  0  0
    6.5912   -4.5403    0.0000 H   0  0  0  0  0  0  0  0  0  0  0  0
  1  2  1  0  0  0  0
  2  3  1  0  0  0  0
  3  4  1  0  0  0  0
  4  5  1  0  0  0  0
  5  6  1  0  0  0  0
  6  7  1  0  0  0  0
  7  8  1  0  0  0  0
  8  9  1  0  0  0  0
  5 10  1  0  0  0  0
 10 11  2  0  0  0  0
 10 12  1  0  0  0  0
 12 13  1  0  0  0  0
 13 14  1  0  0  0  0
 14 15  1  0  0  0  0
 15 16  2  0  0  0  0
 15 17  1  0  0  0  0
 17 18  1  0  0  0  0
 18 19  1  0  0  0  0
 19 20  1  0  0  0  0
 20 21  1  0  0  0  0
 17 22  1  0  0  0  0
 22 23  1  0  0  0  0
 23 24  1  0  0  0  0
 24 25  1  0  0  0  0
  1 26  1  0  0  0  0
  1 27  1  0  0  0  0
  1 28  1  0  0  0  0
  2 29  1  0  0  0  0
  2 30  1  0  0  0  0
  3 31  1  0  0  0  0
  3 32  1  0  0  0  0
  4 33  1  0  0  0  0
  4 34  1  0  0  0  0
  6 35  1  0  0  0  0
  6 36  1  0  0  0  0
  7 37  1  0  0  0  0
  7 38  1  0  0  0  0
  8 39  1  0  0  0  0
  8 40  1  0  0  0  0
  9 41  1  0  0  0  0
  9 42  1  0  0  0  0
  9 43  1  0  0  0  0
 13 44  1  0  0  0  0
 13 45  1  0  0  0  0
 18 46  1  0  0  0  0
 18 47  1  0  0  0  0
 19 48  1  0  0  0  0
 19 49  1  0  0  0  0
 20 50  1  0  0  0  0
 20 51  1  0  0  0  0
 21 52  1  0  0  0  0
 21 53  1  0  0  0  0
 21 54  1  0  0  0  0
 22 55  1  0  0  0  0
 22 56  1  0  0  0  0
 23 57  1  0  0  0  0
 23 58  1  0  0  0  0
 24 59  1  0  0  0  0
 24 60  1  0  0  0  0
 25 61  1  0  0  0  0
 25 62  1  0  0  0  0
 25 63  1  0  0  0  0
M  END
>  <InChIKey>
LMODBLQHQHXPEI-UHFFFAOYSA-N

>  <UN GHS>
Non-irritant

>  <CASRN>
10254-57-6

> <Outcome>
0

>  <Index>
437

>  <StandardizerResult>
Clear Stereo (ID: ClearStereo)
Wedge Clean (ID: WedgeClean)
Mesomerize (ID: Mesomerize)
Tautomerize (ID: Tautomerize)
Add Explicit Hydrogens (ID: AddExplicitH)
Neutralize (ID: Neutralize)
Clean 2D (ID: Clean2D)

> <knn Distance>
3.16227769851685

> <CpId>
437

$$$$
492
  Mrv1532301301811342D          

112111  0  0  0  0            999 V2000
   19.6086   12.1460    0.0000 C   0  0  0  0  0  0  0  0  0  0  0  0
   20.3230   12.5585    0.0000 C   0  0  0  0  0  0  0  0  0  0  0  0
   21.0375   12.1460    0.0000 C   0  0  0  0  0  0  0  0  0  0  0  0
   21.7520   12.5585    0.0000 C   0  0  0  0  0  0  0  0  0  0  0  0
   22.4664   12.1460    0.0000 C   0  0  0  0  0  0  0  0  0  0  0  0
   23.1809   12.5585    0.0000 C   0  0  0  0  0  0  0  0  0  0  0  0
   23.8954   12.1460    0.0000 C   0  0  0  0  0  0  0  0  0  0  0  0
   24.6099   12.5585    0.0000 C   0  0  0  0  0  0  0  0  0  0  0  0
   25.3243   12.1460    0.0000 C   0  0  0  0  0  0  0  0  0  0  0  0
   26.0388   12.5585    0.0000 C   0  0  0  0  0  0  0  0  0  0  0  0
   26.7533   12.1460    0.0000 C   0  0  0  0  0  0  0  0  0  0  0  0
   27.4677   12.5585    0.0000 C   0  0  0  0  0  0  0  0  0  0  0  0
   28.1822   12.1460    0.0000 C   0  0  0  0  0  0  0  0  0  0  0  0
   28.8967   12.5585    0.0000 C   0  0  0  0  0  0  0  0  0  0  0  0
   29.6112   12.1460    0.0000 C   0  0  0  0  0  0  0  0  0  0  0  0
   30.3256   12.5585    0.0000 C   0  0  0  0  0  0  0  0  0  0  0  0
   31.0401   12.1460    0.0000 C   0  0  0  0  0  0  0  0  0  0  0  0
   31.7546   12.5585    0.0000 C   0  0  0  0  0  0  0  0  0  0  0  0
   32.4690   12.1460    0.0000 S   0  0  0  0  0  0  0  0  0  0  0  0
   33.1835   12.5585    0.0000 S   0  0  0  0  0  0  0  0  0  0  0  0
   33.8980   12.1460    0.0000 C   0  0  0  0  0  0  0  0  0  0  0  0
   34.6124   12.5585    0.0000 C   0  0  0  0  0  0  0  0  0  0  0  0
   35.3269   12.1460    0.0000 C   0  0  0  0  0  0  0  0  0  0  0  0
   36.0414   12.5585    0.0000 C   0  0  0  0  0  0  0  0  0  0  0  0
   36.7559   12.1460    0.0000 C   0  0  0  0  0  0  0  0  0  0  0  0
   37.4703   12.5585    0.0000 C   0  0  0  0  0  0  0  0  0  0  0  0
   38.1848   12.1460    0.0000 C   0  0  0  0  0  0  0  0  0  0  0  0
   38.8993   12.5585    0.0000 C   0  0  0  0  0  0  0  0  0  0  0  0
   39.6137   12.1460    0.0000 C   0  0  0  0  0  0  0  0  0  0  0  0
   40.3282   12.5585    0.0000 C   0  0  0  0  0  0  0  0  0  0  0  0
   41.0427   12.1460    0.0000 C   0  0  0  0  0  0  0  0  0  0  0  0
   41.7572   12.5585    0.0000 C   0  0  0  0  0  0  0  0  0  0  0  0
   42.4716   12.1460    0.0000 C   0  0  0  0  0  0  0  0  0  0  0  0
   43.1861   12.5585    0.0000 C   0  0  0  0  0  0  0  0  0  0  0  0
   43.9006   12.1460    0.0000 C   0  0  0  0  0  0  0  0  0  0  0  0
   44.6150   12.5585    0.0000 C   0  0  0  0  0  0  0  0  0  0  0  0
   45.3295   12.1460    0.0000 C   0  0  0  0  0  0  0  0  0  0  0  0
   46.0440   12.5585    0.0000 C   0  0  0  0  0  0  0  0  0  0  0  0
   19.1961   12.8605    0.0000 H   0  0  0  0  0  0  0  0  0  0  0  0
   18.8941   11.7335    0.0000 H   0  0  0  0  0  0  0  0  0  0  0  0
   20.0211   11.4315    0.0000 H   0  0  0  0  0  0  0  0  0  0  0  0
   20.6933   13.2957    0.0000 H   0  0  0  0  0  0  0  0  0  0  0  0
   19.9528   13.2957    0.0000 H   0  0  0  0  0  0  0  0  0  0  0  0
   20.6672   11.4088    0.0000 H   0  0  0  0  0  0  0  0  0  0  0  0
   21.4078   11.4088    0.0000 H   0  0  0  0  0  0  0  0  0  0  0  0
   22.1222   13.2957    0.0000 H   0  0  0  0  0  0  0  0  0  0  0  0
   21.3817   13.2957    0.0000 H   0  0  0  0  0  0  0  0  0  0  0  0
   22.0962   11.4088    0.0000 H   0  0  0  0  0  0  0  0  0  0  0  0
   22.8367   11.4088    0.0000 H   0  0  0  0  0  0  0  0  0  0  0  0
   23.5512   13.2957    0.0000 H   0  0  0  0  0  0  0  0  0  0  0  0
   22.8107   13.2957    0.0000 H   0  0  0  0  0  0  0  0  0  0  0  0
   23.5251   11.4088    0.0000 H   0  0  0  0  0  0  0  0  0  0  0  0
   24.2656   11.4088    0.0000 H   0  0  0  0  0  0  0  0  0  0  0  0
   24.9801   13.2957    0.0000 H   0  0  0  0  0  0  0  0  0  0  0  0
   24.2396   13.2957    0.0000 H   0  0  0  0  0  0  0  0  0  0  0  0
   24.9541   11.4088    0.0000 H   0  0  0  0  0  0  0  0  0  0  0  0
   25.6946   11.4088    0.0000 H   0  0  0  0  0  0  0  0  0  0  0  0
   26.4091   13.2957    0.0000 H   0  0  0  0  0  0  0  0  0  0  0  0
   25.6685   13.2957    0.0000 H   0  0  0  0  0  0  0  0  0  0  0  0
   26.3830   11.4088    0.0000 H   0  0  0  0  0  0  0  0  0  0  0  0
   27.1235   11.4088    0.0000 H   0  0  0  0  0  0  0  0  0  0  0  0
   27.8380   13.2957    0.0000 H   0  0  0  0  0  0  0  0  0  0  0  0
   27.0975   13.2957    0.0000 H   0  0  0  0  0  0  0  0  0  0  0  0
   27.8120   11.4088    0.0000 H   0  0  0  0  0  0  0  0  0  0  0  0
   28.5525   11.4088    0.0000 H   0  0  0  0  0  0  0  0  0  0  0  0
   29.2669   13.2957    0.0000 H   0  0  0  0  0  0  0  0  0  0  0  0
   28.5264   13.2957    0.0000 H   0  0  0  0  0  0  0  0  0  0  0  0
   29.2409   11.4088    0.0000 H   0  0  0  0  0  0  0  0  0  0  0  0
   29.9814   11.4088    0.0000 H   0  0  0  0  0  0  0  0  0  0  0  0
   30.6959   13.2957    0.0000 H   0  0  0  0  0  0  0  0  0  0  0  0
   29.9554   13.2957    0.0000 H   0  0  0  0  0  0  0  0  0  0  0  0
   30.6698   11.4088    0.0000 H   0  0  0  0  0  0  0  0  0  0  0  0
   31.4104   11.4088    0.0000 H   0  0  0  0  0  0  0  0  0  0  0  0
   32.1248   13.2957    0.0000 H   0  0  0  0  0  0  0  0  0  0  0  0
   31.3843   13.2957    0.0000 H   0  0  0  0  0  0  0  0  0  0  0  0
   33.5277   11.4088    0.0000 H   0  0  0  0  0  0  0  0  0  0  0  0
   34.2682   11.4088    0.0000 H   0  0  0  0  0  0  0  0  0  0  0  0
   34.9827   13.2957    0.0000 H   0  0  0  0  0  0  0  0  0  0  0  0
   34.2422   13.2957    0.0000 H   0  0  0  0  0  0  0  0  0  0  0  0
   34.9567   11.4088    0.0000 H   0  0  0  0  0  0  0  0  0  0  0  0
   35.6972   11.4088    0.0000 H   0  0  0  0  0  0  0  0  0  0  0  0
   36.4117   13.2957    0.0000 H   0  0  0  0  0  0  0  0  0  0  0  0
   35.6711   13.2957    0.0000 H   0  0  0  0  0  0  0  0  0  0  0  0
   36.3856   11.4088    0.0000 H   0  0  0  0  0  0  0  0  0  0  0  0
   37.1261   11.4088    0.0000 H   0  0  0  0  0  0  0  0  0  0  0  0
   37.8406   13.2957    0.0000 H   0  0  0  0  0  0  0  0  0  0  0  0
   37.1001   13.2957    0.0000 H   0  0  0  0  0  0  0  0  0  0  0  0
   37.8145   11.4088    0.0000 H   0  0  0  0  0  0  0  0  0  0  0  0
   38.5551   11.4088    0.0000 H   0  0  0  0  0  0  0  0  0  0  0  0
   39.2695   13.2957    0.0000 H   0  0  0  0  0  0  0  0  0  0  0  0
   38.5290   13.2957    0.0000 H   0  0  0  0  0  0  0  0  0  0  0  0
   39.2435   11.4088    0.0000 H   0  0  0  0  0  0  0  0  0  0  0  0
   39.9840   11.4088    0.0000 H   0  0  0  0  0  0  0  0  0  0  0  0
   40.6985   13.2957    0.0000 H   0  0  0  0  0  0  0  0  0  0  0  0
   39.9580   13.2957    0.0000 H   0  0  0  0  0  0  0  0  0  0  0  0
   40.6724   11.4088    0.0000 H   0  0  0  0  0  0  0  0  0  0  0  0
   41.4129   11.4088    0.0000 H   0  0  0  0  0  0  0  0  0  0  0  0
   42.1274   13.2957    0.0000 H   0  0  0  0  0  0  0  0  0  0  0  0
   41.3869   13.2957    0.0000 H   0  0  0  0  0  0  0  0  0  0  0  0
   42.1014   11.4088    0.0000 H   0  0  0  0  0  0  0  0  0  0  0  0
   42.8419   11.4088    0.0000 H   0  0  0  0  0  0  0  0  0  0  0  0
   43.5564   13.2957    0.0000 H   0  0  0  0  0  0  0  0  0  0  0  0
   42.8158   13.2957    0.0000 H   0  0  0  0  0  0  0  0  0  0  0  0
   43.5303   11.4088    0.0000 H   0  0  0  0  0  0  0  0  0  0  0  0
   44.2708   11.4088    0.0000 H   0  0  0  0  0  0  0  0  0  0  0  0
   44.9853   13.2957    0.0000 H   0  0  0  0  0  0  0  0  0  0  0  0
   44.2448   13.2957    0.0000 H   0  0  0  0  0  0  0  0  0  0  0  0
   44.9593   11.4088    0.0000 H   0  0  0  0  0  0  0  0  0  0  0  0
   45.6998   11.4088    0.0000 H   0  0  0  0  0  0  0  0  0  0  0  0
   46.4565   11.8440    0.0000 H   0  0  0  0  0  0  0  0  0  0  0  0
   46.7585   12.9710    0.0000 H   0  0  0  0  0  0  0  0  0  0  0  0
   45.6315   13.2730    0.0000 H   0  0  0  0  0  0  0  0  0  0  0  0
  1  2  1  0  0  0  0
  2  3  1  0  0  0  0
  3  4  1  0  0  0  0
  4  5  1  0  0  0  0
  5  6  1  0  0  0  0
  6  7  1  0  0  0  0
  7  8  1  0  0  0  0
  8  9  1  0  0  0  0
  9 10  1  0  0  0  0
 10 11  1  0  0  0  0
 11 12  1  0  0  0  0
 12 13  1  0  0  0  0
 13 14  1  0  0  0  0
 14 15  1  0  0  0  0
 15 16  1  0  0  0  0
 16 17  1  0  0  0  0
 17 18  1  0  0  0  0
 18 19  1  0  0  0  0
 19 20  1  0  0  0  0
 20 21  1  0  0  0  0
 21 22  1  0  0  0  0
 22 23  1  0  0  0  0
 23 24  1  0  0  0  0
 24 25  1  0  0  0  0
 25 26  1  0  0  0  0
 26 27  1  0  0  0  0
 27 28  1  0  0  0  0
 28 29  1  0  0  0  0
 29 30  1  0  0  0  0
 30 31  1  0  0  0  0
 31 32  1  0  0  0  0
 32 33  1  0  0  0  0
 33 34  1  0  0  0  0
 34 35  1  0  0  0  0
 35 36  1  0  0  0  0
 36 37  1  0  0  0  0
 37 38  1  0  0  0  0
  1 39  1  0  0  0  0
  1 40  1  0  0  0  0
  1 41  1  0  0  0  0
  2 42  1  0  0  0  0
  2 43  1  0  0  0  0
  3 44  1  0  0  0  0
  3 45  1  0  0  0  0
  4 46  1  0  0  0  0
  4 47  1  0  0  0  0
  5 48  1  0  0  0  0
  5 49  1  0  0  0  0
  6 50  1  0  0  0  0
  6 51  1  0  0  0  0
  7 52  1  0  0  0  0
  7 53  1  0  0  0  0
  8 54  1  0  0  0  0
  8 55  1  0  0  0  0
  9 56  1  0  0  0  0
  9 57  1  0  0  0  0
 10 58  1  0  0  0  0
 10 59  1  0  0  0  0
 11 60  1  0  0  0  0
 11 61  1  0  0  0  0
 12 62  1  0  0  0  0
 12 63  1  0  0  0  0
 13 64  1  0  0  0  0
 13 65  1  0  0  0  0
 14 66  1  0  0  0  0
 14 67  1  0  0  0  0
 15 68  1  0  0  0  0
 15 69  1  0  0  0  0
 16 70  1  0  0  0  0
 16 71  1  0  0  0  0
 17 72  1  0  0  0  0
 17 73  1  0  0  0  0
 18 74  1  0  0  0  0
 18 75  1  0  0  0  0
 21 76  1  0  0  0  0
 21 77  1  0  0  0  0
 22 78  1  0  0  0  0
 22 79  1  0  0  0  0
 23 80  1  0  0  0  0
 23 81  1  0  0  0  0
 24 82  1  0  0  0  0
 24 83  1  0  0  0  0
 25 84  1  0  0  0  0
 25 85  1  0  0  0  0
 26 86  1  0  0  0  0
 26 87  1  0  0  0  0
 27 88  1  0  0  0  0
 27 89  1  0  0  0  0
 28 90  1  0  0  0  0
 28 91  1  0  0  0  0
 29 92  1  0  0  0  0
 29 93  1  0  0  0  0
 30 94  1  0  0  0  0
 30 95  1  0  0  0  0
 31 96  1  0  0  0  0
 31 97  1  0  0  0  0
 32 98  1  0  0  0  0
 32 99  1  0  0  0  0
 33100  1  0  0  0  0
 33101  1  0  0  0  0
 34102  1  0  0  0  0
 34103  1  0  0  0  0
 35104  1  0  0  0  0
 35105  1  0  0  0  0
 36106  1  0  0  0  0
 36107  1  0  0  0  0
 37108  1  0  0  0  0
 37109  1  0  0  0  0
 38110  1  0  0  0  0
 38111  1  0  0  0  0
 38112  1  0  0  0  0
M  END
>  <InChIKey>
MQQKTNDBASEZSD-UHFFFAOYSA-N

>  <UN GHS>
Non-irritant

>  <CASRN>
2500-88-1

> <Outcome>
0

>  <Index>
492

>  <StandardizerResult>
Clear Stereo (ID: ClearStereo)
Wedge Clean (ID: WedgeClean)
Mesomerize (ID: Mesomerize)
Tautomerize (ID: Tautomerize)
Add Explicit Hydrogens (ID: AddExplicitH)
Neutralize (ID: Neutralize)
Clean 2D (ID: Clean2D)

> <knn Distance>
3.16227769851685

> <CpId>
492

$$$$
498
  Mrv1532301301811342D          

 78 78  0  0  0  0            999 V2000
   -4.3716   -2.1863    0.0000 C   0  0  0  0  0  0  0  0  0  0  0  0
   -3.8316   -1.5626    0.0000 C   0  0  0  0  0  0  0  0  0  0  0  0
   -3.0214   -1.7185    0.0000 C   0  0  0  0  0  0  0  0  0  0  0  0
   -2.4813   -1.0949    0.0000 C   0  0  0  0  0  0  0  0  0  0  0  0
   -1.6712   -1.2508    0.0000 C   0  0  0  0  0  0  0  0  0  0  0  0
   -1.1311   -0.6272    0.0000 C   0  0  0  0  0  0  0  0  0  0  0  0
   -1.4011    0.1524    0.0000 C   0  0  0  0  0  0  0  0  0  0  0  0
   -2.2113    0.3083    0.0000 C   0  0  0  0  0  0  0  0  0  0  0  0
   -2.4813    1.0879    0.0000 C   0  0  0  0  0  0  0  0  0  0  0  0
   -0.3210   -0.7831    0.0000 C   0  0  0  0  0  0  0  0  0  0  0  0
    0.2191   -0.1594    0.0000 O   0  0  0  0  0  0  0  0  0  0  0  0
    1.0293   -0.3153    0.0000 C   0  0  0  0  0  0  0  0  0  0  0  0
    1.2993   -1.0949    0.0000 O   0  0  0  0  0  0  0  0  0  0  0  0
    1.5693    0.3083    0.0000 C   0  0  0  0  0  0  0  0  0  0  0  0
    1.2993    1.0879    0.0000 C   0  0  0  0  0  0  0  0  0  0  0  0
    1.8394    1.7115    0.0000 C   0  0  0  0  0  0  0  0  0  0  0  0
    2.6495    1.5556    0.0000 C   0  0  0  0  0  0  0  0  0  0  0  0
    2.9196    0.7760    0.0000 C   0  0  0  0  0  0  0  0  0  0  0  0
    2.3795    0.1524    0.0000 C   0  0  0  0  0  0  0  0  0  0  0  0
    2.6495   -0.6272    0.0000 C   0  0  0  0  0  0  0  0  0  0  0  0
    3.4597   -0.7831    0.0000 O   0  0  0  0  0  0  0  0  0  0  0  0
    2.1094   -1.2508    0.0000 O   0  0  0  0  0  0  0  0  0  0  0  0
    2.3795   -2.0303    0.0000 C   0  0  0  0  0  0  0  0  0  0  0  0
    3.1896   -2.1863    0.0000 C   0  0  0  0  0  0  0  0  0  0  0  0
    3.4597   -2.9658    0.0000 C   0  0  0  0  0  0  0  0  0  0  0  0
    4.2698   -3.1217    0.0000 C   0  0  0  0  0  0  0  0  0  0  0  0
    4.5398   -3.9013    0.0000 C   0  0  0  0  0  0  0  0  0  0  0  0
    3.7297   -1.5626    0.0000 C   0  0  0  0  0  0  0  0  0  0  0  0
    4.5398   -1.7185    0.0000 C   0  0  0  0  0  0  0  0  0  0  0  0
    5.0799   -1.0949    0.0000 C   0  0  0  0  0  0  0  0  0  0  0  0
    5.8901   -1.2508    0.0000 C   0  0  0  0  0  0  0  0  0  0  0  0
    6.4301   -0.6272    0.0000 C   0  0  0  0  0  0  0  0  0  0  0  0
   -4.9953   -1.6462    0.0000 H   0  0  0  0  0  0  0  0  0  0  0  0
   -4.9117   -2.8099    0.0000 H   0  0  0  0  0  0  0  0  0  0  0  0
   -3.7480   -2.7263    0.0000 H   0  0  0  0  0  0  0  0  0  0  0  0
   -3.7230   -0.7448    0.0000 H   0  0  0  0  0  0  0  0  0  0  0  0
   -4.4227   -0.9872    0.0000 H   0  0  0  0  0  0  0  0  0  0  0  0
   -3.1300   -2.5364    0.0000 H   0  0  0  0  0  0  0  0  0  0  0  0
   -2.4302   -2.2940    0.0000 H   0  0  0  0  0  0  0  0  0  0  0  0
   -2.3728   -0.2771    0.0000 H   0  0  0  0  0  0  0  0  0  0  0  0
   -3.0725   -0.5194    0.0000 H   0  0  0  0  0  0  0  0  0  0  0  0
   -1.7797   -2.0686    0.0000 H   0  0  0  0  0  0  0  0  0  0  0  0
   -1.0800   -1.8262    0.0000 H   0  0  0  0  0  0  0  0  0  0  0  0
   -1.9412   -0.4712    0.0000 H   0  0  0  0  0  0  0  0  0  0  0  0
   -0.6386    0.4673    0.0000 H   0  0  0  0  0  0  0  0  0  0  0  0
   -1.1984    0.9521    0.0000 H   0  0  0  0  0  0  0  0  0  0  0  0
   -3.0359    0.2818    0.0000 H   0  0  0  0  0  0  0  0  0  0  0  0
   -1.6712    0.9320    0.0000 H   0  0  0  0  0  0  0  0  0  0  0  0
   -2.1211    1.8300    0.0000 H   0  0  0  0  0  0  0  0  0  0  0  0
   -3.1050    1.6280    0.0000 H   0  0  0  0  0  0  0  0  0  0  0  0
   -3.1644    0.6253    0.0000 H   0  0  0  0  0  0  0  0  0  0  0  0
   -0.4295   -1.6009    0.0000 H   0  0  0  0  0  0  0  0  0  0  0  0
    0.2702   -1.3585    0.0000 H   0  0  0  0  0  0  0  0  0  0  0  0
    0.4892    1.2438    0.0000 H   0  0  0  0  0  0  0  0  0  0  0  0
    1.5693    2.4911    0.0000 H   0  0  0  0  0  0  0  0  0  0  0  0
    3.1896    2.1792    0.0000 H   0  0  0  0  0  0  0  0  0  0  0  0
    3.7297    0.6201    0.0000 H   0  0  0  0  0  0  0  0  0  0  0  0
    1.6169   -2.3453    0.0000 H   0  0  0  0  0  0  0  0  0  0  0  0
    2.1767   -2.8300    0.0000 H   0  0  0  0  0  0  0  0  0  0  0  0
    2.6495   -2.8099    0.0000 H   0  0  0  0  0  0  0  0  0  0  0  0
    3.0361   -3.6738    0.0000 H   0  0  0  0  0  0  0  0  0  0  0  0
    3.5902   -3.7804    0.0000 H   0  0  0  0  0  0  0  0  0  0  0  0
    5.0323   -2.8068    0.0000 H   0  0  0  0  0  0  0  0  0  0  0  0
    4.4725   -2.3220    0.0000 H   0  0  0  0  0  0  0  0  0  0  0  0
    4.2153   -4.6598    0.0000 H   0  0  0  0  0  0  0  0  0  0  0  0
    5.1803   -4.4213    0.0000 H   0  0  0  0  0  0  0  0  0  0  0  0
    5.2155   -3.4279    0.0000 H   0  0  0  0  0  0  0  0  0  0  0  0
    2.9196   -1.4067    0.0000 H   0  0  0  0  0  0  0  0  0  0  0  0
    4.2698   -0.9390    0.0000 H   0  0  0  0  0  0  0  0  0  0  0  0
    5.2957   -2.0492    0.0000 H   0  0  0  0  0  0  0  0  0  0  0  0
    3.8756   -2.2078    0.0000 H   0  0  0  0  0  0  0  0  0  0  0  0
    5.5035   -0.3869    0.0000 H   0  0  0  0  0  0  0  0  0  0  0  0
    4.9493   -0.2803    0.0000 H   0  0  0  0  0  0  0  0  0  0  0  0
    5.7815   -2.0686    0.0000 H   0  0  0  0  0  0  0  0  0  0  0  0
    6.4812   -1.8262    0.0000 H   0  0  0  0  0  0  0  0  0  0  0  0
    6.8818   -1.3175    0.0000 H   0  0  0  0  0  0  0  0  0  0  0  0
    7.2179   -0.3820    0.0000 H   0  0  0  0  0  0  0  0  0  0  0  0
    6.4103    0.1976    0.0000 H   0  0  0  0  0  0  0  0  0  0  0  0
  1  2  1  0  0  0  0
  2  3  1  0  0  0  0
  3  4  1  0  0  0  0
  4  5  1  0  0  0  0
  5  6  1  0  0  0  0
  6  7  1  0  0  0  0
  7  8  1  0  0  0  0
  8  9  1  0  0  0  0
  6 10  1  0  0  0  0
 10 11  1  0  0  0  0
 11 12  1  0  0  0  0
 12 13  2  0  0  0  0
 12 14  1  0  0  0  0
 14 15  4  0  0  0  0
 15 16  4  0  0  0  0
 16 17  4  0  0  0  0
 17 18  4  0  0  0  0
 18 19  4  0  0  0  0
 14 19  4  0  0  0  0
 19 20  1  0  0  0  0
 20 21  2  0  0  0  0
 20 22  1  0  0  0  0
 22 23  1  0  0  0  0
 23 24  1  0  0  0  0
 24 25  1  0  0  0  0
 25 26  1  0  0  0  0
 26 27  1  0  0  0  0
 24 28  1  0  0  0  0
 28 29  1  0  0  0  0
 29 30  1  0  0  0  0
 30 31  1  0  0  0  0
 31 32  1  0  0  0  0
  1 33  1  0  0  0  0
  1 34  1  0  0  0  0
  1 35  1  0  0  0  0
  2 36  1  0  0  0  0
  2 37  1  0  0  0  0
  3 38  1  0  0  0  0
  3 39  1  0  0  0  0
  4 40  1  0  0  0  0
  4 41  1  0  0  0  0
  5 42  1  0  0  0  0
  5 43  1  0  0  0  0
  6 44  1  0  0  0  0
  7 45  1  0  0  0  0
  7 46  1  0  0  0  0
  8 47  1  0  0  0  0
  8 48  1  0  0  0  0
  9 49  1  0  0  0  0
  9 50  1  0  0  0  0
  9 51  1  0  0  0  0
 10 52  1  0  0  0  0
 10 53  1  0  0  0  0
 15 54  1  0  0  0  0
 16 55  1  0  0  0  0
 17 56  1  0  0  0  0
 18 57  1  0  0  0  0
 23 58  1  0  0  0  0
 23 59  1  0  0  0  0
 24 60  1  0  0  0  0
 25 61  1  0  0  0  0
 25 62  1  0  0  0  0
 26 63  1  0  0  0  0
 26 64  1  0  0  0  0
 27 65  1  0  0  0  0
 27 66  1  0  0  0  0
 27 67  1  0  0  0  0
 28 68  1  0  0  0  0
 28 69  1  0  0  0  0
 29 70  1  0  0  0  0
 29 71  1  0  0  0  0
 30 72  1  0  0  0  0
 30 73  1  0  0  0  0
 31 74  1  0  0  0  0
 31 75  1  0  0  0  0
 32 76  1  0  0  0  0
 32 77  1  0  0  0  0
 32 78  1  0  0  0  0
M  END
>  <InChIKey>
MTYUOIVEVPTXFX-UHFFFAOYSA-N

>  <UN GHS>
Non-irritant

>  <CASRN>
53306-54-0

> <Outcome>
0

>  <Index>
498

>  <StandardizerResult>
Dearomatize (ID: Dearomatize)
Clear Stereo (ID: ClearStereo)
Wedge Clean (ID: WedgeClean)
Mesomerize (ID: Mesomerize)
Tautomerize (ID: Tautomerize)
Aromatize (ID: Aromatize)
Add Explicit Hydrogens (ID: AddExplicitH)
Neutralize (ID: Neutralize)
Clean 2D (ID: Clean2D)

> <knn Distance>
3.16227769851685

> <CpId>
498

$$$$
504
  Mrv1532301301811342D          

 13 12  0  0  0  0            999 V2000
    0.8250    1.4289    0.0000 C   0  0  0  0  0  0  0  0  0  0  0  0
    1.2375    0.7145    0.0000 N   0  0  0  0  0  0  0  0  0  0  0  0
    2.0625    0.7145    0.0000 C   0  0  0  0  0  0  0  0  0  0  0  0
    0.8250   -0.0000    0.0000 C   0  0  0  0  0  0  0  0  0  0  0  0
    1.2375   -0.7145    0.0000 S   0  0  0  0  0  0  0  0  0  0  0  0
   -0.0000   -0.0000    0.0000 S   0  0  0  0  0  0  0  0  0  0  0  0
    1.5395    1.8414    0.0000 H   0  0  0  0  0  0  0  0  0  0  0  0
    0.4125    2.1434    0.0000 H   0  0  0  0  0  0  0  0  0  0  0  0
    0.1105    1.0164    0.0000 H   0  0  0  0  0  0  0  0  0  0  0  0
    2.0625   -0.1105    0.0000 H   0  0  0  0  0  0  0  0  0  0  0  0
    2.8875    0.7145    0.0000 H   0  0  0  0  0  0  0  0  0  0  0  0
    2.0625    1.5395    0.0000 H   0  0  0  0  0  0  0  0  0  0  0  0
    0.8250   -1.4289    0.0000 H   0  0  0  0  0  0  0  0  0  0  0  0
  1  2  1  0  0  0  0
  2  3  1  0  0  0  0
  2  4  1  0  0  0  0
  4  5  1  0  0  0  0
  4  6  2  0  0  0  0
  1  7  1  0  0  0  0
  1  8  1  0  0  0  0
  1  9  1  0  0  0  0
  3 10  1  0  0  0  0
  3 11  1  0  0  0  0
  3 12  1  0  0  0  0
  5 13  1  0  0  0  0
M  END
>  <InChIKey>
MZGNSEAPZQGJRB-UHFFFAOYSA-M

>  <UN GHS>
Non-irritant

>  <CASRN>
128-04-1

> <Outcome>
0

>  <Index>
504

>  <StandardizerResult>
Clear Stereo (ID: ClearStereo)
Wedge Clean (ID: WedgeClean)
Mesomerize (ID: Mesomerize)
Tautomerize (ID: Tautomerize)
Add Explicit Hydrogens (ID: AddExplicitH)
Neutralize (ID: Neutralize)
Clean 2D (ID: Clean2D)

> <knn Distance>
3.16227769851685

> <CpId>
504

$$$$
523
  Mrv1532301301811342D          

 19 18  0  0  0  0            999 V2000
    2.9980    2.5550    0.0000 Cl  0  0  0  0  0  0  0  0  0  0  0  0
    3.7125    2.1425    0.0000 C   0  0  0  0  0  0  0  0  0  0  0  0
    4.4270    2.5550    0.0000 C   0  0  0  0  0  0  0  0  0  0  0  0
    5.1414    2.1425    0.0000 O   0  0  0  0  0  0  0  0  0  0  0  0
    5.8559    2.5550    0.0000 C   0  0  0  0  0  0  0  0  0  0  0  0
    6.5704    2.1425    0.0000 O   0  0  0  0  0  0  0  0  0  0  0  0
    7.2849    2.5550    0.0000 C   0  0  0  0  0  0  0  0  0  0  0  0
    7.9993    2.1425    0.0000 C   0  0  0  0  0  0  0  0  0  0  0  0
    8.7138    2.5550    0.0000 Cl  0  0  0  0  0  0  0  0  0  0  0  0
    3.3422    1.4052    0.0000 H   0  0  0  0  0  0  0  0  0  0  0  0
    4.0828    1.4052    0.0000 H   0  0  0  0  0  0  0  0  0  0  0  0
    4.7972    3.2922    0.0000 H   0  0  0  0  0  0  0  0  0  0  0  0
    4.0567    3.2922    0.0000 H   0  0  0  0  0  0  0  0  0  0  0  0
    6.2262    3.2922    0.0000 H   0  0  0  0  0  0  0  0  0  0  0  0
    5.4857    3.2922    0.0000 H   0  0  0  0  0  0  0  0  0  0  0  0
    7.6551    3.2922    0.0000 H   0  0  0  0  0  0  0  0  0  0  0  0
    6.9146    3.2922    0.0000 H   0  0  0  0  0  0  0  0  0  0  0  0
    7.6291    1.4052    0.0000 H   0  0  0  0  0  0  0  0  0  0  0  0
    8.3696    1.4052    0.0000 H   0  0  0  0  0  0  0  0  0  0  0  0
  1  2  1  0  0  0  0
  2  3  1  0  0  0  0
  3  4  1  0  0  0  0
  4  5  1  0  0  0  0
  5  6  1  0  0  0  0
  6  7  1  0  0  0  0
  7  8  1  0  0  0  0
  8  9  1  0  0  0  0
  2 10  1  0  0  0  0
  2 11  1  0  0  0  0
  3 12  1  0  0  0  0
  3 13  1  0  0  0  0
  5 14  1  0  0  0  0
  5 15  1  0  0  0  0
  7 16  1  0  0  0  0
  7 17  1  0  0  0  0
  8 18  1  0  0  0  0
  8 19  1  0  0  0  0
M  END
>  <InChIKey>
NLXGURFLBLRZRO-UHFFFAOYSA-N

>  <UN GHS>
Non-irritant

>  <CASRN>
111-91-1

> <Outcome>
0

>  <Index>
523

>  <StandardizerResult>
Clear Stereo (ID: ClearStereo)
Wedge Clean (ID: WedgeClean)
Mesomerize (ID: Mesomerize)
Tautomerize (ID: Tautomerize)
Add Explicit Hydrogens (ID: AddExplicitH)
Neutralize (ID: Neutralize)
Clean 2D (ID: Clean2D)

> <knn Distance>
3.16227769851685

> <CpId>
523

$$$$
525
  Mrv1532301301811342D          

 45 44  0  0  0  0            999 V2000
   -2.4029    0.2980    0.0000 C   0  0  0  0  0  0  0  0  0  0  0  0
   -1.6884    0.7105    0.0000 C   0  0  0  0  0  0  0  0  0  0  0  0
   -1.2759   -0.0040    0.0000 C   0  0  0  0  0  0  0  0  0  0  0  0
   -2.1009    1.4249    0.0000 C   0  0  0  0  0  0  0  0  0  0  0  0
   -0.9739    1.1230    0.0000 C   0  0  0  0  0  0  0  0  0  0  0  0
   -0.2595    0.7105    0.0000 C   0  0  0  0  0  0  0  0  0  0  0  0
    0.4550    1.1230    0.0000 C   0  0  0  0  0  0  0  0  0  0  0  0
    1.1695    0.7105    0.0000 C   0  0  0  0  0  0  0  0  0  0  0  0
    1.8840    1.1230    0.0000 C   0  0  0  0  0  0  0  0  0  0  0  0
    2.5984    0.7105    0.0000 C   0  0  0  0  0  0  0  0  0  0  0  0
    2.5984   -0.1145    0.0000 O   0  0  0  0  0  0  0  0  0  0  0  0
    3.3129    1.1230    0.0000 O   0  0  0  0  0  0  0  0  0  0  0  0
    4.0274    0.7105    0.0000 O   0  0  0  0  0  0  0  0  0  0  0  0
    4.7418    1.1230    0.0000 C   0  0  0  0  0  0  0  0  0  0  0  0
    5.4563    1.5355    0.0000 C   0  0  0  0  0  0  0  0  0  0  0  0
    5.1543    0.4085    0.0000 C   0  0  0  0  0  0  0  0  0  0  0  0
    4.3293    1.8374    0.0000 C   0  0  0  0  0  0  0  0  0  0  0  0
   -2.8154    1.0124    0.0000 H   0  0  0  0  0  0  0  0  0  0  0  0
   -3.1173   -0.1145    0.0000 H   0  0  0  0  0  0  0  0  0  0  0  0
   -1.9904   -0.4165    0.0000 H   0  0  0  0  0  0  0  0  0  0  0  0
   -1.1682   -0.8219    0.0000 H   0  0  0  0  0  0  0  0  0  0  0  0
   -0.4790   -0.2175    0.0000 H   0  0  0  0  0  0  0  0  0  0  0  0
   -0.7737    0.6505    0.0000 H   0  0  0  0  0  0  0  0  0  0  0  0
   -1.2830    1.5326    0.0000 H   0  0  0  0  0  0  0  0  0  0  0  0
   -1.8874    2.2218    0.0000 H   0  0  0  0  0  0  0  0  0  0  0  0
   -2.7554    1.9272    0.0000 H   0  0  0  0  0  0  0  0  0  0  0  0
   -0.2109    1.4366    0.0000 H   0  0  0  0  0  0  0  0  0  0  0  0
   -0.7560    1.9187    0.0000 H   0  0  0  0  0  0  0  0  0  0  0  0
    0.1670    0.0042    0.0000 H   0  0  0  0  0  0  0  0  0  0  0  0
    0.5395    0.5048    0.0000 H   0  0  0  0  0  0  0  0  0  0  0  0
    1.0695    1.6735    0.0000 H   0  0  0  0  0  0  0  0  0  0  0  0
    0.5567    1.9417    0.0000 H   0  0  0  0  0  0  0  0  0  0  0  0
    1.2086   -0.1136    0.0000 H   0  0  0  0  0  0  0  0  0  0  0  0
    1.7566    0.1308    0.0000 H   0  0  0  0  0  0  0  0  0  0  0  0
    2.2542    1.8602    0.0000 H   0  0  0  0  0  0  0  0  0  0  0  0
    1.5137    1.8602    0.0000 H   0  0  0  0  0  0  0  0  0  0  0  0
    5.8688    0.8210    0.0000 H   0  0  0  0  0  0  0  0  0  0  0  0
    6.1708    1.9480    0.0000 H   0  0  0  0  0  0  0  0  0  0  0  0
    5.0438    2.2499    0.0000 H   0  0  0  0  0  0  0  0  0  0  0  0
    4.3364    0.3008    0.0000 H   0  0  0  0  0  0  0  0  0  0  0  0
    4.9408   -0.3884    0.0000 H   0  0  0  0  0  0  0  0  0  0  0  0
    5.8089   -0.0937    0.0000 H   0  0  0  0  0  0  0  0  0  0  0  0
    4.2217    2.6554    0.0000 H   0  0  0  0  0  0  0  0  0  0  0  0
    3.5325    2.0510    0.0000 H   0  0  0  0  0  0  0  0  0  0  0  0
    3.8271    1.1829    0.0000 H   0  0  0  0  0  0  0  0  0  0  0  0
  1  2  1  0  0  0  0
  2  3  1  0  0  0  0
  2  4  1  0  0  0  0
  2  5  1  0  0  0  0
  5  6  1  0  0  0  0
  6  7  1  0  0  0  0
  7  8  1  0  0  0  0
  8  9  1  0  0  0  0
  9 10  1  0  0  0  0
 10 11  2  0  0  0  0
 10 12  1  0  0  0  0
 12 13  1  0  0  0  0
 13 14  1  0  0  0  0
 14 15  1  0  0  0  0
 14 16  1  0  0  0  0
 14 17  1  0  0  0  0
  1 18  1  0  0  0  0
  1 19  1  0  0  0  0
  1 20  1  0  0  0  0
  3 21  1  0  0  0  0
  3 22  1  0  0  0  0
  3 23  1  0  0  0  0
  4 24  1  0  0  0  0
  4 25  1  0  0  0  0
  4 26  1  0  0  0  0
  5 27  1  0  0  0  0
  5 28  1  0  0  0  0
  6 29  1  0  0  0  0
  6 30  1  0  0  0  0
  7 31  1  0  0  0  0
  7 32  1  0  0  0  0
  8 33  1  0  0  0  0
  8 34  1  0  0  0  0
  9 35  1  0  0  0  0
  9 36  1  0  0  0  0
 15 37  1  0  0  0  0
 15 38  1  0  0  0  0
 15 39  1  0  0  0  0
 16 40  1  0  0  0  0
 16 41  1  0  0  0  0
 16 42  1  0  0  0  0
 17 43  1  0  0  0  0
 17 44  1  0  0  0  0
 17 45  1  0  0  0  0
M  END
>  <InChIKey>
NMOALOSNPWTWRH-UHFFFAOYSA-N

>  <UN GHS>
Non-irritant

>  <CASRN>
26748-41-4

> <Outcome>
0

>  <Index>
525

>  <StandardizerResult>
Clear Stereo (ID: ClearStereo)
Wedge Clean (ID: WedgeClean)
Mesomerize (ID: Mesomerize)
Tautomerize (ID: Tautomerize)
Add Explicit Hydrogens (ID: AddExplicitH)
Neutralize (ID: Neutralize)
Clean 2D (ID: Clean2D)

> <knn Distance>
3.16227769851685

> <CpId>
525

$$$$
556
  Mrv1532301301811342D          

 50 49  0  0  0  0            999 V2000
   -1.3123   -2.0896    0.0000 C   0  0  0  0  0  0  0  0  0  0  0  0
   -0.5978   -1.6771    0.0000 C   0  0  0  0  0  0  0  0  0  0  0  0
   -0.5978   -0.8521    0.0000 C   0  0  0  0  0  0  0  0  0  0  0  0
    0.2272   -0.8521    0.0000 C   0  0  0  0  0  0  0  0  0  0  0  0
    0.6397   -1.5666    0.0000 O   0  0  0  0  0  0  0  0  0  0  0  0
    1.4647   -1.5666    0.0000 C   0  0  0  0  0  0  0  0  0  0  0  0
    1.8772   -0.8521    0.0000 O   0  0  0  0  0  0  0  0  0  0  0  0
    1.8772   -2.2811    0.0000 C   0  0  0  0  0  0  0  0  0  0  0  0
    2.7022   -2.2811    0.0000 C   0  0  0  0  0  0  0  0  0  0  0  0
    1.4647   -2.9955    0.0000 C   0  0  0  0  0  0  0  0  0  0  0  0
   -1.4228   -0.8521    0.0000 C   0  0  0  0  0  0  0  0  0  0  0  0
   -1.8353   -0.1376    0.0000 O   0  0  0  0  0  0  0  0  0  0  0  0
   -2.6603   -0.1376    0.0000 C   0  0  0  0  0  0  0  0  0  0  0  0
   -3.0728   -0.8521    0.0000 O   0  0  0  0  0  0  0  0  0  0  0  0
   -3.0728    0.5768    0.0000 C   0  0  0  0  0  0  0  0  0  0  0  0
   -3.8978    0.5768    0.0000 C   0  0  0  0  0  0  0  0  0  0  0  0
   -2.6603    1.2913    0.0000 C   0  0  0  0  0  0  0  0  0  0  0  0
   -0.5978   -0.0271    0.0000 C   0  0  0  0  0  0  0  0  0  0  0  0
    0.1167    0.3854    0.0000 O   0  0  0  0  0  0  0  0  0  0  0  0
    0.8311   -0.0271    0.0000 C   0  0  0  0  0  0  0  0  0  0  0  0
    0.8311   -0.8521    0.0000 O   0  0  0  0  0  0  0  0  0  0  0  0
    1.5456    0.3854    0.0000 C   0  0  0  0  0  0  0  0  0  0  0  0
    1.5456    1.2104    0.0000 C   0  0  0  0  0  0  0  0  0  0  0  0
    2.2601   -0.0271    0.0000 C   0  0  0  0  0  0  0  0  0  0  0  0
   -1.7248   -1.3751    0.0000 H   0  0  0  0  0  0  0  0  0  0  0  0
   -2.0268   -2.5021    0.0000 H   0  0  0  0  0  0  0  0  0  0  0  0
   -0.8998   -2.8041    0.0000 H   0  0  0  0  0  0  0  0  0  0  0  0
   -0.1445   -2.3664    0.0000 H   0  0  0  0  0  0  0  0  0  0  0  0
    0.2258   -1.7251    0.0000 H   0  0  0  0  0  0  0  0  0  0  0  0
    0.5094   -0.0769    0.0000 H   0  0  0  0  0  0  0  0  0  0  0  0
   -0.0550   -0.0769    0.0000 H   0  0  0  0  0  0  0  0  0  0  0  0
    2.7022   -3.1061    0.0000 H   0  0  0  0  0  0  0  0  0  0  0  0
    3.5272   -2.2811    0.0000 H   0  0  0  0  0  0  0  0  0  0  0  0
    2.7022   -1.4561    0.0000 H   0  0  0  0  0  0  0  0  0  0  0  0
    0.6397   -2.9955    0.0000 H   0  0  0  0  0  0  0  0  0  0  0  0
    1.8772   -3.7100    0.0000 H   0  0  0  0  0  0  0  0  0  0  0  0
   -1.0103   -1.5666    0.0000 H   0  0  0  0  0  0  0  0  0  0  0  0
   -2.2478   -0.8521    0.0000 H   0  0  0  0  0  0  0  0  0  0  0  0
   -3.8978    1.4018    0.0000 H   0  0  0  0  0  0  0  0  0  0  0  0
   -4.7228    0.5768    0.0000 H   0  0  0  0  0  0  0  0  0  0  0  0
   -3.8978   -0.2482    0.0000 H   0  0  0  0  0  0  0  0  0  0  0  0
   -1.8353    1.2913    0.0000 H   0  0  0  0  0  0  0  0  0  0  0  0
   -3.0728    2.0058    0.0000 H   0  0  0  0  0  0  0  0  0  0  0  0
   -1.0512    0.6622    0.0000 H   0  0  0  0  0  0  0  0  0  0  0  0
   -1.4214    0.0209    0.0000 H   0  0  0  0  0  0  0  0  0  0  0  0
    2.3706    1.2104    0.0000 H   0  0  0  0  0  0  0  0  0  0  0  0
    1.5456    2.0354    0.0000 H   0  0  0  0  0  0  0  0  0  0  0  0
    0.7206    1.2104    0.0000 H   0  0  0  0  0  0  0  0  0  0  0  0
    3.0674   -0.1970    0.0000 H   0  0  0  0  0  0  0  0  0  0  0  0
    2.8229    0.5761    0.0000 H   0  0  0  0  0  0  0  0  0  0  0  0
  1  2  1  0  0  0  0
  2  3  1  0  0  0  0
  3  4  1  0  0  0  0
  4  5  1  0  0  0  0
  5  6  1  0  0  0  0
  6  7  2  0  0  0  0
  6  8  1  0  0  0  0
  8  9  1  0  0  0  0
  8 10  2  0  0  0  0
  3 11  1  0  0  0  0
 11 12  1  0  0  0  0
 12 13  1  0  0  0  0
 13 14  2  0  0  0  0
 13 15  1  0  0  0  0
 15 16  1  0  0  0  0
 15 17  2  0  0  0  0
  3 18  1  0  0  0  0
 18 19  1  0  0  0  0
 19 20  1  0  0  0  0
 20 21  2  0  0  0  0
 20 22  1  0  0  0  0
 22 23  1  0  0  0  0
 22 24  2  0  0  0  0
  1 25  1  0  0  0  0
  1 26  1  0  0  0  0
  1 27  1  0  0  0  0
  2 28  1  0  0  0  0
  2 29  1  0  0  0  0
  4 30  1  0  0  0  0
  4 31  1  0  0  0  0
  9 32  1  0  0  0  0
  9 33  1  0  0  0  0
  9 34  1  0  0  0  0
 10 35  1  4  0  0  0
 10 36  1  0  0  0  0
 11 37  1  0  0  0  0
 11 38  1  0  0  0  0
 16 39  1  0  0  0  0
 16 40  1  0  0  0  0
 16 41  1  0  0  0  0
 17 42  1  4  0  0  0
 17 43  1  0  0  0  0
 18 44  1  0  0  0  0
 18 45  1  0  0  0  0
 23 46  1  0  0  0  0
 23 47  1  0  0  0  0
 23 48  1  0  0  0  0
 24 49  1  4  0  0  0
 24 50  1  0  0  0  0
M  END
>  <InChIKey>
OKKRPWIIYQTPQF-UHFFFAOYSA-N

>  <UN GHS>
Non-irritant

>  <CASRN>
3290-92-4

> <Outcome>
0

>  <Index>
556

>  <StandardizerResult>
Clear Stereo (ID: ClearStereo)
Wedge Clean (ID: WedgeClean)
Mesomerize (ID: Mesomerize)
Tautomerize (ID: Tautomerize)
Add Explicit Hydrogens (ID: AddExplicitH)
Neutralize (ID: Neutralize)
Clean 2D (ID: Clean2D)

> <knn Distance>
3.16227769851685

> <CpId>
556

$$$$
559
  Mrv1532301301811342D          

 50 49  0  0  0  0            999 V2000
    1.5957   -1.4079    0.0000 C   0  0  0  0  0  0  0  0  0  0  0  0
    1.1832   -0.6934    0.0000 C   0  0  0  0  0  0  0  0  0  0  0  0
    0.3582   -0.6934    0.0000 C   0  0  0  0  0  0  0  0  0  0  0  0
    1.5957    0.0211    0.0000 C   0  0  0  0  0  0  0  0  0  0  0  0
    1.1832    0.7355    0.0000 O   0  0  0  0  0  0  0  0  0  0  0  0
    0.3582    0.7355    0.0000 C   0  0  0  0  0  0  0  0  0  0  0  0
   -0.0543    0.0211    0.0000 O   0  0  0  0  0  0  0  0  0  0  0  0
   -0.0543    1.4500    0.0000 C   0  0  0  0  0  0  0  0  0  0  0  0
   -0.8793    1.4500    0.0000 C   0  0  0  0  0  0  0  0  0  0  0  0
    0.3582    2.1645    0.0000 C   0  0  0  0  0  0  0  0  0  0  0  0
    2.4207    0.0211    0.0000 C   0  0  0  0  0  0  0  0  0  0  0  0
    2.4207   -0.8039    0.0000 C   0  0  0  0  0  0  0  0  0  0  0  0
    2.4207    0.8461    0.0000 C   0  0  0  0  0  0  0  0  0  0  0  0
    3.2457    0.0211    0.0000 C   0  0  0  0  0  0  0  0  0  0  0  0
    3.6582   -0.6934    0.0000 O   0  0  0  0  0  0  0  0  0  0  0  0
    4.4832   -0.6934    0.0000 C   0  0  0  0  0  0  0  0  0  0  0  0
    4.8957    0.0211    0.0000 O   0  0  0  0  0  0  0  0  0  0  0  0
    4.8957   -1.4079    0.0000 C   0  0  0  0  0  0  0  0  0  0  0  0
    5.7207   -1.4079    0.0000 C   0  0  0  0  0  0  0  0  0  0  0  0
    4.4832   -2.1223    0.0000 C   0  0  0  0  0  0  0  0  0  0  0  0
    0.8812   -1.8204    0.0000 H   0  0  0  0  0  0  0  0  0  0  0  0
    2.0082   -2.1223    0.0000 H   0  0  0  0  0  0  0  0  0  0  0  0
    2.3102   -0.9954    0.0000 H   0  0  0  0  0  0  0  0  0  0  0  0
    0.7707   -1.4079    0.0000 H   0  0  0  0  0  0  0  0  0  0  0  0
   -0.4543   -0.8367    0.0000 H   0  0  0  0  0  0  0  0  0  0  0  0
   -0.1721   -1.3254    0.0000 H   0  0  0  0  0  0  0  0  0  0  0  0
    0.7707    0.0211    0.0000 H   0  0  0  0  0  0  0  0  0  0  0  0
    2.0082   -0.6934    0.0000 H   0  0  0  0  0  0  0  0  0  0  0  0
   -0.4668    0.7355    0.0000 H   0  0  0  0  0  0  0  0  0  0  0  0
   -0.6658    2.2469    0.0000 H   0  0  0  0  0  0  0  0  0  0  0  0
   -1.5938    1.8625    0.0000 H   0  0  0  0  0  0  0  0  0  0  0  0
   -1.4627    0.8666    0.0000 H   0  0  0  0  0  0  0  0  0  0  0  0
    1.0727    1.7520    0.0000 H   0  0  0  0  0  0  0  0  0  0  0  0
    0.7707    2.8790    0.0000 H   0  0  0  0  0  0  0  0  0  0  0  0
   -0.3563    2.5770    0.0000 H   0  0  0  0  0  0  0  0  0  0  0  0
    2.7364   -1.5661    0.0000 H   0  0  0  0  0  0  0  0  0  0  0  0
    3.2176   -1.0175    0.0000 H   0  0  0  0  0  0  0  0  0  0  0  0
    3.0752   -0.3017    0.0000 H   0  0  0  0  0  0  0  0  0  0  0  0
    3.2457    0.8461    0.0000 H   0  0  0  0  0  0  0  0  0  0  0  0
    2.4207    1.6711    0.0000 H   0  0  0  0  0  0  0  0  0  0  0  0
    1.5957    0.8461    0.0000 H   0  0  0  0  0  0  0  0  0  0  0  0
    4.0426    0.2346    0.0000 H   0  0  0  0  0  0  0  0  0  0  0  0
    2.6623    0.6044    0.0000 H   0  0  0  0  0  0  0  0  0  0  0  0
    5.3082   -0.6934    0.0000 H   0  0  0  0  0  0  0  0  0  0  0  0
    5.5072   -2.2048    0.0000 H   0  0  0  0  0  0  0  0  0  0  0  0
    6.4352   -1.8204    0.0000 H   0  0  0  0  0  0  0  0  0  0  0  0
    6.3041   -0.8245    0.0000 H   0  0  0  0  0  0  0  0  0  0  0  0
    3.7687   -1.7098    0.0000 H   0  0  0  0  0  0  0  0  0  0  0  0
    4.0707   -2.8368    0.0000 H   0  0  0  0  0  0  0  0  0  0  0  0
    5.1977   -2.5348    0.0000 H   0  0  0  0  0  0  0  0  0  0  0  0
  1  2  1  0  0  0  0
  2  3  1  0  0  0  0
  2  4  1  0  0  0  0
  4  5  1  0  0  0  0
  5  6  1  0  0  0  0
  6  7  2  0  0  0  0
  6  8  1  0  0  0  0
  8  9  1  0  0  0  0
  8 10  1  0  0  0  0
  4 11  1  0  0  0  0
 11 12  1  0  0  0  0
 11 13  1  0  0  0  0
 11 14  1  0  0  0  0
 14 15  1  0  0  0  0
 15 16  1  0  0  0  0
 16 17  2  0  0  0  0
 16 18  1  0  0  0  0
 18 19  1  0  0  0  0
 18 20  1  0  0  0  0
  1 21  1  0  0  0  0
  1 22  1  0  0  0  0
  1 23  1  0  0  0  0
  2 24  1  0  0  0  0
  3 25  1  0  0  0  0
  3 26  1  0  0  0  0
  3 27  1  0  0  0  0
  4 28  1  0  0  0  0
  8 29  1  0  0  0  0
  9 30  1  0  0  0  0
  9 31  1  0  0  0  0
  9 32  1  0  0  0  0
 10 33  1  0  0  0  0
 10 34  1  0  0  0  0
 10 35  1  0  0  0  0
 12 36  1  0  0  0  0
 12 37  1  0  0  0  0
 12 38  1  0  0  0  0
 13 39  1  0  0  0  0
 13 40  1  0  0  0  0
 13 41  1  0  0  0  0
 14 42  1  0  0  0  0
 14 43  1  0  0  0  0
 18 44  1  0  0  0  0
 19 45  1  0  0  0  0
 19 46  1  0  0  0  0
 19 47  1  0  0  0  0
 20 48  1  0  0  0  0
 20 49  1  0  0  0  0
 20 50  1  0  0  0  0
M  END
>  <InChIKey>
OMVSWZDEEGIJJI-UHFFFAOYSA-N

>  <UN GHS>
Non-irritant

>  <CASRN>
6846-50-0

> <Outcome>
0

>  <Index>
559

>  <StandardizerResult>
Clear Stereo (ID: ClearStereo)
Wedge Clean (ID: WedgeClean)
Mesomerize (ID: Mesomerize)
Tautomerize (ID: Tautomerize)
Add Explicit Hydrogens (ID: AddExplicitH)
Neutralize (ID: Neutralize)
Clean 2D (ID: Clean2D)

> <knn Distance>
3.16227769851685

> <CpId>
559

$$$$
567
  Mrv1532301301811342D          

 28 28  0  0  0  0            999 V2000
    1.7312   -2.1725    0.0000 C   0  0  0  0  0  0  0  0  0  0  0  0
    2.1437   -2.8870    0.0000 C   0  0  0  0  0  0  0  0  0  0  0  0
    2.9687   -2.8870    0.0000 C   0  0  0  0  0  0  0  0  0  0  0  0
    3.3812   -3.6014    0.0000 C   0  0  0  0  0  0  0  0  0  0  0  0
    4.2062   -3.6014    0.0000 C   0  0  0  0  0  0  0  0  0  0  0  0
    4.6187   -2.8870    0.0000 C   0  0  0  0  0  0  0  0  0  0  0  0
    5.0312   -2.1725    0.0000 N   0  0  0  0  0  0  0  0  0  0  0  0
    4.6187   -4.3159    0.0000 C   0  0  0  0  0  0  0  0  0  0  0  0
    5.4437   -4.3159    0.0000 C   0  0  0  0  0  0  0  0  0  0  0  0
    5.8562   -5.0304    0.0000 C   0  0  0  0  0  0  0  0  0  0  0  0
    5.4437   -5.7448    0.0000 C   0  0  0  0  0  0  0  0  0  0  0  0
    4.6187   -5.7448    0.0000 C   0  0  0  0  0  0  0  0  0  0  0  0
    4.2062   -5.0304    0.0000 C   0  0  0  0  0  0  0  0  0  0  0  0
    2.4457   -1.7600    0.0000 H   0  0  0  0  0  0  0  0  0  0  0  0
    1.3187   -1.4580    0.0000 H   0  0  0  0  0  0  0  0  0  0  0  0
    1.0167   -2.5850    0.0000 H   0  0  0  0  0  0  0  0  0  0  0  0
    1.4544   -3.3403    0.0000 H   0  0  0  0  0  0  0  0  0  0  0  0
    2.0957   -3.7106    0.0000 H   0  0  0  0  0  0  0  0  0  0  0  0
    3.6580   -2.4336    0.0000 H   0  0  0  0  0  0  0  0  0  0  0  0
    3.0167   -2.0633    0.0000 H   0  0  0  0  0  0  0  0  0  0  0  0
    2.6919   -4.0548    0.0000 H   0  0  0  0  0  0  0  0  0  0  0  0
    3.3332   -4.4250    0.0000 H   0  0  0  0  0  0  0  0  0  0  0  0
    3.7937   -2.8870    0.0000 H   0  0  0  0  0  0  0  0  0  0  0  0
    5.8562   -3.6014    0.0000 H   0  0  0  0  0  0  0  0  0  0  0  0
    6.6812   -5.0304    0.0000 H   0  0  0  0  0  0  0  0  0  0  0  0
    5.8562   -6.4593    0.0000 H   0  0  0  0  0  0  0  0  0  0  0  0
    4.2062   -6.4593    0.0000 H   0  0  0  0  0  0  0  0  0  0  0  0
    3.3812   -5.0304    0.0000 H   0  0  0  0  0  0  0  0  0  0  0  0
  1  2  1  0  0  0  0
  2  3  1  0  0  0  0
  3  4  1  0  0  0  0
  4  5  1  0  0  0  0
  5  6  1  0  0  0  0
  6  7  3  0  0  0  0
  5  8  1  0  0  0  0
  8  9  4  0  0  0  0
  9 10  4  0  0  0  0
 10 11  4  0  0  0  0
 11 12  4  0  0  0  0
 12 13  4  0  0  0  0
  8 13  4  0  0  0  0
  1 14  1  0  0  0  0
  1 15  1  0  0  0  0
  1 16  1  0  0  0  0
  2 17  1  0  0  0  0
  2 18  1  0  0  0  0
  3 19  1  0  0  0  0
  3 20  1  0  0  0  0
  4 21  1  0  0  0  0
  4 22  1  0  0  0  0
  5 23  1  0  0  0  0
  9 24  1  0  0  0  0
 10 25  1  0  0  0  0
 11 26  1  0  0  0  0
 12 27  1  0  0  0  0
 13 28  1  0  0  0  0
M  END
>  <InChIKey>
OTERUZJEJFMEEB-UHFFFAOYSA-N

>  <UN GHS>
Non-irritant

>  <CASRN>
3508-98-3

> <Outcome>
0

>  <Index>
567

>  <StandardizerResult>
Dearomatize (ID: Dearomatize)
Clear Stereo (ID: ClearStereo)
Wedge Clean (ID: WedgeClean)
Mesomerize (ID: Mesomerize)
Tautomerize (ID: Tautomerize)
Aromatize (ID: Aromatize)
Add Explicit Hydrogens (ID: AddExplicitH)
Neutralize (ID: Neutralize)
Clean 2D (ID: Clean2D)

> <knn Distance>
3.16227769851685

> <CpId>
567

$$$$
600
  Mrv1532301301811342D          

 15 15  0  0  0  0            999 V2000
    0.7145    2.0625    0.0000 N   0  0  0  0  0  0  0  0  0  0  0  0
    0.7145    1.2375    0.0000 C   0  0  0  0  0  0  0  0  0  0  0  0
    1.4289    0.8250    0.0000 C   0  0  0  0  0  0  0  0  0  0  0  0
    1.4289   -0.0000    0.0000 C   0  0  0  0  0  0  0  0  0  0  0  0
    0.7145   -0.4125    0.0000 C   0  0  0  0  0  0  0  0  0  0  0  0
    0.7145   -1.2375    0.0000 O   0  0  0  0  0  0  0  0  0  0  0  0
    0.0000    0.0000    0.0000 C   0  0  0  0  0  0  0  0  0  0  0  0
    0.0000    0.8250    0.0000 C   0  0  0  0  0  0  0  0  0  0  0  0
    1.4289    2.4750    0.0000 H   0  0  0  0  0  0  0  0  0  0  0  0
    0.0000    2.4750    0.0000 H   0  0  0  0  0  0  0  0  0  0  0  0
    2.1434    1.2375    0.0000 H   0  0  0  0  0  0  0  0  0  0  0  0
    2.1434   -0.4125    0.0000 H   0  0  0  0  0  0  0  0  0  0  0  0
    0.0000   -1.6500    0.0000 H   0  0  0  0  0  0  0  0  0  0  0  0
   -0.7145   -0.4125    0.0000 H   0  0  0  0  0  0  0  0  0  0  0  0
   -0.7145    1.2375    0.0000 H   0  0  0  0  0  0  0  0  0  0  0  0
  1  2  1  0  0  0  0
  2  3  4  0  0  0  0
  3  4  4  0  0  0  0
  4  5  4  0  0  0  0
  5  6  1  0  0  0  0
  5  7  4  0  0  0  0
  7  8  4  0  0  0  0
  2  8  4  0  0  0  0
  1  9  1  0  0  0  0
  1 10  1  0  0  0  0
  3 11  1  0  0  0  0
  4 12  1  0  0  0  0
  6 13  1  0  0  0  0
  7 14  1  0  0  0  0
  8 15  1  0  0  0  0
M  END
>  <InChIKey>
PLIKAWJENQZMHA-UHFFFAOYSA-N

>  <UN GHS>
Non-irritant

>  <CASRN>
123-30-8

> <Outcome>
0

>  <Index>
600

>  <StandardizerResult>
Dearomatize (ID: Dearomatize)
Clear Stereo (ID: ClearStereo)
Wedge Clean (ID: WedgeClean)
Mesomerize (ID: Mesomerize)
Tautomerize (ID: Tautomerize)
Aromatize (ID: Aromatize)
Add Explicit Hydrogens (ID: AddExplicitH)
Neutralize (ID: Neutralize)
Clean 2D (ID: Clean2D)

> <knn Distance>
3.16227769851685

> <CpId>
600

$$$$
626
  Mrv1532301301811342D          

  2  1  0  0  0  0            999 V2000
    0.8250    0.0000    0.0000 B   0  0  0  0  0  0  0  0  0  0  0  0
    0.0000    0.0000    0.0000 N   0  0  0  0  0  0  0  0  0  0  0  0
  1  2  3  0  0  0  0
M  END
>  <InChIKey>
PZNSFCLAULLKQX-UHFFFAOYSA-N

>  <UN GHS>
Non-irritant

>  <CASRN>
10043-11-5

> <Outcome>
0

>  <Index>
626

>  <StandardizerResult>
Mesomerize (ID: Mesomerize)
Tautomerize (ID: Tautomerize)
Clean 2D (ID: Clean2D)

> <knn Distance>
3.16227769851685

> <CpId>
626

$$$$
634
  Mrv1532301301811342D          

 17 16  0  0  0  0            999 V2000
    0.8250   -0.8250    0.0000 C   0  0  0  0  0  0  0  0  0  0  0  0
    0.8250    0.0000    0.0000 N   0  3  0  0  0  0  0  0  0  0  0  0
    0.8250    0.8250    0.0000 C   0  0  0  0  0  0  0  0  0  0  0  0
    1.6500   -0.0000    0.0000 C   0  0  0  0  0  0  0  0  0  0  0  0
    0.0000    0.0000    0.0000 C   0  0  0  0  0  0  0  0  0  0  0  0
    0.0000   -0.8250    0.0000 H   0  0  0  0  0  0  0  0  0  0  0  0
    0.8250   -1.6500    0.0000 H   0  0  0  0  0  0  0  0  0  0  0  0
    1.6500   -0.8250    0.0000 H   0  0  0  0  0  0  0  0  0  0  0  0
    1.6500    0.8250    0.0000 H   0  0  0  0  0  0  0  0  0  0  0  0
    0.8250    1.6500    0.0000 H   0  0  0  0  0  0  0  0  0  0  0  0
    0.0000    0.8250    0.0000 H   0  0  0  0  0  0  0  0  0  0  0  0
    2.2334   -0.5834    0.0000 H   0  0  0  0  0  0  0  0  0  0  0  0
    2.4750   -0.0000    0.0000 H   0  0  0  0  0  0  0  0  0  0  0  0
    2.2334    0.5834    0.0000 H   0  0  0  0  0  0  0  0  0  0  0  0
   -0.5834    0.5834    0.0000 H   0  0  0  0  0  0  0  0  0  0  0  0
   -0.8250    0.0000    0.0000 H   0  0  0  0  0  0  0  0  0  0  0  0
   -0.5834   -0.5834    0.0000 H   0  0  0  0  0  0  0  0  0  0  0  0
  1  2  1  0  0  0  0
  2  3  1  0  0  0  0
  2  4  1  0  0  0  0
  2  5  1  0  0  0  0
  1  6  1  0  0  0  0
  1  7  1  0  0  0  0
  1  8  1  0  0  0  0
  3  9  1  0  0  0  0
  3 10  1  0  0  0  0
  3 11  1  0  0  0  0
  4 12  1  0  0  0  0
  4 13  1  0  0  0  0
  4 14  1  0  0  0  0
  5 15  1  0  0  0  0
  5 16  1  0  0  0  0
  5 17  1  0  0  0  0
M  CHG  1   2   1
M  END
>  <InChIKey>
QEMXHQIAXOOASZ-UHFFFAOYSA-N

>  <UN GHS>
Non-irritant

>  <CASRN>
75-57-0

> <Outcome>
0

>  <Index>
634

>  <StandardizerResult>
Clear Stereo (ID: ClearStereo)
Wedge Clean (ID: WedgeClean)
Mesomerize (ID: Mesomerize)
Tautomerize (ID: Tautomerize)
Add Explicit Hydrogens (ID: AddExplicitH)
Clean 2D (ID: Clean2D)

> <knn Distance>
3.16227769851685

> <CpId>
634

$$$$
662
  Mrv1532301301811342D          

 45 44  0  0  0  0            999 V2000
    6.6256    4.7064    0.0000 C   0  0  0  0  0  0  0  0  0  0  0  0
    7.3400    4.2939    0.0000 C   0  0  0  0  0  0  0  0  0  0  0  0
    8.0545    4.7064    0.0000 O   0  0  0  0  0  0  0  0  0  0  0  0
    8.7690    4.2939    0.0000 C   0  0  0  0  0  0  0  0  0  0  0  0
    9.4834    4.7064    0.0000 C   0  0  0  0  0  0  0  0  0  0  0  0
   10.1979    4.2939    0.0000 C   0  0  0  0  0  0  0  0  0  0  0  0
   10.9124    4.7064    0.0000 C   0  0  0  0  0  0  0  0  0  0  0  0
   10.9124    5.5314    0.0000 C   0  0  0  0  0  0  0  0  0  0  0  0
   11.6269    4.2939    0.0000 O   0  0  0  0  0  0  0  0  0  0  0  0
   12.3413    4.7064    0.0000 C   0  0  0  0  0  0  0  0  0  0  0  0
   13.0558    4.2939    0.0000 C   0  0  0  0  0  0  0  0  0  0  0  0
   13.7703    4.7064    0.0000 O   0  0  0  0  0  0  0  0  0  0  0  0
   14.4847    4.2939    0.0000 C   0  0  0  0  0  0  0  0  0  0  0  0
   15.1992    4.7064    0.0000 C   0  0  0  0  0  0  0  0  0  0  0  0
   15.1992    5.5314    0.0000 C   0  0  0  0  0  0  0  0  0  0  0  0
   15.9137    4.2939    0.0000 C   0  0  0  0  0  0  0  0  0  0  0  0
   16.6282    4.7064    0.0000 O   0  0  0  0  0  0  0  0  0  0  0  0
    7.0381    5.4209    0.0000 H   0  0  0  0  0  0  0  0  0  0  0  0
    5.9111    5.1189    0.0000 H   0  0  0  0  0  0  0  0  0  0  0  0
    6.2131    3.9919    0.0000 H   0  0  0  0  0  0  0  0  0  0  0  0
    6.9698    3.5566    0.0000 H   0  0  0  0  0  0  0  0  0  0  0  0
    7.7103    3.5566    0.0000 H   0  0  0  0  0  0  0  0  0  0  0  0
    8.3987    3.5566    0.0000 H   0  0  0  0  0  0  0  0  0  0  0  0
    9.1392    3.5566    0.0000 H   0  0  0  0  0  0  0  0  0  0  0  0
    9.8537    5.4436    0.0000 H   0  0  0  0  0  0  0  0  0  0  0  0
    9.1132    5.4436    0.0000 H   0  0  0  0  0  0  0  0  0  0  0  0
    9.8277    3.5566    0.0000 H   0  0  0  0  0  0  0  0  0  0  0  0
   10.5682    3.5566    0.0000 H   0  0  0  0  0  0  0  0  0  0  0  0
   10.1979    5.1189    0.0000 H   0  0  0  0  0  0  0  0  0  0  0  0
   11.7093    5.3179    0.0000 H   0  0  0  0  0  0  0  0  0  0  0  0
   11.3249    6.2459    0.0000 H   0  0  0  0  0  0  0  0  0  0  0  0
   10.3290    6.1147    0.0000 H   0  0  0  0  0  0  0  0  0  0  0  0
   12.8381    5.3650    0.0000 H   0  0  0  0  0  0  0  0  0  0  0  0
   12.3413    3.8814    0.0000 H   0  0  0  0  0  0  0  0  0  0  0  0
   13.1991    3.4814    0.0000 H   0  0  0  0  0  0  0  0  0  0  0  0
   13.6878    3.7636    0.0000 H   0  0  0  0  0  0  0  0  0  0  0  0
   14.5197    3.4696    0.0000 H   0  0  0  0  0  0  0  0  0  0  0  0
   15.2078    3.8966    0.0000 H   0  0  0  0  0  0  0  0  0  0  0  0
   14.4847    5.1189    0.0000 H   0  0  0  0  0  0  0  0  0  0  0  0
   15.9961    5.3179    0.0000 H   0  0  0  0  0  0  0  0  0  0  0  0
   15.6117    6.2459    0.0000 H   0  0  0  0  0  0  0  0  0  0  0  0
   14.6159    6.1147    0.0000 H   0  0  0  0  0  0  0  0  0  0  0  0
   16.0515    3.4805    0.0000 H   0  0  0  0  0  0  0  0  0  0  0  0
   16.5434    3.7609    0.0000 H   0  0  0  0  0  0  0  0  0  0  0  0
   17.4013    4.9941    0.0000 H   0  0  0  0  0  0  0  0  0  0  0  0
  1  2  1  0  0  0  0
  2  3  1  0  0  0  0
  3  4  1  0  0  0  0
  4  5  1  0  0  0  0
  5  6  1  0  0  0  0
  6  7  1  0  0  0  0
  7  8  1  0  0  0  0
  7  9  1  0  0  0  0
  9 10  1  0  0  0  0
 10 11  1  0  0  0  0
 11 12  1  0  0  0  0
 12 13  1  0  0  0  0
 13 14  1  0  0  0  0
 14 15  1  0  0  0  0
 14 16  1  0  0  0  0
 16 17  1  0  0  0  0
  1 18  1  0  0  0  0
  1 19  1  0  0  0  0
  1 20  1  0  0  0  0
  2 21  1  0  0  0  0
  2 22  1  0  0  0  0
  4 23  1  0  0  0  0
  4 24  1  0  0  0  0
  5 25  1  0  0  0  0
  5 26  1  0  0  0  0
  6 27  1  0  0  0  0
  6 28  1  0  0  0  0
  7 29  1  0  0  0  0
  8 30  1  0  0  0  0
  8 31  1  0  0  0  0
  8 32  1  0  0  0  0
 10 33  1  0  0  0  0
 10 34  1  0  0  0  0
 11 35  1  0  0  0  0
 11 36  1  0  0  0  0
 13 37  1  0  0  0  0
 13 38  1  0  0  0  0
 14 39  1  0  0  0  0
 15 40  1  0  0  0  0
 15 41  1  0  0  0  0
 15 42  1  0  0  0  0
 16 43  1  0  0  0  0
 16 44  1  0  0  0  0
 17 45  1  0  0  0  0
M  END
>  <InChIKey>
QVIFIIFBFORLSL-UHFFFAOYSA-N

>  <UN GHS>
Non-irritant

>  <CASRN>
55934-93-5

> <Outcome>
0

>  <Index>
662

>  <StandardizerResult>
Clear Stereo (ID: ClearStereo)
Wedge Clean (ID: WedgeClean)
Mesomerize (ID: Mesomerize)
Tautomerize (ID: Tautomerize)
Add Explicit Hydrogens (ID: AddExplicitH)
Neutralize (ID: Neutralize)
Clean 2D (ID: Clean2D)

> <knn Distance>
3.16227769851685

> <CpId>
662

$$$$
705
  Mrv1532301301811342D          

 27 26  0  0  0  0            999 V2000
    0.8262    4.3820    0.0000 C   0  0  0  0  0  0  0  0  0  0  0  0
    0.4137    3.6676    0.0000 O   0  0  0  0  0  0  0  0  0  0  0  0
    0.8262    2.9531    0.0000 C   0  0  0  0  0  0  0  0  0  0  0  0
    0.1118    2.5406    0.0000 C   0  0  0  0  0  0  0  0  0  0  0  0
    1.5407    3.3656    0.0000 C   0  0  0  0  0  0  0  0  0  0  0  0
    1.2387    2.2386    0.0000 C   0  0  0  0  0  0  0  0  0  0  0  0
    0.8262    1.5241    0.0000 C   0  0  0  0  0  0  0  0  0  0  0  0
    1.2387    0.8097    0.0000 O   0  0  0  0  0  0  0  0  0  0  0  0
    0.8262    0.0952    0.0000 C   0  0  0  0  0  0  0  0  0  0  0  0
    1.2387   -0.6193    0.0000 C   0  0  0  0  0  0  0  0  0  0  0  0
    0.0012    0.0952    0.0000 O   0  0  0  0  0  0  0  0  0  0  0  0
    1.5407    3.9695    0.0000 H   0  0  0  0  0  0  0  0  0  0  0  0
    1.2387    5.0965    0.0000 H   0  0  0  0  0  0  0  0  0  0  0  0
    0.1118    4.7945    0.0000 H   0  0  0  0  0  0  0  0  0  0  0  0
   -0.3007    3.2551    0.0000 H   0  0  0  0  0  0  0  0  0  0  0  0
   -0.6027    2.1281    0.0000 H   0  0  0  0  0  0  0  0  0  0  0  0
    0.5243    1.8261    0.0000 H   0  0  0  0  0  0  0  0  0  0  0  0
    1.5407    2.5406    0.0000 H   0  0  0  0  0  0  0  0  0  0  0  0
    2.2552    2.9531    0.0000 H   0  0  0  0  0  0  0  0  0  0  0  0
    2.2552    3.7781    0.0000 H   0  0  0  0  0  0  0  0  0  0  0  0
    1.5874    1.4909    0.0000 H   0  0  0  0  0  0  0  0  0  0  0  0
    2.0512    2.0953    0.0000 H   0  0  0  0  0  0  0  0  0  0  0  0
    0.0138    1.3809    0.0000 H   0  0  0  0  0  0  0  0  0  0  0  0
    0.4776    0.7764    0.0000 H   0  0  0  0  0  0  0  0  0  0  0  0
    0.5243   -1.0318    0.0000 H   0  0  0  0  0  0  0  0  0  0  0  0
    1.6512   -1.3337    0.0000 H   0  0  0  0  0  0  0  0  0  0  0  0
    1.9532   -0.2068    0.0000 H   0  0  0  0  0  0  0  0  0  0  0  0
  1  2  1  0  0  0  0
  2  3  1  0  0  0  0
  3  4  1  0  0  0  0
  3  5  1  0  0  0  0
  3  6  1  0  0  0  0
  6  7  1  0  0  0  0
  7  8  1  0  0  0  0
  8  9  1  0  0  0  0
  9 10  1  0  0  0  0
  9 11  2  0  0  0  0
  1 12  1  0  0  0  0
  1 13  1  0  0  0  0
  1 14  1  0  0  0  0
  4 15  1  0  0  0  0
  4 16  1  0  0  0  0
  4 17  1  0  0  0  0
  5 18  1  0  0  0  0
  5 19  1  0  0  0  0
  5 20  1  0  0  0  0
  6 21  1  0  0  0  0
  6 22  1  0  0  0  0
  7 23  1  0  0  0  0
  7 24  1  0  0  0  0
 10 25  1  0  0  0  0
 10 26  1  0  0  0  0
 10 27  1  0  0  0  0
M  END
>  <InChIKey>
RYNQKSJRFHJZTK-UHFFFAOYSA-N

>  <UN GHS>
Non-irritant

>  <CASRN>
103429-90-9

> <Outcome>
0

>  <Index>
705

>  <StandardizerResult>
Clear Stereo (ID: ClearStereo)
Wedge Clean (ID: WedgeClean)
Mesomerize (ID: Mesomerize)
Tautomerize (ID: Tautomerize)
Add Explicit Hydrogens (ID: AddExplicitH)
Neutralize (ID: Neutralize)
Clean 2D (ID: Clean2D)

> <knn Distance>
3.16227769851685

> <CpId>
705

$$$$
764
  Mrv1532301301811342D          

 34 34  0  0  0  0            999 V2000
    0.7134   -3.6675    0.0000 C   0  0  0  0  0  0  0  0  0  0  0  0
    1.4279   -4.0800    0.0000 C   0  0  0  0  0  0  0  0  0  0  0  0
    2.1424   -3.6675    0.0000 C   0  0  0  0  0  0  0  0  0  0  0  0
    2.8568   -4.0800    0.0000 O   0  0  0  0  0  0  0  0  0  0  0  0
    3.5713   -3.6675    0.0000 C   0  0  0  0  0  0  0  0  0  0  0  0
    3.5713   -2.8425    0.0000 O   0  0  0  0  0  0  0  0  0  0  0  0
    4.2858   -4.0800    0.0000 C   0  0  0  0  0  0  0  0  0  0  0  0
    5.0002   -3.6675    0.0000 C   0  0  0  0  0  0  0  0  0  0  0  0
    5.7147   -4.0800    0.0000 C   0  0  0  0  0  0  0  0  0  0  0  0
    6.4292   -3.6675    0.0000 C   0  0  0  0  0  0  0  0  0  0  0  0
    7.1437   -4.0800    0.0000 C   0  0  0  0  0  0  0  0  0  0  0  0
    7.1437   -4.9050    0.0000 C   0  0  0  0  0  0  0  0  0  0  0  0
    6.4292   -5.3175    0.0000 C   0  0  0  0  0  0  0  0  0  0  0  0
    5.7147   -4.9050    0.0000 C   0  0  0  0  0  0  0  0  0  0  0  0
    0.7134   -2.8425    0.0000 H   0  0  0  0  0  0  0  0  0  0  0  0
   -0.0011   -4.0800    0.0000 H   0  0  0  0  0  0  0  0  0  0  0  0
    1.4279   -4.9050    0.0000 H   0  0  0  0  0  0  0  0  0  0  0  0
    2.5126   -2.9302    0.0000 H   0  0  0  0  0  0  0  0  0  0  0  0
    1.7721   -2.9302    0.0000 H   0  0  0  0  0  0  0  0  0  0  0  0
    3.9155   -4.8172    0.0000 H   0  0  0  0  0  0  0  0  0  0  0  0
    4.6560   -4.8172    0.0000 H   0  0  0  0  0  0  0  0  0  0  0  0
    5.3705   -2.9302    0.0000 H   0  0  0  0  0  0  0  0  0  0  0  0
    4.6300   -2.9302    0.0000 H   0  0  0  0  0  0  0  0  0  0  0  0
    5.0002   -4.4925    0.0000 H   0  0  0  0  0  0  0  0  0  0  0  0
    6.7994   -2.9302    0.0000 H   0  0  0  0  0  0  0  0  0  0  0  0
    6.0589   -2.9302    0.0000 H   0  0  0  0  0  0  0  0  0  0  0  0
    7.9673   -4.0320    0.0000 H   0  0  0  0  0  0  0  0  0  0  0  0
    7.5970   -3.3907    0.0000 H   0  0  0  0  0  0  0  0  0  0  0  0
    7.5970   -5.5942    0.0000 H   0  0  0  0  0  0  0  0  0  0  0  0
    7.9673   -4.9529    0.0000 H   0  0  0  0  0  0  0  0  0  0  0  0
    6.0589   -6.0547    0.0000 H   0  0  0  0  0  0  0  0  0  0  0  0
    6.7994   -6.0547    0.0000 H   0  0  0  0  0  0  0  0  0  0  0  0
    5.0827   -5.4353    0.0000 H   0  0  0  0  0  0  0  0  0  0  0  0
    5.5715   -5.7174    0.0000 H   0  0  0  0  0  0  0  0  0  0  0  0
  1  2  2  0  0  0  0
  2  3  1  0  0  0  0
  3  4  1  0  0  0  0
  4  5  1  0  0  0  0
  5  6  2  0  0  0  0
  5  7  1  0  0  0  0
  7  8  1  0  0  0  0
  8  9  1  0  0  0  0
  9 10  1  0  0  0  0
 10 11  1  0  0  0  0
 11 12  1  0  0  0  0
 12 13  1  0  0  0  0
 13 14  1  0  0  0  0
  9 14  1  0  0  0  0
  1 15  1  0  0  0  0
  1 16  1  0  0  0  0
  2 17  1  0  0  0  0
  3 18  1  0  0  0  0
  3 19  1  0  0  0  0
  7 20  1  0  0  0  0
  7 21  1  0  0  0  0
  8 22  1  0  0  0  0
  8 23  1  0  0  0  0
  9 24  1  0  0  0  0
 10 25  1  0  0  0  0
 10 26  1  0  0  0  0
 11 27  1  0  0  0  0
 11 28  1  0  0  0  0
 12 29  1  0  0  0  0
 12 30  1  0  0  0  0
 13 31  1  0  0  0  0
 13 32  1  0  0  0  0
 14 33  1  0  0  0  0
 14 34  1  0  0  0  0
M  END
>  <InChIKey>
TWXUTZNBHUWMKJ-UHFFFAOYSA-N

>  <UN GHS>
Non-irritant

>  <CASRN>
2705-87-5

> <Outcome>
0

>  <Index>
764

>  <StandardizerResult>
Clear Stereo (ID: ClearStereo)
Wedge Clean (ID: WedgeClean)
Mesomerize (ID: Mesomerize)
Tautomerize (ID: Tautomerize)
Add Explicit Hydrogens (ID: AddExplicitH)
Neutralize (ID: Neutralize)
Clean 2D (ID: Clean2D)

> <knn Distance>
3.16227769851685

> <CpId>
764

$$$$
774
  Mrv1532301301811342D          

 58 58  0  0  0  0            999 V2000
    1.4219    4.9895    0.0000 C   0  0  0  0  0  0  0  0  0  0  0  0
    1.4219    4.1645    0.0000 C   0  0  0  0  0  0  0  0  0  0  0  0
    0.5969    4.1645    0.0000 C   0  0  0  0  0  0  0  0  0  0  0  0
    2.2469    4.1645    0.0000 C   0  0  0  0  0  0  0  0  0  0  0  0
    1.4219    3.3395    0.0000 O   0  0  0  0  0  0  0  0  0  0  0  0
    0.7074    2.9270    0.0000 O   0  0  0  0  0  0  0  0  0  0  0  0
    0.7074    2.1020    0.0000 C   0  0  0  0  0  0  0  0  0  0  0  0
   -0.1176    2.1020    0.0000 C   0  0  0  0  0  0  0  0  0  0  0  0
    1.5324    2.1020    0.0000 C   0  0  0  0  0  0  0  0  0  0  0  0
    0.7074    1.2770    0.0000 C   0  0  0  0  0  0  0  0  0  0  0  0
    1.4219    0.8645    0.0000 C   0  0  0  0  0  0  0  0  0  0  0  0
    1.4219    0.0395    0.0000 C   0  0  0  0  0  0  0  0  0  0  0  0
    0.7074   -0.3730    0.0000 C   0  0  0  0  0  0  0  0  0  0  0  0
   -0.0071    0.0395    0.0000 C   0  0  0  0  0  0  0  0  0  0  0  0
   -0.0071    0.8645    0.0000 C   0  0  0  0  0  0  0  0  0  0  0  0
   -0.7216   -0.3730    0.0000 C   0  0  0  0  0  0  0  0  0  0  0  0
   -1.1341    0.3415    0.0000 C   0  0  0  0  0  0  0  0  0  0  0  0
   -0.3091   -1.0874    0.0000 C   0  0  0  0  0  0  0  0  0  0  0  0
   -1.4360   -0.7855    0.0000 O   0  0  0  0  0  0  0  0  0  0  0  0
   -2.1505   -0.3730    0.0000 O   0  0  0  0  0  0  0  0  0  0  0  0
   -2.8650   -0.7855    0.0000 C   0  0  0  0  0  0  0  0  0  0  0  0
   -3.5794   -1.1980    0.0000 C   0  0  0  0  0  0  0  0  0  0  0  0
   -3.2775   -0.0710    0.0000 C   0  0  0  0  0  0  0  0  0  0  0  0
   -2.4525   -1.4999    0.0000 C   0  0  0  0  0  0  0  0  0  0  0  0
    2.2469    4.9895    0.0000 H   0  0  0  0  0  0  0  0  0  0  0  0
    1.4219    5.8145    0.0000 H   0  0  0  0  0  0  0  0  0  0  0  0
    0.5969    4.9895    0.0000 H   0  0  0  0  0  0  0  0  0  0  0  0
   -0.1653    4.4802    0.0000 H   0  0  0  0  0  0  0  0  0  0  0  0
    0.0135    3.5812    0.0000 H   0  0  0  0  0  0  0  0  0  0  0  0
    0.9126    3.4023    0.0000 H   0  0  0  0  0  0  0  0  0  0  0  0
    1.9311    3.4023    0.0000 H   0  0  0  0  0  0  0  0  0  0  0  0
    2.8302    3.5812    0.0000 H   0  0  0  0  0  0  0  0  0  0  0  0
    3.0091    4.4802    0.0000 H   0  0  0  0  0  0  0  0  0  0  0  0
   -0.1176    2.9270    0.0000 H   0  0  0  0  0  0  0  0  0  0  0  0
   -0.9426    2.1020    0.0000 H   0  0  0  0  0  0  0  0  0  0  0  0
   -0.1176    1.2770    0.0000 H   0  0  0  0  0  0  0  0  0  0  0  0
    1.5324    1.2770    0.0000 H   0  0  0  0  0  0  0  0  0  0  0  0
    2.3574    2.1020    0.0000 H   0  0  0  0  0  0  0  0  0  0  0  0
    1.5324    2.9270    0.0000 H   0  0  0  0  0  0  0  0  0  0  0  0
    2.2398    0.7568    0.0000 H   0  0  0  0  0  0  0  0  0  0  0  0
    2.1363   -0.3730    0.0000 H   0  0  0  0  0  0  0  0  0  0  0  0
    0.7074   -1.1980    0.0000 H   0  0  0  0  0  0  0  0  0  0  0  0
   -0.8250    0.7568    0.0000 H   0  0  0  0  0  0  0  0  0  0  0  0
   -1.4829    1.0891    0.0000 H   0  0  0  0  0  0  0  0  0  0  0  0
   -1.9577    0.3894    0.0000 H   0  0  0  0  0  0  0  0  0  0  0  0
   -1.5671   -0.3607    0.0000 H   0  0  0  0  0  0  0  0  0  0  0  0
   -1.0235   -1.4999    0.0000 H   0  0  0  0  0  0  0  0  0  0  0  0
    0.1034   -1.8019    0.0000 H   0  0  0  0  0  0  0  0  0  0  0  0
    0.4054   -0.6749    0.0000 H   0  0  0  0  0  0  0  0  0  0  0  0
   -3.9919   -0.4835    0.0000 H   0  0  0  0  0  0  0  0  0  0  0  0
   -4.2939   -1.6105    0.0000 H   0  0  0  0  0  0  0  0  0  0  0  0
   -3.1669   -1.9124    0.0000 H   0  0  0  0  0  0  0  0  0  0  0  0
   -2.4595    0.0367    0.0000 H   0  0  0  0  0  0  0  0  0  0  0  0
   -3.0639    0.7259    0.0000 H   0  0  0  0  0  0  0  0  0  0  0  0
   -3.9320    0.4312    0.0000 H   0  0  0  0  0  0  0  0  0  0  0  0
   -2.3448   -2.3179    0.0000 H   0  0  0  0  0  0  0  0  0  0  0  0
   -1.6556   -1.7135    0.0000 H   0  0  0  0  0  0  0  0  0  0  0  0
   -1.9502   -0.8454    0.0000 H   0  0  0  0  0  0  0  0  0  0  0  0
  1  2  1  0  0  0  0
  2  3  1  0  0  0  0
  2  4  1  0  0  0  0
  2  5  1  0  0  0  0
  5  6  1  0  0  0  0
  6  7  1  0  0  0  0
  7  8  1  0  0  0  0
  7  9  1  0  0  0  0
  7 10  1  0  0  0  0
 10 11  4  0  0  0  0
 11 12  4  0  0  0  0
 12 13  4  0  0  0  0
 13 14  4  0  0  0  0
 14 15  4  0  0  0  0
 10 15  4  0  0  0  0
 14 16  1  0  0  0  0
 16 17  1  0  0  0  0
 16 18  1  0  0  0  0
 16 19  1  0  0  0  0
 19 20  1  0  0  0  0
 20 21  1  0  0  0  0
 21 22  1  0  0  0  0
 21 23  1  0  0  0  0
 21 24  1  0  0  0  0
  1 25  1  0  0  0  0
  1 26  1  0  0  0  0
  1 27  1  0  0  0  0
  3 28  1  0  0  0  0
  3 29  1  0  0  0  0
  3 30  1  0  0  0  0
  4 31  1  0  0  0  0
  4 32  1  0  0  0  0
  4 33  1  0  0  0  0
  8 34  1  0  0  0  0
  8 35  1  0  0  0  0
  8 36  1  0  0  0  0
  9 37  1  0  0  0  0
  9 38  1  0  0  0  0
  9 39  1  0  0  0  0
 11 40  1  0  0  0  0
 12 41  1  0  0  0  0
 13 42  1  0  0  0  0
 15 43  1  0  0  0  0
 17 44  1  0  0  0  0
 17 45  1  0  0  0  0
 17 46  1  0  0  0  0
 18 47  1  0  0  0  0
 18 48  1  0  0  0  0
 18 49  1  0  0  0  0
 22 50  1  0  0  0  0
 22 51  1  0  0  0  0
 22 52  1  0  0  0  0
 23 53  1  0  0  0  0
 23 54  1  0  0  0  0
 23 55  1  0  0  0  0
 24 56  1  0  0  0  0
 24 57  1  0  0  0  0
 24 58  1  0  0  0  0
M  END
>  <InChIKey>
UBRWPVTUQDJKCC-UHFFFAOYSA-N

>  <UN GHS>
Non-irritant

>  <CASRN>
2212-81-9

> <Outcome>
0

>  <Index>
774

>  <StandardizerResult>
Dearomatize (ID: Dearomatize)
Clear Stereo (ID: ClearStereo)
Wedge Clean (ID: WedgeClean)
Mesomerize (ID: Mesomerize)
Tautomerize (ID: Tautomerize)
Aromatize (ID: Aromatize)
Add Explicit Hydrogens (ID: AddExplicitH)
Neutralize (ID: Neutralize)
Clean 2D (ID: Clean2D)

> <knn Distance>
3.16227769851685

> <CpId>
774

$$$$
785
  Mrv1532301301811342D          

 42 46  0  0  0  0            999 V2000
    7.3772    2.4190    0.0000 Cl  0  0  0  0  0  0  0  0  0  0  0  0
    6.8068    3.1507    0.0000 C   0  0  0  0  0  0  0  0  0  0  0  0
    6.8093    3.9757    0.0000 C   0  0  0  0  0  0  0  0  0  0  0  0
    7.4167    4.6687    0.0000 Cl  0  0  0  0  0  0  0  0  0  0  0  0
    6.2087    4.3599    0.0000 C   0  0  0  0  0  0  0  0  0  0  0  0
    6.2856    5.2400    0.0000 Cl  0  0  0  0  0  0  0  0  0  0  0  0
    5.4929    3.9495    0.0000 C   0  0  0  0  0  0  0  0  0  0  0  0
    4.9114    4.5347    0.0000 C   0  0  0  0  0  0  0  0  0  0  0  0
    4.0864    4.5372    0.0000 C   0  0  0  0  0  0  0  0  0  0  0  0
    3.3886    3.9862    0.0000 C   0  0  0  0  0  0  0  0  0  0  0  0
    3.3861    3.1612    0.0000 C   0  0  0  0  0  0  0  0  0  0  0  0
    4.0803    2.5455    0.0000 C   0  0  0  0  0  0  0  0  0  0  0  0
    4.9053    2.5430    0.0000 C   0  0  0  0  0  0  0  0  0  0  0  0
    5.4904    3.1246    0.0000 C   0  0  0  0  0  0  0  0  0  0  0  0
    6.2036    2.7099    0.0000 C   0  0  0  0  0  0  0  0  0  0  0  0
    6.2752    1.8293    0.0000 Cl  0  0  0  0  0  0  0  0  0  0  0  0
    6.4124    3.5342    0.0000 C   0  0  0  0  0  0  0  0  0  0  0  0
    7.3755    3.1939    0.0000 Cl  0  0  0  0  0  0  0  0  0  0  0  0
    7.3785    3.8562    0.0000 Cl  0  0  0  0  0  0  0  0  0  0  0  0
    2.7830    2.7203    0.0000 C   0  0  0  0  0  0  0  0  0  0  0  0
    2.6540    1.8495    0.0000 Cl  0  0  0  0  0  0  0  0  0  0  0  0
    2.0698    3.1350    0.0000 C   0  0  0  0  0  0  0  0  0  0  0  0
    1.3178    2.7074    0.0000 Cl  0  0  0  0  0  0  0  0  0  0  0  0
    2.0723    3.9600    0.0000 C   0  0  0  0  0  0  0  0  0  0  0  0
    1.3226    4.3918    0.0000 Cl  0  0  0  0  0  0  0  0  0  0  0  0
    2.7880    4.3703    0.0000 C   0  0  0  0  0  0  0  0  0  0  0  0
    2.6657    5.2423    0.0000 Cl  0  0  0  0  0  0  0  0  0  0  0  0
    2.9918    3.5447    0.0000 C   0  0  0  0  0  0  0  0  0  0  0  0
    3.8910    3.8492    0.0000 Cl  0  0  0  0  0  0  0  0  0  0  0  0
    3.8944    3.1987    0.0000 Cl  0  0  0  0  0  0  0  0  0  0  0  0
    4.7298    3.6362    0.0000 H   0  0  0  0  0  0  0  0  0  0  0  0
    5.5213    5.0902    0.0000 H   0  0  0  0  0  0  0  0  0  0  0  0
    4.8779    5.3590    0.0000 H   0  0  0  0  0  0  0  0  0  0  0  0
    4.1613    5.3588    0.0000 H   0  0  0  0  0  0  0  0  0  0  0  0
    3.5202    5.1373    0.0000 H   0  0  0  0  0  0  0  0  0  0  0  0
    3.3476    4.8102    0.0000 H   0  0  0  0  0  0  0  0  0  0  0  0
    3.3472    2.3371    0.0000 H   0  0  0  0  0  0  0  0  0  0  0  0
    3.8052    1.7677    0.0000 H   0  0  0  0  0  0  0  0  0  0  0  0
    4.5555    1.8711    0.0000 H   0  0  0  0  0  0  0  0  0  0  0  0
    5.5698    2.0541    0.0000 H   0  0  0  0  0  0  0  0  0  0  0  0
    4.5919    3.3061    0.0000 H   0  0  0  0  0  0  0  0  0  0  0  0
    6.2062    3.5349    0.0000 H   0  0  0  0  0  0  0  0  0  0  0  0
  1  2  1  0  0  0  0
  2  3  2  0  0  0  0
  3  4  1  0  0  0  0
  3  5  1  0  0  0  0
  5  6  1  0  0  0  0
  5  7  1  0  0  0  0
  7  8  1  0  0  0  0
  8  9  1  0  0  0  0
  9 10  1  0  0  0  0
 10 11  1  0  0  0  0
 11 12  1  0  0  0  0
 12 13  1  0  0  0  0
 13 14  1  0  0  0  0
  7 14  1  0  0  0  0
 14 15  1  0  0  0  0
  2 15  1  0  0  0  0
 15 16  1  0  0  0  0
 15 17  1  0  0  0  0
  5 17  1  0  0  0  0
 17 18  1  0  0  0  0
 17 19  1  0  0  0  0
 11 20  1  0  0  0  0
 20 21  1  0  0  0  0
 20 22  1  0  0  0  0
 22 23  1  0  0  0  0
 22 24  2  0  0  0  0
 24 25  1  0  0  0  0
 24 26  1  0  0  0  0
 10 26  1  0  0  0  0
 26 27  1  0  0  0  0
 26 28  1  0  0  0  0
 20 28  1  0  0  0  0
 28 29  1  0  0  0  0
 28 30  1  0  0  0  0
  7 31  1  0  0  0  0
  8 32  1  0  0  0  0
  8 33  1  0  0  0  0
  9 34  1  0  0  0  0
  9 35  1  0  0  0  0
 10 36  1  0  0  0  0
 11 37  1  0  0  0  0
 12 38  1  0  0  0  0
 12 39  1  0  0  0  0
 13 40  1  0  0  0  0
 13 41  1  0  0  0  0
 14 42  1  0  0  0  0
M  END
>  <InChIKey>
UGQQAJOWXNCOPY-UHFFFAOYSA-N

>  <UN GHS>
Non-irritant

>  <CASRN>
13560-89-9

> <Outcome>
0

>  <Index>
785

>  <StandardizerResult>
Clear Stereo (ID: ClearStereo)
Wedge Clean (ID: WedgeClean)
Mesomerize (ID: Mesomerize)
Tautomerize (ID: Tautomerize)
Add Explicit Hydrogens (ID: AddExplicitH)
Neutralize (ID: Neutralize)
Clean 2D (ID: Clean2D)

> <knn Distance>
3.16227769851685

> <CpId>
785

$$$$
804
  Mrv1532301301811342D          

 29 28  0  0  0  0            999 V2000
    2.9959    2.5099    0.0000 C   0  0  0  0  0  0  0  0  0  0  0  0
    3.7104    2.0974    0.0000 C   0  0  0  0  0  0  0  0  0  0  0  0
    3.7104    1.2724    0.0000 O   0  0  0  0  0  0  0  0  0  0  0  0
    4.4249    2.5099    0.0000 O   0  0  0  0  0  0  0  0  0  0  0  0
    5.1393    2.0974    0.0000 C   0  0  0  0  0  0  0  0  0  0  0  0
    5.8538    2.5099    0.0000 C   0  0  0  0  0  0  0  0  0  0  0  0
    6.5683    2.0974    0.0000 C   0  0  0  0  0  0  0  0  0  0  0  0
    7.2828    2.5099    0.0000 O   0  0  0  0  0  0  0  0  0  0  0  0
    7.9972    2.0974    0.0000 C   0  0  0  0  0  0  0  0  0  0  0  0
    8.7117    2.5099    0.0000 C   0  0  0  0  0  0  0  0  0  0  0  0
    7.9972    1.2724    0.0000 O   0  0  0  0  0  0  0  0  0  0  0  0
    5.8538    3.3349    0.0000 O   0  0  0  0  0  0  0  0  0  0  0  0
    5.1393    3.7474    0.0000 C   0  0  0  0  0  0  0  0  0  0  0  0
    4.4249    3.3349    0.0000 C   0  0  0  0  0  0  0  0  0  0  0  0
    5.1393    4.5724    0.0000 O   0  0  0  0  0  0  0  0  0  0  0  0
    3.4084    3.2244    0.0000 H   0  0  0  0  0  0  0  0  0  0  0  0
    2.2815    2.9224    0.0000 H   0  0  0  0  0  0  0  0  0  0  0  0
    2.5834    1.7954    0.0000 H   0  0  0  0  0  0  0  0  0  0  0  0
    4.7691    1.3602    0.0000 H   0  0  0  0  0  0  0  0  0  0  0  0
    5.5096    1.3602    0.0000 H   0  0  0  0  0  0  0  0  0  0  0  0
    5.8538    1.6849    0.0000 H   0  0  0  0  0  0  0  0  0  0  0  0
    6.7115    1.2849    0.0000 H   0  0  0  0  0  0  0  0  0  0  0  0
    7.2003    1.5671    0.0000 H   0  0  0  0  0  0  0  0  0  0  0  0
    9.1242    1.7954    0.0000 H   0  0  0  0  0  0  0  0  0  0  0  0
    9.4262    2.9224    0.0000 H   0  0  0  0  0  0  0  0  0  0  0  0
    8.2992    3.2244    0.0000 H   0  0  0  0  0  0  0  0  0  0  0  0
    4.4249    4.1599    0.0000 H   0  0  0  0  0  0  0  0  0  0  0  0
    3.7104    3.7474    0.0000 H   0  0  0  0  0  0  0  0  0  0  0  0
    3.7104    2.9224    0.0000 H   0  0  0  0  0  0  0  0  0  0  0  0
  1  2  1  0  0  0  0
  2  3  2  0  0  0  0
  2  4  1  0  0  0  0
  4  5  1  0  0  0  0
  5  6  1  0  0  0  0
  6  7  1  0  0  0  0
  7  8  1  0  0  0  0
  8  9  1  0  0  0  0
  9 10  1  0  0  0  0
  9 11  2  0  0  0  0
  6 12  1  0  0  0  0
 12 13  1  0  0  0  0
 13 14  1  0  0  0  0
 13 15  2  0  0  0  0
  1 16  1  0  0  0  0
  1 17  1  0  0  0  0
  1 18  1  0  0  0  0
  5 19  1  0  0  0  0
  5 20  1  0  0  0  0
  6 21  1  0  0  0  0
  7 22  1  0  0  0  0
  7 23  1  0  0  0  0
 10 24  1  0  0  0  0
 10 25  1  0  0  0  0
 10 26  1  0  0  0  0
 14 27  1  0  0  0  0
 14 28  1  0  0  0  0
 14 29  1  0  0  0  0
M  END
>  <InChIKey>
URAYPUMNDPQOKB-UHFFFAOYSA-N

>  <UN GHS>
Non-irritant

>  <CASRN>
102-76-1

> <Outcome>
0

>  <Index>
804

>  <StandardizerResult>
Clear Stereo (ID: ClearStereo)
Wedge Clean (ID: WedgeClean)
Mesomerize (ID: Mesomerize)
Tautomerize (ID: Tautomerize)
Add Explicit Hydrogens (ID: AddExplicitH)
Neutralize (ID: Neutralize)
Clean 2D (ID: Clean2D)

> <knn Distance>
3.16227769851685

> <CpId>
804

$$$$
810
  Mrv1532301301811342D          

 31 30  0  0  0  0            999 V2000
    5.4730    3.9849    0.0000 O   0  0  0  0  0  0  0  0  0  0  0  0
    6.1875    3.5724    0.0000 C   0  0  0  0  0  0  0  0  0  0  0  0
    6.9020    3.9849    0.0000 C   0  0  0  0  0  0  0  0  0  0  0  0
    7.6164    3.5724    0.0000 O   0  0  0  0  0  0  0  0  0  0  0  0
    8.3309    3.9849    0.0000 C   0  0  0  0  0  0  0  0  0  0  0  0
    9.0454    3.5724    0.0000 C   0  0  0  0  0  0  0  0  0  0  0  0
    9.7598    3.9849    0.0000 O   0  0  0  0  0  0  0  0  0  0  0  0
   10.4743    3.5724    0.0000 C   0  0  0  0  0  0  0  0  0  0  0  0
   11.1888    3.9849    0.0000 C   0  0  0  0  0  0  0  0  0  0  0  0
   11.9033    3.5724    0.0000 O   0  0  0  0  0  0  0  0  0  0  0  0
   12.6177    3.9849    0.0000 C   0  0  0  0  0  0  0  0  0  0  0  0
   13.3322    3.5724    0.0000 C   0  0  0  0  0  0  0  0  0  0  0  0
   14.0467    3.9849    0.0000 O   0  0  0  0  0  0  0  0  0  0  0  0
    5.4730    4.8099    0.0000 H   0  0  0  0  0  0  0  0  0  0  0  0
    5.8172    2.8352    0.0000 H   0  0  0  0  0  0  0  0  0  0  0  0
    6.5578    2.8352    0.0000 H   0  0  0  0  0  0  0  0  0  0  0  0
    7.2722    4.7221    0.0000 H   0  0  0  0  0  0  0  0  0  0  0  0
    6.5317    4.7221    0.0000 H   0  0  0  0  0  0  0  0  0  0  0  0
    8.7012    4.7221    0.0000 H   0  0  0  0  0  0  0  0  0  0  0  0
    7.9606    4.7221    0.0000 H   0  0  0  0  0  0  0  0  0  0  0  0
    8.6751    2.8352    0.0000 H   0  0  0  0  0  0  0  0  0  0  0  0
    9.4156    2.8352    0.0000 H   0  0  0  0  0  0  0  0  0  0  0  0
   10.1041    2.8352    0.0000 H   0  0  0  0  0  0  0  0  0  0  0  0
   10.8446    2.8352    0.0000 H   0  0  0  0  0  0  0  0  0  0  0  0
   11.5591    4.7221    0.0000 H   0  0  0  0  0  0  0  0  0  0  0  0
   10.8185    4.7221    0.0000 H   0  0  0  0  0  0  0  0  0  0  0  0
   12.9880    4.7221    0.0000 H   0  0  0  0  0  0  0  0  0  0  0  0
   12.2475    4.7221    0.0000 H   0  0  0  0  0  0  0  0  0  0  0  0
   12.9619    2.8352    0.0000 H   0  0  0  0  0  0  0  0  0  0  0  0
   13.7025    2.8352    0.0000 H   0  0  0  0  0  0  0  0  0  0  0  0
   14.7611    3.5724    0.0000 H   0  0  0  0  0  0  0  0  0  0  0  0
  1  2  1  0  0  0  0
  2  3  1  0  0  0  0
  3  4  1  0  0  0  0
  4  5  1  0  0  0  0
  5  6  1  0  0  0  0
  6  7  1  0  0  0  0
  7  8  1  0  0  0  0
  8  9  1  0  0  0  0
  9 10  1  0  0  0  0
 10 11  1  0  0  0  0
 11 12  1  0  0  0  0
 12 13  1  0  0  0  0
  1 14  1  0  0  0  0
  2 15  1  0  0  0  0
  2 16  1  0  0  0  0
  3 17  1  0  0  0  0
  3 18  1  0  0  0  0
  5 19  1  0  0  0  0
  5 20  1  0  0  0  0
  6 21  1  0  0  0  0
  6 22  1  0  0  0  0
  8 23  1  0  0  0  0
  8 24  1  0  0  0  0
  9 25  1  0  0  0  0
  9 26  1  0  0  0  0
 11 27  1  0  0  0  0
 11 28  1  0  0  0  0
 12 29  1  0  0  0  0
 12 30  1  0  0  0  0
 13 31  1  0  0  0  0
M  END
>  <InChIKey>
UWHCKJMYHZGTIT-UHFFFAOYSA-N

>  <UN GHS>
Non-irritant

>  <CASRN>
112-60-7

> <Outcome>
0

>  <Index>
810

>  <StandardizerResult>
Clear Stereo (ID: ClearStereo)
Wedge Clean (ID: WedgeClean)
Mesomerize (ID: Mesomerize)
Tautomerize (ID: Tautomerize)
Add Explicit Hydrogens (ID: AddExplicitH)
Neutralize (ID: Neutralize)
Clean 2D (ID: Clean2D)

> <knn Distance>
3.16227769851685

> <CpId>
810

$$$$
838
  Mrv1532301301811342D          

 33 32  0  0  0  0            999 V2000
    6.1875   -6.4302    0.0000 F   0  0  0  0  0  0  0  0  0  0  0  0
    5.7750   -5.7158    0.0000 C   0  0  0  0  0  0  0  0  0  0  0  0
    6.4895   -5.3033    0.0000 F   0  0  0  0  0  0  0  0  0  0  0  0
    5.0605   -6.1283    0.0000 F   0  0  0  0  0  0  0  0  0  0  0  0
    5.3625   -5.0013    0.0000 C   0  0  0  0  0  0  0  0  0  0  0  0
    6.0770   -4.5888    0.0000 F   0  0  0  0  0  0  0  0  0  0  0  0
    4.6480   -5.4138    0.0000 F   0  0  0  0  0  0  0  0  0  0  0  0
    4.9500   -4.2868    0.0000 C   0  0  0  0  0  0  0  0  0  0  0  0
    5.6645   -3.8743    0.0000 F   0  0  0  0  0  0  0  0  0  0  0  0
    4.2355   -4.6993    0.0000 F   0  0  0  0  0  0  0  0  0  0  0  0
    4.5375   -3.5724    0.0000 C   0  0  0  0  0  0  0  0  0  0  0  0
    5.2520   -3.1599    0.0000 F   0  0  0  0  0  0  0  0  0  0  0  0
    3.8230   -3.9849    0.0000 F   0  0  0  0  0  0  0  0  0  0  0  0
    4.1250   -2.8579    0.0000 C   0  0  0  0  0  0  0  0  0  0  0  0
    4.8395   -2.4454    0.0000 F   0  0  0  0  0  0  0  0  0  0  0  0
    3.4105   -3.2704    0.0000 F   0  0  0  0  0  0  0  0  0  0  0  0
    3.7125   -2.1434    0.0000 C   0  0  0  0  0  0  0  0  0  0  0  0
    4.4270   -1.7309    0.0000 F   0  0  0  0  0  0  0  0  0  0  0  0
    2.9980   -2.5559    0.0000 F   0  0  0  0  0  0  0  0  0  0  0  0
    3.3000   -1.4289    0.0000 C   0  0  0  0  0  0  0  0  0  0  0  0
    2.4750   -1.4289    0.0000 C   0  0  0  0  0  0  0  0  0  0  0  0
    2.0625   -0.7145    0.0000 O   0  0  0  0  0  0  0  0  0  0  0  0
    1.2375   -0.7145    0.0000 C   0  0  0  0  0  0  0  0  0  0  0  0
    0.8250   -1.4289    0.0000 O   0  0  0  0  0  0  0  0  0  0  0  0
    0.8250    0.0000    0.0000 C   0  0  0  0  0  0  0  0  0  0  0  0
    0.0000    0.0000    0.0000 C   0  0  0  0  0  0  0  0  0  0  0  0
    3.9893   -0.9756    0.0000 H   0  0  0  0  0  0  0  0  0  0  0  0
    3.3480   -0.6053    0.0000 H   0  0  0  0  0  0  0  0  0  0  0  0
    1.7857   -1.8823    0.0000 H   0  0  0  0  0  0  0  0  0  0  0  0
    2.4270   -2.2525    0.0000 H   0  0  0  0  0  0  0  0  0  0  0  0
    1.2375    0.7145    0.0000 H   0  0  0  0  0  0  0  0  0  0  0  0
   -0.4125    0.7145    0.0000 H   0  0  0  0  0  0  0  0  0  0  0  0
   -0.4125   -0.7145    0.0000 H   0  0  0  0  0  0  0  0  0  0  0  0
  1  2  1  0  0  0  0
  2  3  1  0  0  0  0
  2  4  1  0  0  0  0
  2  5  1  0  0  0  0
  5  6  1  0  0  0  0
  5  7  1  0  0  0  0
  5  8  1  0  0  0  0
  8  9  1  0  0  0  0
  8 10  1  0  0  0  0
  8 11  1  0  0  0  0
 11 12  1  0  0  0  0
 11 13  1  0  0  0  0
 11 14  1  0  0  0  0
 14 15  1  0  0  0  0
 14 16  1  0  0  0  0
 14 17  1  0  0  0  0
 17 18  1  0  0  0  0
 17 19  1  0  0  0  0
 17 20  1  0  0  0  0
 20 21  1  0  0  0  0
 21 22  1  0  0  0  0
 22 23  1  0  0  0  0
 23 24  2  0  0  0  0
 23 25  1  0  0  0  0
 25 26  2  0  0  0  0
 20 27  1  0  0  0  0
 20 28  1  0  0  0  0
 21 29  1  0  0  0  0
 21 30  1  0  0  0  0
 25 31  1  0  0  0  0
 26 32  1  0  0  0  0
 26 33  1  0  0  0  0
M  END
>  <InChIKey>
VPKQPPJQTZJZDB-UHFFFAOYSA-N

>  <UN GHS>
Non-irritant

>  <CASRN>
17527-29-6

> <Outcome>
0

>  <Index>
838

>  <StandardizerResult>
Clear Stereo (ID: ClearStereo)
Wedge Clean (ID: WedgeClean)
Mesomerize (ID: Mesomerize)
Tautomerize (ID: Tautomerize)
Add Explicit Hydrogens (ID: AddExplicitH)
Neutralize (ID: Neutralize)
Clean 2D (ID: Clean2D)

> <knn Distance>
3.16227769851685

> <CpId>
838

$$$$
853
  Mrv1532301301811342D          

176175  0  0  0  0            999 V2000
   22.7907   13.9773    0.0000 C   0  0  0  0  0  0  0  0  0  0  0  0
   23.5052   13.5648    0.0000 C   0  0  0  0  0  0  0  0  0  0  0  0
   24.2197   13.9773    0.0000 C   0  0  0  0  0  0  0  0  0  0  0  0
   24.9342   13.5648    0.0000 C   0  0  0  0  0  0  0  0  0  0  0  0
   25.6486   13.9773    0.0000 C   0  0  0  0  0  0  0  0  0  0  0  0
   26.3631   13.5648    0.0000 C   0  0  0  0  0  0  0  0  0  0  0  0
   27.0776   13.9773    0.0000 C   0  0  0  0  0  0  0  0  0  0  0  0
   27.0776   14.8023    0.0000 O   0  0  0  0  0  0  0  0  0  0  0  0
   27.7920   13.5648    0.0000 C   0  0  0  0  0  0  0  0  0  0  0  0
   28.5065   13.9773    0.0000 C   0  0  0  0  0  0  0  0  0  0  0  0
   29.2210   13.5648    0.0000 C   0  0  0  0  0  0  0  0  0  0  0  0
   29.9355   13.9773    0.0000 C   0  0  0  0  0  0  0  0  0  0  0  0
   30.6499   13.5648    0.0000 C   0  0  0  0  0  0  0  0  0  0  0  0
   31.3644   13.9773    0.0000 C   0  0  0  0  0  0  0  0  0  0  0  0
   32.0789   13.5648    0.0000 C   0  0  0  0  0  0  0  0  0  0  0  0
   32.7933   13.9773    0.0000 C   0  0  0  0  0  0  0  0  0  0  0  0
   33.5078   13.5648    0.0000 C   0  0  0  0  0  0  0  0  0  0  0  0
   34.2223   13.9773    0.0000 C   0  0  0  0  0  0  0  0  0  0  0  0
   34.9367   13.5648    0.0000 C   0  0  0  0  0  0  0  0  0  0  0  0
   34.9367   12.7398    0.0000 O   0  0  0  0  0  0  0  0  0  0  0  0
   35.6512   13.9773    0.0000 O   0  0  0  0  0  0  0  0  0  0  0  0
   36.3657   13.5648    0.0000 C   0  0  0  0  0  0  0  0  0  0  0  0
   37.0802   13.9773    0.0000 C   0  0  0  0  0  0  0  0  0  0  0  0
   37.7946   13.5648    0.0000 C   0  0  0  0  0  0  0  0  0  0  0  0
   38.5091   13.9773    0.0000 O   0  0  0  0  0  0  0  0  0  0  0  0
   39.2236   13.5648    0.0000 C   0  0  0  0  0  0  0  0  0  0  0  0
   39.2236   12.7398    0.0000 O   0  0  0  0  0  0  0  0  0  0  0  0
   39.9380   13.9773    0.0000 C   0  0  0  0  0  0  0  0  0  0  0  0
   40.6525   13.5648    0.0000 C   0  0  0  0  0  0  0  0  0  0  0  0
   41.3670   13.9773    0.0000 C   0  0  0  0  0  0  0  0  0  0  0  0
   42.0815   13.5648    0.0000 C   0  0  0  0  0  0  0  0  0  0  0  0
   42.7959   13.9773    0.0000 C   0  0  0  0  0  0  0  0  0  0  0  0
   43.5104   13.5648    0.0000 C   0  0  0  0  0  0  0  0  0  0  0  0
   44.2249   13.9773    0.0000 C   0  0  0  0  0  0  0  0  0  0  0  0
   44.9393   13.5648    0.0000 C   0  0  0  0  0  0  0  0  0  0  0  0
   45.6538   13.9773    0.0000 C   0  0  0  0  0  0  0  0  0  0  0  0
   46.3683   13.5648    0.0000 C   0  0  0  0  0  0  0  0  0  0  0  0
   47.0828   13.9773    0.0000 C   0  0  0  0  0  0  0  0  0  0  0  0
   47.0828   14.8023    0.0000 O   0  0  0  0  0  0  0  0  0  0  0  0
   47.7972   13.5648    0.0000 C   0  0  0  0  0  0  0  0  0  0  0  0
   48.5117   13.9773    0.0000 C   0  0  0  0  0  0  0  0  0  0  0  0
   49.2262   13.5648    0.0000 C   0  0  0  0  0  0  0  0  0  0  0  0
   49.9406   13.9773    0.0000 C   0  0  0  0  0  0  0  0  0  0  0  0
   50.6551   13.5648    0.0000 C   0  0  0  0  0  0  0  0  0  0  0  0
   51.3696   13.9773    0.0000 C   0  0  0  0  0  0  0  0  0  0  0  0
   37.0802   14.8023    0.0000 O   0  0  0  0  0  0  0  0  0  0  0  0
   36.3657   15.2148    0.0000 C   0  0  0  0  0  0  0  0  0  0  0  0
   35.6512   14.8023    0.0000 O   0  0  0  0  0  0  0  0  0  0  0  0
   36.3657   16.0398    0.0000 C   0  0  0  0  0  0  0  0  0  0  0  0
   35.6512   16.4523    0.0000 C   0  0  0  0  0  0  0  0  0  0  0  0
   35.6512   17.2773    0.0000 C   0  0  0  0  0  0  0  0  0  0  0  0
   34.9367   17.6898    0.0000 C   0  0  0  0  0  0  0  0  0  0  0  0
   34.9367   18.5148    0.0000 C   0  0  0  0  0  0  0  0  0  0  0  0
   34.2223   18.9273    0.0000 C   0  0  0  0  0  0  0  0  0  0  0  0
   34.2223   19.7523    0.0000 C   0  0  0  0  0  0  0  0  0  0  0  0
   33.5078   20.1648    0.0000 C   0  0  0  0  0  0  0  0  0  0  0  0
   33.5078   20.9898    0.0000 C   0  0  0  0  0  0  0  0  0  0  0  0
   32.7933   21.4023    0.0000 C   0  0  0  0  0  0  0  0  0  0  0  0
   32.7933   22.2273    0.0000 C   0  0  0  0  0  0  0  0  0  0  0  0
   33.5078   22.6398    0.0000 O   0  0  0  0  0  0  0  0  0  0  0  0
   32.0789   22.6398    0.0000 C   0  0  0  0  0  0  0  0  0  0  0  0
   32.0789   23.4648    0.0000 C   0  0  0  0  0  0  0  0  0  0  0  0
   31.3644   23.8773    0.0000 C   0  0  0  0  0  0  0  0  0  0  0  0
   31.3644   24.7023    0.0000 C   0  0  0  0  0  0  0  0  0  0  0  0
   30.6499   25.1148    0.0000 C   0  0  0  0  0  0  0  0  0  0  0  0
   30.6499   25.9398    0.0000 C   0  0  0  0  0  0  0  0  0  0  0  0
   23.2032   14.6917    0.0000 H   0  0  0  0  0  0  0  0  0  0  0  0
   22.0763   14.3898    0.0000 H   0  0  0  0  0  0  0  0  0  0  0  0
   22.3782   13.2628    0.0000 H   0  0  0  0  0  0  0  0  0  0  0  0
   23.1350   12.8275    0.0000 H   0  0  0  0  0  0  0  0  0  0  0  0
   23.8755   12.8275    0.0000 H   0  0  0  0  0  0  0  0  0  0  0  0
   24.5899   14.7145    0.0000 H   0  0  0  0  0  0  0  0  0  0  0  0
   23.8494   14.7145    0.0000 H   0  0  0  0  0  0  0  0  0  0  0  0
   24.5639   12.8275    0.0000 H   0  0  0  0  0  0  0  0  0  0  0  0
   25.3044   12.8275    0.0000 H   0  0  0  0  0  0  0  0  0  0  0  0
   26.0189   14.7145    0.0000 H   0  0  0  0  0  0  0  0  0  0  0  0
   25.2784   14.7145    0.0000 H   0  0  0  0  0  0  0  0  0  0  0  0
   25.9928   12.8275    0.0000 H   0  0  0  0  0  0  0  0  0  0  0  0
   26.7334   12.8275    0.0000 H   0  0  0  0  0  0  0  0  0  0  0  0
   26.3631   14.3898    0.0000 H   0  0  0  0  0  0  0  0  0  0  0  0
   27.4901   15.5167    0.0000 H   0  0  0  0  0  0  0  0  0  0  0  0
   27.4218   12.8275    0.0000 H   0  0  0  0  0  0  0  0  0  0  0  0
   28.1623   12.8275    0.0000 H   0  0  0  0  0  0  0  0  0  0  0  0
   28.8768   14.7145    0.0000 H   0  0  0  0  0  0  0  0  0  0  0  0
   28.1363   14.7145    0.0000 H   0  0  0  0  0  0  0  0  0  0  0  0
   28.8507   12.8275    0.0000 H   0  0  0  0  0  0  0  0  0  0  0  0
   29.5912   12.8275    0.0000 H   0  0  0  0  0  0  0  0  0  0  0  0
   30.3057   14.7145    0.0000 H   0  0  0  0  0  0  0  0  0  0  0  0
   29.5652   14.7145    0.0000 H   0  0  0  0  0  0  0  0  0  0  0  0
   30.2797   12.8275    0.0000 H   0  0  0  0  0  0  0  0  0  0  0  0
   31.0202   12.8275    0.0000 H   0  0  0  0  0  0  0  0  0  0  0  0
   31.7347   14.7145    0.0000 H   0  0  0  0  0  0  0  0  0  0  0  0
   30.9941   14.7145    0.0000 H   0  0  0  0  0  0  0  0  0  0  0  0
   31.7086   12.8275    0.0000 H   0  0  0  0  0  0  0  0  0  0  0  0
   32.4491   12.8275    0.0000 H   0  0  0  0  0  0  0  0  0  0  0  0
   33.1636   14.7145    0.0000 H   0  0  0  0  0  0  0  0  0  0  0  0
   32.4231   14.7145    0.0000 H   0  0  0  0  0  0  0  0  0  0  0  0
   33.1375   12.8275    0.0000 H   0  0  0  0  0  0  0  0  0  0  0  0
   33.8781   12.8275    0.0000 H   0  0  0  0  0  0  0  0  0  0  0  0
   34.5925   14.7145    0.0000 H   0  0  0  0  0  0  0  0  0  0  0  0
   33.8520   14.7145    0.0000 H   0  0  0  0  0  0  0  0  0  0  0  0
   35.9954   12.8275    0.0000 H   0  0  0  0  0  0  0  0  0  0  0  0
   36.7359   12.8275    0.0000 H   0  0  0  0  0  0  0  0  0  0  0  0
   37.0802   13.1523    0.0000 H   0  0  0  0  0  0  0  0  0  0  0  0
   37.9379   12.7523    0.0000 H   0  0  0  0  0  0  0  0  0  0  0  0
   38.4266   13.0345    0.0000 H   0  0  0  0  0  0  0  0  0  0  0  0
   40.3083   14.7145    0.0000 H   0  0  0  0  0  0  0  0  0  0  0  0
   39.5678   14.7145    0.0000 H   0  0  0  0  0  0  0  0  0  0  0  0
   40.2823   12.8275    0.0000 H   0  0  0  0  0  0  0  0  0  0  0  0
   41.0228   12.8275    0.0000 H   0  0  0  0  0  0  0  0  0  0  0  0
   41.7372   14.7145    0.0000 H   0  0  0  0  0  0  0  0  0  0  0  0
   40.9967   14.7145    0.0000 H   0  0  0  0  0  0  0  0  0  0  0  0
   41.7112   12.8275    0.0000 H   0  0  0  0  0  0  0  0  0  0  0  0
   42.4517   12.8275    0.0000 H   0  0  0  0  0  0  0  0  0  0  0  0
   43.1662   14.7145    0.0000 H   0  0  0  0  0  0  0  0  0  0  0  0
   42.4257   14.7145    0.0000 H   0  0  0  0  0  0  0  0  0  0  0  0
   43.1401   12.8275    0.0000 H   0  0  0  0  0  0  0  0  0  0  0  0
   43.8807   12.8275    0.0000 H   0  0  0  0  0  0  0  0  0  0  0  0
   44.5951   14.7145    0.0000 H   0  0  0  0  0  0  0  0  0  0  0  0
   43.8546   14.7145    0.0000 H   0  0  0  0  0  0  0  0  0  0  0  0
   44.5691   12.8275    0.0000 H   0  0  0  0  0  0  0  0  0  0  0  0
   45.3096   12.8275    0.0000 H   0  0  0  0  0  0  0  0  0  0  0  0
   46.0241   14.7145    0.0000 H   0  0  0  0  0  0  0  0  0  0  0  0
   45.2836   14.7145    0.0000 H   0  0  0  0  0  0  0  0  0  0  0  0
   45.9980   12.8275    0.0000 H   0  0  0  0  0  0  0  0  0  0  0  0
   46.7385   12.8275    0.0000 H   0  0  0  0  0  0  0  0  0  0  0  0
   46.3683   14.3898    0.0000 H   0  0  0  0  0  0  0  0  0  0  0  0
   47.4953   15.5167    0.0000 H   0  0  0  0  0  0  0  0  0  0  0  0
   47.4270   12.8275    0.0000 H   0  0  0  0  0  0  0  0  0  0  0  0
   48.1675   12.8275    0.0000 H   0  0  0  0  0  0  0  0  0  0  0  0
   48.8820   14.7145    0.0000 H   0  0  0  0  0  0  0  0  0  0  0  0
   48.1414   14.7145    0.0000 H   0  0  0  0  0  0  0  0  0  0  0  0
   48.8559   12.8275    0.0000 H   0  0  0  0  0  0  0  0  0  0  0  0
   49.5964   12.8275    0.0000 H   0  0  0  0  0  0  0  0  0  0  0  0
   50.3109   14.7145    0.0000 H   0  0  0  0  0  0  0  0  0  0  0  0
   49.5704   14.7145    0.0000 H   0  0  0  0  0  0  0  0  0  0  0  0
   50.2848   12.8275    0.0000 H   0  0  0  0  0  0  0  0  0  0  0  0
   51.0254   12.8275    0.0000 H   0  0  0  0  0  0  0  0  0  0  0  0
   51.7821   13.2628    0.0000 H   0  0  0  0  0  0  0  0  0  0  0  0
   52.0841   14.3898    0.0000 H   0  0  0  0  0  0  0  0  0  0  0  0
   50.9571   14.6917    0.0000 H   0  0  0  0  0  0  0  0  0  0  0  0
   37.1893   16.0877    0.0000 H   0  0  0  0  0  0  0  0  0  0  0  0
   36.8190   16.7290    0.0000 H   0  0  0  0  0  0  0  0  0  0  0  0
   34.8276   16.4043    0.0000 H   0  0  0  0  0  0  0  0  0  0  0  0
   35.1979   15.7630    0.0000 H   0  0  0  0  0  0  0  0  0  0  0  0
   36.4748   17.3252    0.0000 H   0  0  0  0  0  0  0  0  0  0  0  0
   36.1046   17.9665    0.0000 H   0  0  0  0  0  0  0  0  0  0  0  0
   34.1131   17.6418    0.0000 H   0  0  0  0  0  0  0  0  0  0  0  0
   34.4834   17.0005    0.0000 H   0  0  0  0  0  0  0  0  0  0  0  0
   35.7604   18.5627    0.0000 H   0  0  0  0  0  0  0  0  0  0  0  0
   35.3901   19.2040    0.0000 H   0  0  0  0  0  0  0  0  0  0  0  0
   33.3987   18.8793    0.0000 H   0  0  0  0  0  0  0  0  0  0  0  0
   33.7689   18.2380    0.0000 H   0  0  0  0  0  0  0  0  0  0  0  0
   35.0459   19.8002    0.0000 H   0  0  0  0  0  0  0  0  0  0  0  0
   34.6756   20.4415    0.0000 H   0  0  0  0  0  0  0  0  0  0  0  0
   32.6842   20.1168    0.0000 H   0  0  0  0  0  0  0  0  0  0  0  0
   33.0545   19.4755    0.0000 H   0  0  0  0  0  0  0  0  0  0  0  0
   34.3314   21.0377    0.0000 H   0  0  0  0  0  0  0  0  0  0  0  0
   33.9612   21.6790    0.0000 H   0  0  0  0  0  0  0  0  0  0  0  0
   31.9697   21.3543    0.0000 H   0  0  0  0  0  0  0  0  0  0  0  0
   32.3400   20.7130    0.0000 H   0  0  0  0  0  0  0  0  0  0  0  0
   33.5078   21.8148    0.0000 H   0  0  0  0  0  0  0  0  0  0  0  0
   33.9203   23.3542    0.0000 H   0  0  0  0  0  0  0  0  0  0  0  0
   31.2553   22.5918    0.0000 H   0  0  0  0  0  0  0  0  0  0  0  0
   31.6255   21.9505    0.0000 H   0  0  0  0  0  0  0  0  0  0  0  0
   32.9025   23.5127    0.0000 H   0  0  0  0  0  0  0  0  0  0  0  0
   32.5322   24.1540    0.0000 H   0  0  0  0  0  0  0  0  0  0  0  0
   30.5408   23.8293    0.0000 H   0  0  0  0  0  0  0  0  0  0  0  0
   30.9110   23.1880    0.0000 H   0  0  0  0  0  0  0  0  0  0  0  0
   32.1880   24.7502    0.0000 H   0  0  0  0  0  0  0  0  0  0  0  0
   31.8177   25.3915    0.0000 H   0  0  0  0  0  0  0  0  0  0  0  0
   29.8263   25.0668    0.0000 H   0  0  0  0  0  0  0  0  0  0  0  0
   30.1966   24.4255    0.0000 H   0  0  0  0  0  0  0  0  0  0  0  0
   31.4749   25.9398    0.0000 H   0  0  0  0  0  0  0  0  0  0  0  0
   30.6499   26.7648    0.0000 H   0  0  0  0  0  0  0  0  0  0  0  0
   29.8249   25.9398    0.0000 H   0  0  0  0  0  0  0  0  0  0  0  0
  1  2  1  0  0  0  0
  2  3  1  0  0  0  0
  3  4  1  0  0  0  0
  4  5  1  0  0  0  0
  5  6  1  0  0  0  0
  6  7  1  0  0  0  0
  7  8  1  0  0  0  0
  7  9  1  0  0  0  0
  9 10  1  0  0  0  0
 10 11  1  0  0  0  0
 11 12  1  0  0  0  0
 12 13  1  0  0  0  0
 13 14  1  0  0  0  0
 14 15  1  0  0  0  0
 15 16  1  0  0  0  0
 16 17  1  0  0  0  0
 17 18  1  0  0  0  0
 18 19  1  0  0  0  0
 19 20  2  0  0  0  0
 19 21  1  0  0  0  0
 21 22  1  0  0  0  0
 22 23  1  0  0  0  0
 23 24  1  0  0  0  0
 24 25  1  0  0  0  0
 25 26  1  0  0  0  0
 26 27  2  0  0  0  0
 26 28  1  0  0  0  0
 28 29  1  0  0  0  0
 29 30  1  0  0  0  0
 30 31  1  0  0  0  0
 31 32  1  0  0  0  0
 32 33  1  0  0  0  0
 33 34  1  0  0  0  0
 34 35  1  0  0  0  0
 35 36  1  0  0  0  0
 36 37  1  0  0  0  0
 37 38  1  0  0  0  0
 38 39  1  0  0  0  0
 38 40  1  0  0  0  0
 40 41  1  0  0  0  0
 41 42  1  0  0  0  0
 42 43  1  0  0  0  0
 43 44  1  0  0  0  0
 44 45  1  0  0  0  0
 23 46  1  0  0  0  0
 46 47  1  0  0  0  0
 47 48  2  0  0  0  0
 47 49  1  0  0  0  0
 49 50  1  0  0  0  0
 50 51  1  0  0  0  0
 51 52  1  0  0  0  0
 52 53  1  0  0  0  0
 53 54  1  0  0  0  0
 54 55  1  0  0  0  0
 55 56  1  0  0  0  0
 56 57  1  0  0  0  0
 57 58  1  0  0  0  0
 58 59  1  0  0  0  0
 59 60  1  0  0  0  0
 59 61  1  0  0  0  0
 61 62  1  0  0  0  0
 62 63  1  0  0  0  0
 63 64  1  0  0  0  0
 64 65  1  0  0  0  0
 65 66  1  0  0  0  0
  1 67  1  0  0  0  0
  1 68  1  0  0  0  0
  1 69  1  0  0  0  0
  2 70  1  0  0  0  0
  2 71  1  0  0  0  0
  3 72  1  0  0  0  0
  3 73  1  0  0  0  0
  4 74  1  0  0  0  0
  4 75  1  0  0  0  0
  5 76  1  0  0  0  0
  5 77  1  0  0  0  0
  6 78  1  0  0  0  0
  6 79  1  0  0  0  0
  7 80  1  0  0  0  0
  8 81  1  0  0  0  0
  9 82  1  0  0  0  0
  9 83  1  0  0  0  0
 10 84  1  0  0  0  0
 10 85  1  0  0  0  0
 11 86  1  0  0  0  0
 11 87  1  0  0  0  0
 12 88  1  0  0  0  0
 12 89  1  0  0  0  0
 13 90  1  0  0  0  0
 13 91  1  0  0  0  0
 14 92  1  0  0  0  0
 14 93  1  0  0  0  0
 15 94  1  0  0  0  0
 15 95  1  0  0  0  0
 16 96  1  0  0  0  0
 16 97  1  0  0  0  0
 17 98  1  0  0  0  0
 17 99  1  0  0  0  0
 18100  1  0  0  0  0
 18101  1  0  0  0  0
 22102  1  0  0  0  0
 22103  1  0  0  0  0
 23104  1  0  0  0  0
 24105  1  0  0  0  0
 24106  1  0  0  0  0
 28107  1  0  0  0  0
 28108  1  0  0  0  0
 29109  1  0  0  0  0
 29110  1  0  0  0  0
 30111  1  0  0  0  0
 30112  1  0  0  0  0
 31113  1  0  0  0  0
 31114  1  0  0  0  0
 32115  1  0  0  0  0
 32116  1  0  0  0  0
 33117  1  0  0  0  0
 33118  1  0  0  0  0
 34119  1  0  0  0  0
 34120  1  0  0  0  0
 35121  1  0  0  0  0
 35122  1  0  0  0  0
 36123  1  0  0  0  0
 36124  1  0  0  0  0
 37125  1  0  0  0  0
 37126  1  0  0  0  0
 38127  1  0  0  0  0
 39128  1  0  0  0  0
 40129  1  0  0  0  0
 40130  1  0  0  0  0
 41131  1  0  0  0  0
 41132  1  0  0  0  0
 42133  1  0  0  0  0
 42134  1  0  0  0  0
 43135  1  0  0  0  0
 43136  1  0  0  0  0
 44137  1  0  0  0  0
 44138  1  0  0  0  0
 45139  1  0  0  0  0
 45140  1  0  0  0  0
 45141  1  0  0  0  0
 49142  1  0  0  0  0
 49143  1  0  0  0  0
 50144  1  0  0  0  0
 50145  1  0  0  0  0
 51146  1  0  0  0  0
 51147  1  0  0  0  0
 52148  1  0  0  0  0
 52149  1  0  0  0  0
 53150  1  0  0  0  0
 53151  1  0  0  0  0
 54152  1  0  0  0  0
 54153  1  0  0  0  0
 55154  1  0  0  0  0
 55155  1  0  0  0  0
 56156  1  0  0  0  0
 56157  1  0  0  0  0
 57158  1  0  0  0  0
 57159  1  0  0  0  0
 58160  1  0  0  0  0
 58161  1  0  0  0  0
 59162  1  0  0  0  0
 60163  1  0  0  0  0
 61164  1  0  0  0  0
 61165  1  0  0  0  0
 62166  1  0  0  0  0
 62167  1  0  0  0  0
 63168  1  0  0  0  0
 63169  1  0  0  0  0
 64170  1  0  0  0  0
 64171  1  0  0  0  0
 65172  1  0  0  0  0
 65173  1  0  0  0  0
 66174  1  0  0  0  0
 66175  1  0  0  0  0
 66176  1  0  0  0  0
M  END
>  <InChIKey>
WCOXQTXVACYMLM-UHFFFAOYSA-N

>  <UN GHS>
Non-irritant

>  <CASRN>
8001-78-3

> <Outcome>
0

>  <Index>
853

>  <StandardizerResult>
Clear Stereo (ID: ClearStereo)
Wedge Clean (ID: WedgeClean)
Mesomerize (ID: Mesomerize)
Tautomerize (ID: Tautomerize)
Add Explicit Hydrogens (ID: AddExplicitH)
Neutralize (ID: Neutralize)
Clean 2D (ID: Clean2D)

> <knn Distance>
3.16227769851685

> <CpId>
853

$$$$
908
  Mrv1532301301811342D          

 36 36  0  0  0  0            999 V2000
    0.0986    2.5010    0.0000 C   0  0  0  0  0  0  0  0  0  0  0  0
    0.8131    2.0885    0.0000 C   0  0  0  0  0  0  0  0  0  0  0  0
    1.5275    2.5010    0.0000 C   0  0  0  0  0  0  0  0  0  0  0  0
    0.8131    1.2635    0.0000 C   0  0  0  0  0  0  0  0  0  0  0  0
    1.5275    0.8510    0.0000 C   0  0  0  0  0  0  0  0  0  0  0  0
    1.5275    0.0260    0.0000 C   0  0  0  0  0  0  0  0  0  0  0  0
    0.8131   -0.3865    0.0000 C   0  0  0  0  0  0  0  0  0  0  0  0
    0.8131   -1.2115    0.0000 C   0  0  0  0  0  0  0  0  0  0  0  0
    0.0986    0.0260    0.0000 C   0  0  0  0  0  0  0  0  0  0  0  0
    0.0986    0.8510    0.0000 C   0  0  0  0  0  0  0  0  0  0  0  0
   -0.6159    1.2635    0.0000 O   0  0  0  0  0  0  0  0  0  0  0  0
   -1.3303    0.8510    0.0000 C   0  0  0  0  0  0  0  0  0  0  0  0
   -1.3303    0.0260    0.0000 C   0  0  0  0  0  0  0  0  0  0  0  0
   -2.0448    1.2635    0.0000 O   0  0  0  0  0  0  0  0  0  0  0  0
    0.5111    3.2155    0.0000 H   0  0  0  0  0  0  0  0  0  0  0  0
   -0.6159    2.9135    0.0000 H   0  0  0  0  0  0  0  0  0  0  0  0
   -0.3139    1.7866    0.0000 H   0  0  0  0  0  0  0  0  0  0  0  0
    0.8131    2.9135    0.0000 H   0  0  0  0  0  0  0  0  0  0  0  0
    1.7411    1.7041    0.0000 H   0  0  0  0  0  0  0  0  0  0  0  0
    2.3525    2.5010    0.0000 H   0  0  0  0  0  0  0  0  0  0  0  0
    1.7411    3.2979    0.0000 H   0  0  0  0  0  0  0  0  0  0  0  0
    0.0986    1.6760    0.0000 H   0  0  0  0  0  0  0  0  0  0  0  0
    2.3463    0.7501    0.0000 H   0  0  0  0  0  0  0  0  0  0  0  0
    0.8131    0.4385    0.0000 H   0  0  0  0  0  0  0  0  0  0  0  0
    1.9809   -0.6633    0.0000 H   0  0  0  0  0  0  0  0  0  0  0  0
    2.3511   -0.0219    0.0000 H   0  0  0  0  0  0  0  0  0  0  0  0
    0.0986   -0.7990    0.0000 H   0  0  0  0  0  0  0  0  0  0  0  0
    0.2297   -1.7948    0.0000 H   0  0  0  0  0  0  0  0  0  0  0  0
    1.2256   -1.9259    0.0000 H   0  0  0  0  0  0  0  0  0  0  0  0
    1.6100   -0.9980    0.0000 H   0  0  0  0  0  0  0  0  0  0  0  0
   -0.6767    0.3082    0.0000 H   0  0  0  0  0  0  0  0  0  0  0  0
   -0.6767   -0.2561    0.0000 H   0  0  0  0  0  0  0  0  0  0  0  0
   -0.3139    1.5655    0.0000 H   0  0  0  0  0  0  0  0  0  0  0  0
   -2.0565    0.4176    0.0000 H   0  0  0  0  0  0  0  0  0  0  0  0
   -2.0197   -0.4272    0.0000 H   0  0  0  0  0  0  0  0  0  0  0  0
   -1.2586   -0.7959    0.0000 H   0  0  0  0  0  0  0  0  0  0  0  0
  1  2  1  0  0  0  0
  2  3  1  0  0  0  0
  2  4  1  0  0  0  0
  4  5  1  0  0  0  0
  5  6  1  0  0  0  0
  6  7  1  0  0  0  0
  7  8  1  0  0  0  0
  7  9  1  0  0  0  0
  9 10  1  0  0  0  0
  4 10  1  0  0  0  0
 10 11  1  0  0  0  0
 11 12  1  0  0  0  0
 12 13  1  0  0  0  0
 12 14  2  0  0  0  0
  1 15  1  0  0  0  0
  1 16  1  0  0  0  0
  1 17  1  0  0  0  0
  2 18  1  0  0  0  0
  3 19  1  0  0  0  0
  3 20  1  0  0  0  0
  3 21  1  0  0  0  0
  4 22  1  0  0  0  0
  5 23  1  0  0  0  0
  5 24  1  0  0  0  0
  6 25  1  0  0  0  0
  6 26  1  0  0  0  0
  7 27  1  0  0  0  0
  8 28  1  0  0  0  0
  8 29  1  0  0  0  0
  8 30  1  0  0  0  0
  9 31  1  0  0  0  0
  9 32  1  0  0  0  0
 10 33  1  0  0  0  0
 13 34  1  0  0  0  0
 13 35  1  0  0  0  0
 13 36  1  0  0  0  0
M  END
>  <InChIKey>
XHXUANMFYXWVNG-UHFFFAOYSA-N

>  <UN GHS>
Non-irritant

>  <CASRN>
89-48-5

> <Outcome>
0

>  <Index>
908

>  <StandardizerResult>
Clear Stereo (ID: ClearStereo)
Wedge Clean (ID: WedgeClean)
Mesomerize (ID: Mesomerize)
Tautomerize (ID: Tautomerize)
Add Explicit Hydrogens (ID: AddExplicitH)
Neutralize (ID: Neutralize)
Clean 2D (ID: Clean2D)

> <knn Distance>
3.16227769851685

> <CpId>
908

$$$$
942
  Mrv1532301301811342D          

 43 42  0  0  0  0            999 V2000
    0.7483    2.9929    0.0000 C   0  0  0  0  0  0  0  0  0  0  0  0
    1.4628    2.5804    0.0000 C   0  0  0  0  0  0  0  0  0  0  0  0
    1.0503    1.8659    0.0000 C   0  0  0  0  0  0  0  0  0  0  0  0
    1.8753    3.2949    0.0000 C   0  0  0  0  0  0  0  0  0  0  0  0
    2.1772    2.1679    0.0000 C   0  0  0  0  0  0  0  0  0  0  0  0
    2.8917    2.5804    0.0000 C   0  0  0  0  0  0  0  0  0  0  0  0
    3.6062    2.1679    0.0000 C   0  0  0  0  0  0  0  0  0  0  0  0
    4.3207    2.5804    0.0000 C   0  0  0  0  0  0  0  0  0  0  0  0
    5.0351    2.1679    0.0000 C   0  0  0  0  0  0  0  0  0  0  0  0
    5.7496    2.5804    0.0000 C   0  0  0  0  0  0  0  0  0  0  0  0
    6.4641    2.1679    0.0000 C   0  0  0  0  0  0  0  0  0  0  0  0
    7.1785    2.5804    0.0000 C   0  0  0  0  0  0  0  0  0  0  0  0
    7.8930    2.1679    0.0000 C   0  0  0  0  0  0  0  0  0  0  0  0
    8.6075    2.5804    0.0000 N   0  0  0  0  0  0  0  0  0  0  0  0
    1.1608    3.7074    0.0000 H   0  0  0  0  0  0  0  0  0  0  0  0
    0.0338    3.4054    0.0000 H   0  0  0  0  0  0  0  0  0  0  0  0
    0.3358    2.2784    0.0000 H   0  0  0  0  0  0  0  0  0  0  0  0
    0.3958    1.3637    0.0000 H   0  0  0  0  0  0  0  0  0  0  0  0
    1.2638    1.0690    0.0000 H   0  0  0  0  0  0  0  0  0  0  0  0
    1.8682    1.7582    0.0000 H   0  0  0  0  0  0  0  0  0  0  0  0
    2.3775    2.6403    0.0000 H   0  0  0  0  0  0  0  0  0  0  0  0
    2.6722    3.5084    0.0000 H   0  0  0  0  0  0  0  0  0  0  0  0
    1.9830    4.1128    0.0000 H   0  0  0  0  0  0  0  0  0  0  0  0
    2.3951    1.3722    0.0000 H   0  0  0  0  0  0  0  0  0  0  0  0
    2.9403    1.8543    0.0000 H   0  0  0  0  0  0  0  0  0  0  0  0
    3.6907    2.7861    0.0000 H   0  0  0  0  0  0  0  0  0  0  0  0
    3.3182    3.2866    0.0000 H   0  0  0  0  0  0  0  0  0  0  0  0
    3.7079    1.3492    0.0000 H   0  0  0  0  0  0  0  0  0  0  0  0
    4.2206    1.6174    0.0000 H   0  0  0  0  0  0  0  0  0  0  0  0
    4.9077    3.1600    0.0000 H   0  0  0  0  0  0  0  0  0  0  0  0
    4.3598    3.4045    0.0000 H   0  0  0  0  0  0  0  0  0  0  0  0
    4.6649    1.4306    0.0000 H   0  0  0  0  0  0  0  0  0  0  0  0
    5.4054    1.4306    0.0000 H   0  0  0  0  0  0  0  0  0  0  0  0
    6.1199    3.3176    0.0000 H   0  0  0  0  0  0  0  0  0  0  0  0
    5.3793    3.3176    0.0000 H   0  0  0  0  0  0  0  0  0  0  0  0
    6.0938    1.4306    0.0000 H   0  0  0  0  0  0  0  0  0  0  0  0
    6.8343    1.4306    0.0000 H   0  0  0  0  0  0  0  0  0  0  0  0
    7.5488    3.3176    0.0000 H   0  0  0  0  0  0  0  0  0  0  0  0
    6.8083    3.3176    0.0000 H   0  0  0  0  0  0  0  0  0  0  0  0
    7.5228    1.4306    0.0000 H   0  0  0  0  0  0  0  0  0  0  0  0
    8.2633    1.4306    0.0000 H   0  0  0  0  0  0  0  0  0  0  0  0
    9.3220    2.1679    0.0000 H   0  0  0  0  0  0  0  0  0  0  0  0
    8.6075    3.4054    0.0000 H   0  0  0  0  0  0  0  0  0  0  0  0
  1  2  1  0  0  0  0
  2  3  1  0  0  0  0
  2  4  1  0  0  0  0
  2  5  1  0  0  0  0
  5  6  1  0  0  0  0
  6  7  1  0  0  0  0
  7  8  1  0  0  0  0
  8  9  1  0  0  0  0
  9 10  1  0  0  0  0
 10 11  1  0  0  0  0
 11 12  1  0  0  0  0
 12 13  1  0  0  0  0
 13 14  1  0  0  0  0
  1 15  1  0  0  0  0
  1 16  1  0  0  0  0
  1 17  1  0  0  0  0
  3 18  1  0  0  0  0
  3 19  1  0  0  0  0
  3 20  1  0  0  0  0
  4 21  1  0  0  0  0
  4 22  1  0  0  0  0
  4 23  1  0  0  0  0
  5 24  1  0  0  0  0
  5 25  1  0  0  0  0
  6 26  1  0  0  0  0
  6 27  1  0  0  0  0
  7 28  1  0  0  0  0
  7 29  1  0  0  0  0
  8 30  1  0  0  0  0
  8 31  1  0  0  0  0
  9 32  1  0  0  0  0
  9 33  1  0  0  0  0
 10 34  1  0  0  0  0
 10 35  1  0  0  0  0
 11 36  1  0  0  0  0
 11 37  1  0  0  0  0
 12 38  1  0  0  0  0
 12 39  1  0  0  0  0
 13 40  1  0  0  0  0
 13 41  1  0  0  0  0
 14 42  1  0  0  0  0
 14 43  1  0  0  0  0
M  END
>  <InChIKey>
XWBTWKLPOWCMEX-UHFFFAOYSA-N

>  <UN GHS>
Non-irritant

>  <CASRN>
68955-53-3

> <Outcome>
0

>  <Index>
942

>  <StandardizerResult>
Clear Stereo (ID: ClearStereo)
Wedge Clean (ID: WedgeClean)
Mesomerize (ID: Mesomerize)
Tautomerize (ID: Tautomerize)
Add Explicit Hydrogens (ID: AddExplicitH)
Neutralize (ID: Neutralize)
Clean 2D (ID: Clean2D)

> <knn Distance>
3.16227769851685

> <CpId>
942

$$$$
968
  Mrv1532301301811342D          

 12 11  0  0  0  0            999 V2000
    2.4750   -1.4289    0.0000 C   0  0  0  0  0  0  0  0  0  0  0  0
    2.0625   -0.7145    0.0000 O   0  0  0  0  0  0  0  0  0  0  0  0
    1.2375   -0.7145    0.0000 P   0  3  0  0  0  0  0  0  0  0  0  0
    0.8250   -1.4289    0.0000 O   0  0  0  0  0  0  0  0  0  0  0  0
    0.8250    0.0000    0.0000 O   0  0  0  0  0  0  0  0  0  0  0  0
    0.0000    0.0000    0.0000 C   0  0  0  0  0  0  0  0  0  0  0  0
    1.7605   -1.8414    0.0000 H   0  0  0  0  0  0  0  0  0  0  0  0
    2.8875   -2.1434    0.0000 H   0  0  0  0  0  0  0  0  0  0  0  0
    3.1895   -1.0164    0.0000 H   0  0  0  0  0  0  0  0  0  0  0  0
    0.0000    0.8250    0.0000 H   0  0  0  0  0  0  0  0  0  0  0  0
   -0.8250    0.0000    0.0000 H   0  0  0  0  0  0  0  0  0  0  0  0
    0.0000   -0.8250    0.0000 H   0  0  0  0  0  0  0  0  0  0  0  0
  1  2  1  0  0  0  0
  2  3  1  0  0  0  0
  3  4  2  0  0  0  0
  3  5  1  0  0  0  0
  5  6  1  0  0  0  0
  1  7  1  0  0  0  0
  1  8  1  0  0  0  0
  1  9  1  0  0  0  0
  6 10  1  0  0  0  0
  6 11  1  0  0  0  0
  6 12  1  0  0  0  0
M  CHG  1   3   1
M  END
>  <InChIKey>
YLFBFPXKTIQSSY-UHFFFAOYSA-N

>  <UN GHS>
Non-irritant

>  <CASRN>
868-85-9

> <Outcome>
0

>  <Index>
968

>  <StandardizerResult>
Clear Stereo (ID: ClearStereo)
Wedge Clean (ID: WedgeClean)
Mesomerize (ID: Mesomerize)
Tautomerize (ID: Tautomerize)
Add Explicit Hydrogens (ID: AddExplicitH)
Clean 2D (ID: Clean2D)

> <knn Distance>
3.16227769851685

> <CpId>
968

$$$$
978
  Mrv1532301301811342D          

 32 31  0  0  0  0            999 V2000
    2.2472    2.1482    0.0000 C   0  0  0  0  0  0  0  0  0  0  0  0
    2.9617    2.5607    0.0000 C   0  0  0  0  0  0  0  0  0  0  0  0
    2.9617    3.3857    0.0000 C   0  0  0  0  0  0  0  0  0  0  0  0
    3.6761    2.1482    0.0000 O   0  0  0  0  0  0  0  0  0  0  0  0
    4.3906    2.5607    0.0000 C   0  0  0  0  0  0  0  0  0  0  0  0
    4.3906    3.3857    0.0000 O   0  0  0  0  0  0  0  0  0  0  0  0
    5.1051    2.1482    0.0000 C   0  0  0  0  0  0  0  0  0  0  0  0
    5.8195    2.5607    0.0000 C   0  0  0  0  0  0  0  0  0  0  0  0
    6.5340    2.1482    0.0000 C   0  0  0  0  0  0  0  0  0  0  0  0
    6.5340    1.3232    0.0000 O   0  0  0  0  0  0  0  0  0  0  0  0
    7.2485    2.5607    0.0000 O   0  0  0  0  0  0  0  0  0  0  0  0
    7.9630    2.1482    0.0000 C   0  0  0  0  0  0  0  0  0  0  0  0
    8.6774    2.5607    0.0000 C   0  0  0  0  0  0  0  0  0  0  0  0
    7.9630    1.3232    0.0000 C   0  0  0  0  0  0  0  0  0  0  0  0
    1.8347    2.8627    0.0000 H   0  0  0  0  0  0  0  0  0  0  0  0
    1.5327    1.7357    0.0000 H   0  0  0  0  0  0  0  0  0  0  0  0
    2.6597    1.4337    0.0000 H   0  0  0  0  0  0  0  0  0  0  0  0
    2.2472    2.9732    0.0000 H   0  0  0  0  0  0  0  0  0  0  0  0
    3.7585    3.1722    0.0000 H   0  0  0  0  0  0  0  0  0  0  0  0
    3.3742    4.1002    0.0000 H   0  0  0  0  0  0  0  0  0  0  0  0
    2.3783    3.9690    0.0000 H   0  0  0  0  0  0  0  0  0  0  0  0
    4.7348    1.4109    0.0000 H   0  0  0  0  0  0  0  0  0  0  0  0
    5.4753    1.4109    0.0000 H   0  0  0  0  0  0  0  0  0  0  0  0
    6.1898    3.2979    0.0000 H   0  0  0  0  0  0  0  0  0  0  0  0
    5.4493    3.2979    0.0000 H   0  0  0  0  0  0  0  0  0  0  0  0
    7.9630    2.9732    0.0000 H   0  0  0  0  0  0  0  0  0  0  0  0
    8.8910    1.7638    0.0000 H   0  0  0  0  0  0  0  0  0  0  0  0
    9.5024    2.5607    0.0000 H   0  0  0  0  0  0  0  0  0  0  0  0
    8.8910    3.3576    0.0000 H   0  0  0  0  0  0  0  0  0  0  0  0
    7.1380    1.3232    0.0000 H   0  0  0  0  0  0  0  0  0  0  0  0
    7.9630    0.4982    0.0000 H   0  0  0  0  0  0  0  0  0  0  0  0
    8.7880    1.3232    0.0000 H   0  0  0  0  0  0  0  0  0  0  0  0
  1  2  1  0  0  0  0
  2  3  1  0  0  0  0
  2  4  1  0  0  0  0
  4  5  1  0  0  0  0
  5  6  2  0  0  0  0
  5  7  1  0  0  0  0
  7  8  1  0  0  0  0
  8  9  1  0  0  0  0
  9 10  2  0  0  0  0
  9 11  1  0  0  0  0
 11 12  1  0  0  0  0
 12 13  1  0  0  0  0
 12 14  1  0  0  0  0
  1 15  1  0  0  0  0
  1 16  1  0  0  0  0
  1 17  1  0  0  0  0
  2 18  1  0  0  0  0
  3 19  1  0  0  0  0
  3 20  1  0  0  0  0
  3 21  1  0  0  0  0
  7 22  1  0  0  0  0
  7 23  1  0  0  0  0
  8 24  1  0  0  0  0
  8 25  1  0  0  0  0
 12 26  1  0  0  0  0
 13 27  1  0  0  0  0
 13 28  1  0  0  0  0
 13 29  1  0  0  0  0
 14 30  1  0  0  0  0
 14 31  1  0  0  0  0
 14 32  1  0  0  0  0
M  END
>  <InChIKey>
YPLYFEUBZLLLIY-UHFFFAOYSA-N

>  <UN GHS>
Non-irritant

>  <CASRN>
924-88-9

> <Outcome>
0

>  <Index>
978

>  <StandardizerResult>
Clear Stereo (ID: ClearStereo)
Wedge Clean (ID: WedgeClean)
Mesomerize (ID: Mesomerize)
Tautomerize (ID: Tautomerize)
Add Explicit Hydrogens (ID: AddExplicitH)
Neutralize (ID: Neutralize)
Clean 2D (ID: Clean2D)

> <knn Distance>
3.16227769851685

> <CpId>
978

$$$$
995
  Mrv1532301301811342D          

 38 37  0  0  0  0            999 V2000
    3.4904    2.8619    0.0000 C   0  0  0  0  0  0  0  0  0  0  0  0
    4.2049    3.2744    0.0000 C   0  0  0  0  0  0  0  0  0  0  0  0
    4.2049    4.0994    0.0000 C   0  0  0  0  0  0  0  0  0  0  0  0
    4.9194    2.8619    0.0000 O   0  0  0  0  0  0  0  0  0  0  0  0
    5.6339    3.2744    0.0000 C   0  0  0  0  0  0  0  0  0  0  0  0
    5.6339    4.0994    0.0000 O   0  0  0  0  0  0  0  0  0  0  0  0
    6.3483    2.8619    0.0000 C   0  0  0  0  0  0  0  0  0  0  0  0
    7.0628    3.2744    0.0000 C   0  0  0  0  0  0  0  0  0  0  0  0
    7.7773    2.8619    0.0000 C   0  0  0  0  0  0  0  0  0  0  0  0
    8.4917    3.2744    0.0000 C   0  0  0  0  0  0  0  0  0  0  0  0
    9.2062    2.8619    0.0000 C   0  0  0  0  0  0  0  0  0  0  0  0
    9.2062    2.0369    0.0000 O   0  0  0  0  0  0  0  0  0  0  0  0
    9.9207    3.2744    0.0000 O   0  0  0  0  0  0  0  0  0  0  0  0
   10.6351    2.8619    0.0000 C   0  0  0  0  0  0  0  0  0  0  0  0
   11.3496    3.2744    0.0000 C   0  0  0  0  0  0  0  0  0  0  0  0
   10.6351    2.0369    0.0000 C   0  0  0  0  0  0  0  0  0  0  0  0
    3.0779    3.5764    0.0000 H   0  0  0  0  0  0  0  0  0  0  0  0
    2.7760    2.4494    0.0000 H   0  0  0  0  0  0  0  0  0  0  0  0
    3.9029    2.1475    0.0000 H   0  0  0  0  0  0  0  0  0  0  0  0
    3.4904    3.6869    0.0000 H   0  0  0  0  0  0  0  0  0  0  0  0
    5.0018    3.8859    0.0000 H   0  0  0  0  0  0  0  0  0  0  0  0
    4.6174    4.8139    0.0000 H   0  0  0  0  0  0  0  0  0  0  0  0
    3.6215    4.6828    0.0000 H   0  0  0  0  0  0  0  0  0  0  0  0
    5.9781    2.1247    0.0000 H   0  0  0  0  0  0  0  0  0  0  0  0
    6.7186    2.1247    0.0000 H   0  0  0  0  0  0  0  0  0  0  0  0
    7.4331    4.0117    0.0000 H   0  0  0  0  0  0  0  0  0  0  0  0
    6.6925    4.0117    0.0000 H   0  0  0  0  0  0  0  0  0  0  0  0
    7.4070    2.1247    0.0000 H   0  0  0  0  0  0  0  0  0  0  0  0
    8.1475    2.1247    0.0000 H   0  0  0  0  0  0  0  0  0  0  0  0
    8.8620    4.0117    0.0000 H   0  0  0  0  0  0  0  0  0  0  0  0
    8.1215    4.0117    0.0000 H   0  0  0  0  0  0  0  0  0  0  0  0
   10.6351    3.6869    0.0000 H   0  0  0  0  0  0  0  0  0  0  0  0
   11.5631    2.4775    0.0000 H   0  0  0  0  0  0  0  0  0  0  0  0
   12.1746    3.2744    0.0000 H   0  0  0  0  0  0  0  0  0  0  0  0
   11.5631    4.0713    0.0000 H   0  0  0  0  0  0  0  0  0  0  0  0
    9.8101    2.0369    0.0000 H   0  0  0  0  0  0  0  0  0  0  0  0
   10.6351    1.2119    0.0000 H   0  0  0  0  0  0  0  0  0  0  0  0
   11.4601    2.0369    0.0000 H   0  0  0  0  0  0  0  0  0  0  0  0
  1  2  1  0  0  0  0
  2  3  1  0  0  0  0
  2  4  1  0  0  0  0
  4  5  1  0  0  0  0
  5  6  2  0  0  0  0
  5  7  1  0  0  0  0
  7  8  1  0  0  0  0
  8  9  1  0  0  0  0
  9 10  1  0  0  0  0
 10 11  1  0  0  0  0
 11 12  2  0  0  0  0
 11 13  1  0  0  0  0
 13 14  1  0  0  0  0
 14 15  1  0  0  0  0
 14 16  1  0  0  0  0
  1 17  1  0  0  0  0
  1 18  1  0  0  0  0
  1 19  1  0  0  0  0
  2 20  1  0  0  0  0
  3 21  1  0  0  0  0
  3 22  1  0  0  0  0
  3 23  1  0  0  0  0
  7 24  1  0  0  0  0
  7 25  1  0  0  0  0
  8 26  1  0  0  0  0
  8 27  1  0  0  0  0
  9 28  1  0  0  0  0
  9 29  1  0  0  0  0
 10 30  1  0  0  0  0
 10 31  1  0  0  0  0
 14 32  1  0  0  0  0
 15 33  1  0  0  0  0
 15 34  1  0  0  0  0
 15 35  1  0  0  0  0
 16 36  1  0  0  0  0
 16 37  1  0  0  0  0
 16 38  1  0  0  0  0
M  END
>  <InChIKey>
ZDQWESQEGGJUCH-UHFFFAOYSA-N

>  <UN GHS>
Non-irritant

>  <CASRN>
6938-94-9

> <Outcome>
0

>  <Index>
995

>  <StandardizerResult>
Clear Stereo (ID: ClearStereo)
Wedge Clean (ID: WedgeClean)
Mesomerize (ID: Mesomerize)
Tautomerize (ID: Tautomerize)
Add Explicit Hydrogens (ID: AddExplicitH)
Neutralize (ID: Neutralize)
Clean 2D (ID: Clean2D)

> <knn Distance>
3.16227769851685

> <CpId>
995

$$$$
1090
  Mrv1532301301811342D          

 22 21  0  0  0  0            999 V2000
    1.0461    1.4289    0.0000 C   0  0  0  0  0  0  0  0  0  0  0  0
    1.7605    1.8414    0.0000 C   0  0  0  0  0  0  0  0  0  0  0  0
    2.4750    1.4289    0.0000 C   0  0  0  0  0  0  0  0  0  0  0  0
    3.1895    1.8414    0.0000 S   0  0  0  0  0  0  0  0  0  0  0  0
    3.9040    1.4289    0.0000 S   0  0  0  0  0  0  0  0  0  0  0  0
    4.6184    1.8414    0.0000 C   0  0  0  0  0  0  0  0  0  0  0  0
    5.3329    1.4289    0.0000 C   0  0  0  0  0  0  0  0  0  0  0  0
    6.0474    1.8414    0.0000 C   0  0  0  0  0  0  0  0  0  0  0  0
    0.6336    2.1434    0.0000 H   0  0  0  0  0  0  0  0  0  0  0  0
    0.3316    1.0164    0.0000 H   0  0  0  0  0  0  0  0  0  0  0  0
    1.4586    0.7144    0.0000 H   0  0  0  0  0  0  0  0  0  0  0  0
    2.1308    2.5786    0.0000 H   0  0  0  0  0  0  0  0  0  0  0  0
    1.3903    2.5786    0.0000 H   0  0  0  0  0  0  0  0  0  0  0  0
    2.1048    0.6917    0.0000 H   0  0  0  0  0  0  0  0  0  0  0  0
    2.8453    0.6917    0.0000 H   0  0  0  0  0  0  0  0  0  0  0  0
    4.9887    2.5786    0.0000 H   0  0  0  0  0  0  0  0  0  0  0  0
    4.2482    2.5786    0.0000 H   0  0  0  0  0  0  0  0  0  0  0  0
    4.9626    0.6917    0.0000 H   0  0  0  0  0  0  0  0  0  0  0  0
    5.7032    0.6917    0.0000 H   0  0  0  0  0  0  0  0  0  0  0  0
    6.4599    1.1269    0.0000 H   0  0  0  0  0  0  0  0  0  0  0  0
    6.7618    2.2539    0.0000 H   0  0  0  0  0  0  0  0  0  0  0  0
    5.6349    2.5559    0.0000 H   0  0  0  0  0  0  0  0  0  0  0  0
  1  2  1  0  0  0  0
  2  3  1  0  0  0  0
  3  4  1  0  0  0  0
  4  5  1  0  0  0  0
  5  6  1  0  0  0  0
  6  7  1  0  0  0  0
  7  8  1  0  0  0  0
  1  9  1  0  0  0  0
  1 10  1  0  0  0  0
  1 11  1  0  0  0  0
  2 12  1  0  0  0  0
  2 13  1  0  0  0  0
  3 14  1  0  0  0  0
  3 15  1  0  0  0  0
  6 16  1  0  0  0  0
  6 17  1  0  0  0  0
  7 18  1  0  0  0  0
  7 19  1  0  0  0  0
  8 20  1  0  0  0  0
  8 21  1  0  0  0  0
  8 22  1  0  0  0  0
M  END
>  <InChIKey>
InChI=1S/C6H14S2/c1-3-5-7-8-6-4-2/h3-6H2,1-2H3

>  <UN GHS>
Non-irritant

>  <CASRN>
629-19-6

> <Outcome>
0

>  <Index>
1090

>  <StandardizerResult>
Clear Stereo (ID: ClearStereo)
Wedge Clean (ID: WedgeClean)
Mesomerize (ID: Mesomerize)
Tautomerize (ID: Tautomerize)
Add Explicit Hydrogens (ID: AddExplicitH)
Neutralize (ID: Neutralize)
Clean 2D (ID: Clean2D)

> <knn Distance>
3.16227769851685

> <CpId>
1090

$$$$
1121
  Mrv1532301301811342D          

 16 15  0  0  0  0            999 V2000
    1.2622    2.1770    0.0000 C   0  0  0  0  0  0  0  0  0  0  0  0
    0.8497    1.4625    0.0000 O   0  0  0  0  0  0  0  0  0  0  0  0
    1.2622    0.7481    0.0000 C   0  0  0  0  0  0  0  0  0  0  0  0
    0.8497    0.0336    0.0000 C   0  0  0  0  0  0  0  0  0  0  0  0
    1.2622   -0.6809    0.0000 C   0  0  0  0  0  0  0  0  0  0  0  0
    0.0247    0.0336    0.0000 O   0  0  0  0  0  0  0  0  0  0  0  0
    1.9766    1.7645    0.0000 H   0  0  0  0  0  0  0  0  0  0  0  0
    1.6747    2.8915    0.0000 H   0  0  0  0  0  0  0  0  0  0  0  0
    0.5477    2.5895    0.0000 H   0  0  0  0  0  0  0  0  0  0  0  0
    1.9994    0.3778    0.0000 H   0  0  0  0  0  0  0  0  0  0  0  0
    1.9994    1.1183    0.0000 H   0  0  0  0  0  0  0  0  0  0  0  0
    1.6747    0.0336    0.0000 H   0  0  0  0  0  0  0  0  0  0  0  0
    0.4653   -0.8944    0.0000 H   0  0  0  0  0  0  0  0  0  0  0  0
    1.2622   -1.5059    0.0000 H   0  0  0  0  0  0  0  0  0  0  0  0
    2.0591   -0.8944    0.0000 H   0  0  0  0  0  0  0  0  0  0  0  0
   -0.3878    0.7481    0.0000 H   0  0  0  0  0  0  0  0  0  0  0  0
  1  2  1  0  0  0  0
  2  3  1  0  0  0  0
  3  4  1  0  0  0  0
  4  5  1  0  0  0  0
  4  6  1  0  0  0  0
  1  7  1  0  0  0  0
  1  8  1  0  0  0  0
  1  9  1  0  0  0  0
  3 10  1  0  0  0  0
  3 11  1  0  0  0  0
  4 12  1  0  0  0  0
  5 13  1  0  0  0  0
  5 14  1  0  0  0  0
  5 15  1  0  0  0  0
  6 16  1  0  0  0  0
M  END
>  <InChIKey>
InChI=1S/C4H10O2/c1-4(5)3-6-2/h4-5H,3H2,1-2H3

>  <CASRN>
107-98-2

> <Outcome>
0

>  <Index>
1121

>  <StandardizerResult>
Clear Stereo (ID: ClearStereo)
Wedge Clean (ID: WedgeClean)
Mesomerize (ID: Mesomerize)
Tautomerize (ID: Tautomerize)
Add Explicit Hydrogens (ID: AddExplicitH)
Neutralize (ID: Neutralize)
Clean 2D (ID: Clean2D)

> <knn Distance>
3.16227769851685

> <CpId>
1121

$$$$
1389
  Mrv1532301301811342D          

 13 12  0  0  0  0            999 V2000
    2.8868   -2.1446    0.0000 F   0  0  0  0  0  0  0  0  0  0  0  0
    2.4743   -1.4301    0.0000 C   0  0  0  0  0  0  0  0  0  0  0  0
    3.1888   -1.0176    0.0000 F   0  0  0  0  0  0  0  0  0  0  0  0
    1.7598   -1.8426    0.0000 F   0  0  0  0  0  0  0  0  0  0  0  0
    2.0618   -0.7156    0.0000 C   0  0  0  0  0  0  0  0  0  0  0  0
    1.2368   -0.7156    0.0000 O   0  0  0  0  0  0  0  0  0  0  0  0
    0.8243   -0.0012    0.0000 C   0  0  0  0  0  0  0  0  0  0  0  0
   -0.0007   -0.0012    0.0000 C   0  0  0  0  0  0  0  0  0  0  0  0
    2.7511   -0.2623    0.0000 H   0  0  0  0  0  0  0  0  0  0  0  0
    2.1098    0.1080    0.0000 H   0  0  0  0  0  0  0  0  0  0  0  0
    1.2368    0.7133    0.0000 H   0  0  0  0  0  0  0  0  0  0  0  0
   -0.4132    0.7133    0.0000 H   0  0  0  0  0  0  0  0  0  0  0  0
   -0.4132   -0.7156    0.0000 H   0  0  0  0  0  0  0  0  0  0  0  0
  1  2  1  0  0  0  0
  2  3  1  0  0  0  0
  2  4  1  0  0  0  0
  2  5  1  0  0  0  0
  5  6  1  0  0  0  0
  6  7  1  0  0  0  0
  7  8  2  0  0  0  0
  5  9  1  0  0  0  0
  5 10  1  0  0  0  0
  7 11  1  0  0  0  0
  8 12  1  0  0  0  0
  8 13  1  0  0  0  0
M  END
>  <InChIKey>
InChI=1S/C4H5F3O/c1-2-8-3-4(5,6)7/h2H,1,3H2

>  <CASRN>
406-90-6

> <Outcome>
0

>  <Index>
1389

>  <StandardizerResult>
Clear Stereo (ID: ClearStereo)
Wedge Clean (ID: WedgeClean)
Mesomerize (ID: Mesomerize)
Tautomerize (ID: Tautomerize)
Add Explicit Hydrogens (ID: AddExplicitH)
Neutralize (ID: Neutralize)
Clean 2D (ID: Clean2D)

> <knn Distance>
3.16227769851685

> <CpId>
1389

$$$$
1399
  Mrv1532301301811342D          

 13 12  0  0  0  0            999 V2000
    2.0533   -0.6839    0.0000 C   0  0  0  0  0  0  0  0  0  0  0  0
    1.2283   -0.6839    0.0000 C   0  0  0  0  0  0  0  0  0  0  0  0
    0.8158   -1.3984    0.0000 O   0  0  0  0  0  0  0  0  0  0  0  0
    0.8158    0.0306    0.0000 C   0  0  0  0  0  0  0  0  0  0  0  0
   -0.0092    0.0306    0.0000 O   0  0  0  0  0  0  0  0  0  0  0  0
    2.0533   -1.5089    0.0000 H   0  0  0  0  0  0  0  0  0  0  0  0
    2.8783   -0.6839    0.0000 H   0  0  0  0  0  0  0  0  0  0  0  0
    2.0533    0.1411    0.0000 H   0  0  0  0  0  0  0  0  0  0  0  0
    1.6408   -1.3984    0.0000 H   0  0  0  0  0  0  0  0  0  0  0  0
    0.1013   -1.8109    0.0000 H   0  0  0  0  0  0  0  0  0  0  0  0
    1.5051    0.4839    0.0000 H   0  0  0  0  0  0  0  0  0  0  0  0
    0.8638    0.8542    0.0000 H   0  0  0  0  0  0  0  0  0  0  0  0
   -0.4217    0.7450    0.0000 H   0  0  0  0  0  0  0  0  0  0  0  0
  1  2  1  0  0  0  0
  2  3  1  0  0  0  0
  2  4  1  0  0  0  0
  4  5  1  0  0  0  0
  1  6  1  0  0  0  0
  1  7  1  0  0  0  0
  1  8  1  0  0  0  0
  2  9  1  0  0  0  0
  3 10  1  0  0  0  0
  4 11  1  0  0  0  0
  4 12  1  0  0  0  0
  5 13  1  0  0  0  0
M  END
>  <InChIKey>
InChI=1S/C3H8O2/c1-3(5)2-4/h3-5H,2H2,1H3

>  <UN GHS>
Non-irritant

>  <CASRN>
57-55-6  57-55-6

> <Outcome>
0

>  <Index>
1399

>  <StandardizerResult>
Clear Stereo (ID: ClearStereo)
Wedge Clean (ID: WedgeClean)
Mesomerize (ID: Mesomerize)
Tautomerize (ID: Tautomerize)
Add Explicit Hydrogens (ID: AddExplicitH)
Neutralize (ID: Neutralize)
Clean 2D (ID: Clean2D)

> <knn Distance>
3.16227769851685

> <CpId>
1399

$$$$
1409
  Mrv1532301301811342D          

 14 14  0  0  0  0            999 V2000
    0.7145    2.0625    0.0000 F   0  0  0  0  0  0  0  0  0  0  0  0
    0.7145    1.2375    0.0000 C   0  0  0  0  0  0  0  0  0  0  0  0
    1.4289    0.8250    0.0000 C   0  0  0  0  0  0  0  0  0  0  0  0
    1.4289   -0.0000    0.0000 C   0  0  0  0  0  0  0  0  0  0  0  0
    0.7145   -0.4125    0.0000 C   0  0  0  0  0  0  0  0  0  0  0  0
   -0.0000   -0.0000    0.0000 C   0  0  0  0  0  0  0  0  0  0  0  0
   -0.0000    0.8250    0.0000 C   0  0  0  0  0  0  0  0  0  0  0  0
   -0.7145    1.2375    0.0000 Cl  0  0  0  0  0  0  0  0  0  0  0  0
    0.7145   -1.2375    0.0000 N   0  0  0  0  0  0  0  0  0  0  0  0
    1.4289   -1.6500    0.0000 O   0  0  0  0  0  0  0  0  0  0  0  0
   -0.0000   -1.6500    0.0000 O   0  0  0  0  0  0  0  0  0  0  0  0
    2.1434    1.2375    0.0000 H   0  0  0  0  0  0  0  0  0  0  0  0
    2.1434   -0.4125    0.0000 H   0  0  0  0  0  0  0  0  0  0  0  0
   -0.7145   -0.4125    0.0000 H   0  0  0  0  0  0  0  0  0  0  0  0
  1  2  1  0  0  0  0
  2  3  4  0  0  0  0
  3  4  4  0  0  0  0
  4  5  4  0  0  0  0
  5  6  4  0  0  0  0
  6  7  4  0  0  0  0
  2  7  4  0  0  0  0
  7  8  1  0  0  0  0
  5  9  1  0  0  0  0
  9 10  2  0  0  0  0
  9 11  2  0  0  0  0
  3 12  1  0  0  0  0
  4 13  1  0  0  0  0
  6 14  1  0  0  0  0
M  END
>  <InChIKey>
InChI=1S/C6H3ClFNO2/c7-5-3-4(9(10)11)1-2-6(5)8/h1-3H

>  <CASRN>
350-30-1

> <Outcome>
0

>  <Index>
1409

>  <StandardizerResult>
Dearomatize (ID: Dearomatize)
Clear Stereo (ID: ClearStereo)
Wedge Clean (ID: WedgeClean)
Mesomerize (ID: Mesomerize)
Tautomerize (ID: Tautomerize)
Aromatize (ID: Aromatize)
Add Explicit Hydrogens (ID: AddExplicitH)
Neutralize (ID: Neutralize)
Clean 2D (ID: Clean2D)

> <knn Distance>
3.16227769851685

> <CpId>
1409

$$$$
1419
  Mrv1532301301811342D          

 24 23  0  0  0  0            999 V2000
    3.9681    0.5867    0.0000 O   0  0  0  0  0  0  0  0  0  0  0  0
    3.9681    1.4117    0.0000 C   0  0  0  0  0  0  0  0  0  0  0  0
    3.2536    1.8242    0.0000 C   0  0  0  0  0  0  0  0  0  0  0  0
    3.2536    2.6492    0.0000 O   0  0  0  0  0  0  0  0  0  0  0  0
    2.5391    1.4117    0.0000 C   0  0  0  0  0  0  0  0  0  0  0  0
    2.5391    0.5867    0.0000 O   0  0  0  0  0  0  0  0  0  0  0  0
    1.8247    1.8242    0.0000 C   0  0  0  0  0  0  0  0  0  0  0  0
    1.1102    1.4117    0.0000 O   0  0  0  0  0  0  0  0  0  0  0  0
    1.8247    2.6492    0.0000 O   0  0  0  0  0  0  0  0  0  0  0  0
    4.6826    1.8242    0.0000 C   0  0  0  0  0  0  0  0  0  0  0  0
    4.6826    2.6492    0.0000 O   0  0  0  0  0  0  0  0  0  0  0  0
    5.3970    1.4117    0.0000 C   0  0  0  0  0  0  0  0  0  0  0  0
    6.1115    1.8242    0.0000 O   0  0  0  0  0  0  0  0  0  0  0  0
    5.3970    0.5867    0.0000 O   0  0  0  0  0  0  0  0  0  0  0  0
    3.2536    0.1742    0.0000 H   0  0  0  0  0  0  0  0  0  0  0  0
    3.2536    0.9992    0.0000 H   0  0  0  0  0  0  0  0  0  0  0  0
    3.9681    2.2367    0.0000 H   0  0  0  0  0  0  0  0  0  0  0  0
    2.8411    3.3637    0.0000 H   0  0  0  0  0  0  0  0  0  0  0  0
    1.8247    0.9992    0.0000 H   0  0  0  0  0  0  0  0  0  0  0  0
    2.1266   -0.1278    0.0000 H   0  0  0  0  0  0  0  0  0  0  0  0
    0.2852    1.4117    0.0000 H   0  0  0  0  0  0  0  0  0  0  0  0
    5.3970    2.2367    0.0000 H   0  0  0  0  0  0  0  0  0  0  0  0
    4.6826    3.4742    0.0000 H   0  0  0  0  0  0  0  0  0  0  0  0
    6.9365    1.8242    0.0000 H   0  0  0  0  0  0  0  0  0  0  0  0
  1  2  1  0  0  0  0
  2  3  1  0  0  0  0
  3  4  1  0  0  0  0
  3  5  1  0  0  0  0
  5  6  1  0  0  0  0
  5  7  1  0  0  0  0
  7  8  1  0  0  0  0
  7  9  2  0  0  0  0
  2 10  1  0  0  0  0
 10 11  1  0  0  0  0
 10 12  1  0  0  0  0
 12 13  1  0  0  0  0
 12 14  2  0  0  0  0
  1 15  1  0  0  0  0
  2 16  1  0  0  0  0
  3 17  1  0  0  0  0
  4 18  1  0  0  0  0
  5 19  1  0  0  0  0
  6 20  1  0  0  0  0
  8 21  1  0  0  0  0
 10 22  1  0  0  0  0
 11 23  1  0  0  0  0
 13 24  1  0  0  0  0
M  END
>  <InChIKey>
InChI=1S/C6H10O8/c7-1(3(9)5(11)12)2(8)4(10)6(13)14/h1-4,7-10H,(H,11,12)(H,13,14)

>  <CASRN>
526-99-8

> <Outcome>
0

>  <Index>
1419

>  <StandardizerResult>
Clear Stereo (ID: ClearStereo)
Wedge Clean (ID: WedgeClean)
Mesomerize (ID: Mesomerize)
Tautomerize (ID: Tautomerize)
Add Explicit Hydrogens (ID: AddExplicitH)
Neutralize (ID: Neutralize)
Clean 2D (ID: Clean2D)

> <knn Distance>
3.16227769851685

> <CpId>
1419

$$$$
1440
  Mrv1532301301811342D          

 23 25  0  0  0  0            999 V2000
    1.4289   -2.4750    0.0000 C   0  0  0  0  0  0  0  0  0  0  0  0
    1.4289   -1.6500    0.0000 C   0  0  0  0  0  0  0  0  0  0  0  0
    2.1434   -1.2375    0.0000 C   0  0  0  0  0  0  0  0  0  0  0  0
    2.8579   -1.6500    0.0000 C   0  0  0  0  0  0  0  0  0  0  0  0
    3.5724   -1.2375    0.0000 N   0  0  0  0  0  0  0  0  0  0  0  0
    4.2868   -1.6500    0.0000 C   0  0  0  0  0  0  0  0  0  0  0  0
    5.0013   -1.2375    0.0000 C   0  0  0  0  0  0  0  0  0  0  0  0
    5.7158   -1.6500    0.0000 C   0  0  0  0  0  0  0  0  0  0  0  0
    5.7158   -2.4750    0.0000 C   0  0  0  0  0  0  0  0  0  0  0  0
    5.0013   -2.8875    0.0000 C   0  0  0  0  0  0  0  0  0  0  0  0
    4.2868   -2.4750    0.0000 C   0  0  0  0  0  0  0  0  0  0  0  0
    3.5724   -2.8875    0.0000 C   0  0  0  0  0  0  0  0  0  0  0  0
    2.8579   -2.4750    0.0000 C   0  0  0  0  0  0  0  0  0  0  0  0
    2.1434   -2.8875    0.0000 C   0  0  0  0  0  0  0  0  0  0  0  0
    0.7145   -2.8875    0.0000 H   0  0  0  0  0  0  0  0  0  0  0  0
    0.7145   -1.2375    0.0000 H   0  0  0  0  0  0  0  0  0  0  0  0
    2.1434   -0.4125    0.0000 H   0  0  0  0  0  0  0  0  0  0  0  0
    5.0013   -0.4125    0.0000 H   0  0  0  0  0  0  0  0  0  0  0  0
    6.4302   -1.2375    0.0000 H   0  0  0  0  0  0  0  0  0  0  0  0
    6.4302   -2.8875    0.0000 H   0  0  0  0  0  0  0  0  0  0  0  0
    5.0013   -3.7125    0.0000 H   0  0  0  0  0  0  0  0  0  0  0  0
    3.5724   -3.7125    0.0000 H   0  0  0  0  0  0  0  0  0  0  0  0
    2.1434   -3.7125    0.0000 H   0  0  0  0  0  0  0  0  0  0  0  0
  1  2  4  0  0  0  0
  2  3  4  0  0  0  0
  3  4  4  0  0  0  0
  4  5  4  0  0  0  0
  5  6  4  0  0  0  0
  6  7  4  0  0  0  0
  7  8  4  0  0  0  0
  8  9  4  0  0  0  0
  9 10  4  0  0  0  0
 10 11  4  0  0  0  0
  6 11  4  0  0  0  0
 11 12  4  0  0  0  0
 12 13  4  0  0  0  0
  4 13  4  0  0  0  0
 13 14  4  0  0  0  0
  1 14  4  0  0  0  0
  1 15  1  0  0  0  0
  2 16  1  0  0  0  0
  3 17  1  0  0  0  0
  7 18  1  0  0  0  0
  8 19  1  0  0  0  0
  9 20  1  0  0  0  0
 10 21  1  0  0  0  0
 12 22  1  0  0  0  0
 14 23  1  0  0  0  0
M  END
>  <InChIKey>
InChI=1S/C13H9N/c1-3-7-12-10(5-1)9-11-6-2-4-8-13(11)14-12/h1-9H

>  <CASRN>
260-94-6

> <Outcome>
0

>  <Index>
1440

>  <StandardizerResult>
Dearomatize (ID: Dearomatize)
Clear Stereo (ID: ClearStereo)
Wedge Clean (ID: WedgeClean)
Mesomerize (ID: Mesomerize)
Tautomerize (ID: Tautomerize)
Aromatize (ID: Aromatize)
Add Explicit Hydrogens (ID: AddExplicitH)
Neutralize (ID: Neutralize)
Clean 2D (ID: Clean2D)

> <knn Distance>
3.16227769851685

> <CpId>
1440

$$$$
1457
  Mrv1532301301811342D          

 16 15  0  0  0  0            999 V2000
    1.9331    1.9709    0.0000 O   0  0  0  0  0  0  0  0  0  0  0  0
    1.9331    1.1459    0.0000 C   0  0  0  0  0  0  0  0  0  0  0  0
    1.2186    0.7334    0.0000 C   0  0  0  0  0  0  0  0  0  0  0  0
    1.2186   -0.0916    0.0000 O   0  0  0  0  0  0  0  0  0  0  0  0
    0.5042    1.1459    0.0000 C   0  0  0  0  0  0  0  0  0  0  0  0
   -0.2103    0.7334    0.0000 O   0  0  0  0  0  0  0  0  0  0  0  0
    0.5042    1.9709    0.0000 O   0  0  0  0  0  0  0  0  0  0  0  0
    2.6476    0.7334    0.0000 C   0  0  0  0  0  0  0  0  0  0  0  0
    3.3620    1.1459    0.0000 O   0  0  0  0  0  0  0  0  0  0  0  0
    2.6476   -0.0916    0.0000 O   0  0  0  0  0  0  0  0  0  0  0  0
    2.6476    2.3834    0.0000 H   0  0  0  0  0  0  0  0  0  0  0  0
    1.2186    1.5584    0.0000 H   0  0  0  0  0  0  0  0  0  0  0  0
    1.9331    0.3209    0.0000 H   0  0  0  0  0  0  0  0  0  0  0  0
    0.8061   -0.8061    0.0000 H   0  0  0  0  0  0  0  0  0  0  0  0
   -0.9248    1.1459    0.0000 H   0  0  0  0  0  0  0  0  0  0  0  0
    4.0765    0.7334    0.0000 H   0  0  0  0  0  0  0  0  0  0  0  0
  1  2  1  0  0  0  0
  2  3  1  0  0  0  0
  3  4  1  0  0  0  0
  3  5  1  0  0  0  0
  5  6  1  0  0  0  0
  5  7  2  0  0  0  0
  2  8  1  0  0  0  0
  8  9  1  0  0  0  0
  8 10  2  0  0  0  0
  1 11  1  0  0  0  0
  2 12  1  0  0  0  0
  3 13  1  0  0  0  0
  4 14  1  0  0  0  0
  6 15  1  0  0  0  0
  9 16  1  0  0  0  0
M  END
>  <InChIKey>
InChI=1S/C4H6O6/c5-1(3(7)8)2(6)4(9)10/h1-2,5-6H,(H,7,8)(H,9,10)

>  <CASRN>
87-69-4

> <Outcome>
0

>  <Index>
1457

>  <StandardizerResult>
Clear Stereo (ID: ClearStereo)
Wedge Clean (ID: WedgeClean)
Mesomerize (ID: Mesomerize)
Tautomerize (ID: Tautomerize)
Add Explicit Hydrogens (ID: AddExplicitH)
Neutralize (ID: Neutralize)
Clean 2D (ID: Clean2D)

> <knn Distance>
3.16227769851685

> <CpId>
1457

$$$$
1477
  Mrv1532301301811342D          

 30 30  0  0  0  0            999 V2000
    2.1439    3.7116    0.0000 C   0  0  0  0  0  0  0  0  0  0  0  0
    1.4294    3.2991    0.0000 C   0  0  0  0  0  0  0  0  0  0  0  0
    1.4294    2.4741    0.0000 O   0  0  0  0  0  0  0  0  0  0  0  0
    0.7150    2.0616    0.0000 C   0  0  0  0  0  0  0  0  0  0  0  0
    0.0005    2.4741    0.0000 O   0  0  0  0  0  0  0  0  0  0  0  0
    0.7150    1.2366    0.0000 C   0  0  0  0  0  0  0  0  0  0  0  0
    1.4294    0.8241    0.0000 C   0  0  0  0  0  0  0  0  0  0  0  0
    1.4294   -0.0009    0.0000 C   0  0  0  0  0  0  0  0  0  0  0  0
    0.7150   -0.4134    0.0000 C   0  0  0  0  0  0  0  0  0  0  0  0
    0.0005   -0.0009    0.0000 C   0  0  0  0  0  0  0  0  0  0  0  0
    0.0005    0.8241    0.0000 C   0  0  0  0  0  0  0  0  0  0  0  0
   -0.7140    1.2366    0.0000 C   0  0  0  0  0  0  0  0  0  0  0  0
   -0.7140    2.0616    0.0000 O   0  0  0  0  0  0  0  0  0  0  0  0
   -1.4284    0.8241    0.0000 O   0  0  0  0  0  0  0  0  0  0  0  0
   -2.1429    1.2366    0.0000 C   0  0  0  0  0  0  0  0  0  0  0  0
   -2.8574    0.8241    0.0000 C   0  0  0  0  0  0  0  0  0  0  0  0
    2.5564    2.9971    0.0000 H   0  0  0  0  0  0  0  0  0  0  0  0
    2.8584    4.1241    0.0000 H   0  0  0  0  0  0  0  0  0  0  0  0
    1.7314    4.4261    0.0000 H   0  0  0  0  0  0  0  0  0  0  0  0
    0.9761    3.9884    0.0000 H   0  0  0  0  0  0  0  0  0  0  0  0
    0.6058    3.3471    0.0000 H   0  0  0  0  0  0  0  0  0  0  0  0
    2.1439    1.2366    0.0000 H   0  0  0  0  0  0  0  0  0  0  0  0
    2.1439   -0.4134    0.0000 H   0  0  0  0  0  0  0  0  0  0  0  0
    0.7150   -1.2384    0.0000 H   0  0  0  0  0  0  0  0  0  0  0  0
   -0.7140   -0.4134    0.0000 H   0  0  0  0  0  0  0  0  0  0  0  0
   -1.7727    1.9739    0.0000 H   0  0  0  0  0  0  0  0  0  0  0  0
   -2.5132    1.9739    0.0000 H   0  0  0  0  0  0  0  0  0  0  0  0
   -3.2699    1.5386    0.0000 H   0  0  0  0  0  0  0  0  0  0  0  0
   -3.5719    0.4116    0.0000 H   0  0  0  0  0  0  0  0  0  0  0  0
   -2.4449    0.1096    0.0000 H   0  0  0  0  0  0  0  0  0  0  0  0
  1  2  1  0  0  0  0
  2  3  1  0  0  0  0
  3  4  1  0  0  0  0
  4  5  2  0  0  0  0
  4  6  1  0  0  0  0
  6  7  4  0  0  0  0
  7  8  4  0  0  0  0
  8  9  4  0  0  0  0
  9 10  4  0  0  0  0
 10 11  4  0  0  0  0
  6 11  4  0  0  0  0
 11 12  1  0  0  0  0
 12 13  2  0  0  0  0
 12 14  1  0  0  0  0
 14 15  1  0  0  0  0
 15 16  1  0  0  0  0
  1 17  1  0  0  0  0
  1 18  1  0  0  0  0
  1 19  1  0  0  0  0
  2 20  1  0  0  0  0
  2 21  1  0  0  0  0
  7 22  1  0  0  0  0
  8 23  1  0  0  0  0
  9 24  1  0  0  0  0
 10 25  1  0  0  0  0
 15 26  1  0  0  0  0
 15 27  1  0  0  0  0
 16 28  1  0  0  0  0
 16 29  1  0  0  0  0
 16 30  1  0  0  0  0
M  END
>  <InChIKey>
InChI=1S/C12H14O4/c1-3-15-11(13)9-7-5-6-8-10(9)12(14)16-4-2/h5-8H,3-4H2,1-2H3

>  <CASRN>
84-66-2

> <Outcome>
0

>  <Index>
1477

>  <StandardizerResult>
Dearomatize (ID: Dearomatize)
Clear Stereo (ID: ClearStereo)
Wedge Clean (ID: WedgeClean)
Mesomerize (ID: Mesomerize)
Tautomerize (ID: Tautomerize)
Aromatize (ID: Aromatize)
Add Explicit Hydrogens (ID: AddExplicitH)
Neutralize (ID: Neutralize)
Clean 2D (ID: Clean2D)

> <knn Distance>
3.16227769851685

> <CpId>
1477

$$$$
1605
  Mrv1532301301811342D          

 36 36  0  0  0  0            999 V2000
    4.2889   -0.8063    0.0000 C   0  0  0  0  0  0  0  0  0  0  0  0
    5.0033   -1.2188    0.0000 C   0  0  0  0  0  0  0  0  0  0  0  0
    5.7178   -0.8063    0.0000 C   0  0  0  0  0  0  0  0  0  0  0  0
    6.4323   -1.2188    0.0000 C   0  0  0  0  0  0  0  0  0  0  0  0
    7.1467   -0.8063    0.0000 C   0  0  0  0  0  0  0  0  0  0  0  0
    7.8612   -1.2188    0.0000 C   0  0  0  0  0  0  0  0  0  0  0  0
    8.5757   -0.8063    0.0000 C   0  0  0  0  0  0  0  0  0  0  0  0
    8.5757    0.0187    0.0000 C   0  0  0  0  0  0  0  0  0  0  0  0
    9.2902    0.4312    0.0000 O   0  0  0  0  0  0  0  0  0  0  0  0
    9.2902   -1.2188    0.0000 C   0  0  0  0  0  0  0  0  0  0  0  0
    9.2902   -2.0438    0.0000 C   0  0  0  0  0  0  0  0  0  0  0  0
   10.0046   -2.4563    0.0000 C   0  0  0  0  0  0  0  0  0  0  0  0
   10.0046   -3.2813    0.0000 C   0  0  0  0  0  0  0  0  0  0  0  0
    9.2902   -3.6938    0.0000 C   0  0  0  0  0  0  0  0  0  0  0  0
    8.5757   -3.2813    0.0000 C   0  0  0  0  0  0  0  0  0  0  0  0
    8.5757   -2.4563    0.0000 C   0  0  0  0  0  0  0  0  0  0  0  0
    4.7014   -0.0918    0.0000 H   0  0  0  0  0  0  0  0  0  0  0  0
    3.5744   -0.3938    0.0000 H   0  0  0  0  0  0  0  0  0  0  0  0
    3.8764   -1.5207    0.0000 H   0  0  0  0  0  0  0  0  0  0  0  0
    4.6331   -1.9560    0.0000 H   0  0  0  0  0  0  0  0  0  0  0  0
    5.3736   -1.9560    0.0000 H   0  0  0  0  0  0  0  0  0  0  0  0
    6.0881   -0.0690    0.0000 H   0  0  0  0  0  0  0  0  0  0  0  0
    5.3475   -0.0690    0.0000 H   0  0  0  0  0  0  0  0  0  0  0  0
    6.0620   -1.9560    0.0000 H   0  0  0  0  0  0  0  0  0  0  0  0
    6.8025   -1.9560    0.0000 H   0  0  0  0  0  0  0  0  0  0  0  0
    7.5170   -0.0690    0.0000 H   0  0  0  0  0  0  0  0  0  0  0  0
    6.7765   -0.0690    0.0000 H   0  0  0  0  0  0  0  0  0  0  0  0
    7.4910   -1.9560    0.0000 H   0  0  0  0  0  0  0  0  0  0  0  0
    8.2315   -1.9560    0.0000 H   0  0  0  0  0  0  0  0  0  0  0  0
    7.8612    0.4312    0.0000 H   0  0  0  0  0  0  0  0  0  0  0  0
   10.0046   -0.8063    0.0000 H   0  0  0  0  0  0  0  0  0  0  0  0
   10.7191   -2.0438    0.0000 H   0  0  0  0  0  0  0  0  0  0  0  0
   10.7191   -3.6938    0.0000 H   0  0  0  0  0  0  0  0  0  0  0  0
    9.2902   -4.5188    0.0000 H   0  0  0  0  0  0  0  0  0  0  0  0
    7.8612   -3.6938    0.0000 H   0  0  0  0  0  0  0  0  0  0  0  0
    7.7879   -2.7011    0.0000 H   0  0  0  0  0  0  0  0  0  0  0  0
  1  2  1  0  0  0  0
  2  3  1  0  0  0  0
  3  4  1  0  0  0  0
  4  5  1  0  0  0  0
  5  6  1  0  0  0  0
  6  7  1  0  0  0  0
  7  8  1  0  0  0  0
  8  9  2  0  0  0  0
  7 10  2  0  0  0  0
 10 11  1  4  0  0  0
 11 12  4  0  0  0  0
 12 13  4  0  0  0  0
 13 14  4  0  0  0  0
 14 15  4  0  0  0  0
 15 16  4  0  0  0  0
 11 16  4  0  0  0  0
  1 17  1  0  0  0  0
  1 18  1  0  0  0  0
  1 19  1  0  0  0  0
  2 20  1  0  0  0  0
  2 21  1  0  0  0  0
  3 22  1  0  0  0  0
  3 23  1  0  0  0  0
  4 24  1  0  0  0  0
  4 25  1  0  0  0  0
  5 26  1  0  0  0  0
  5 27  1  0  0  0  0
  6 28  1  0  0  0  0
  6 29  1  0  0  0  0
  8 30  1  0  0  0  0
 10 31  1  0  0  0  0
 12 32  1  0  0  0  0
 13 33  1  0  0  0  0
 14 34  1  0  0  0  0
 15 35  1  0  0  0  0
 16 36  1  0  0  0  0
M  END
>  <InChIKey>
InChI=1S/C15H20O/c1-2-3-4-6-11-15(13-16)12-14-9-7-5-8-10-14/h5,7-10,12-13H,2-4,6,11H2,1H3

>  <UN GHS>
Non-irritant

>  <CASRN>
101-86-0

> <Outcome>
0

>  <Index>
1605

>  <StandardizerResult>
Dearomatize (ID: Dearomatize)
Clear Stereo (ID: ClearStereo)
Wedge Clean (ID: WedgeClean)
Mesomerize (ID: Mesomerize)
Tautomerize (ID: Tautomerize)
Aromatize (ID: Aromatize)
Add Explicit Hydrogens (ID: AddExplicitH)
Neutralize (ID: Neutralize)
Clean 2D (ID: Clean2D)

> <knn Distance>
3.16227769851685

> <CpId>
1605

$$$$
1630
  Mrv1532301301811342D          

 19 18  0  0  0  0            999 V2000
    3.9039    0.5951    0.0000 C   0  0  0  0  0  0  0  0  0  0  0  0
    3.9039    1.4201    0.0000 N   0  0  0  0  0  0  0  0  0  0  0  0
    3.1895    1.8326    0.0000 C   0  0  0  0  0  0  0  0  0  0  0  0
    2.4750    1.4201    0.0000 C   0  0  0  0  0  0  0  0  0  0  0  0
    1.7605    1.8326    0.0000 Cl  0  0  0  0  0  0  0  0  0  0  0  0
    4.6184    1.8326    0.0000 C   0  0  0  0  0  0  0  0  0  0  0  0
    5.3329    1.4201    0.0000 C   0  0  0  0  0  0  0  0  0  0  0  0
    6.0474    1.8326    0.0000 Cl  0  0  0  0  0  0  0  0  0  0  0  0
    3.0789    0.5951    0.0000 H   0  0  0  0  0  0  0  0  0  0  0  0
    3.9039   -0.2299    0.0000 H   0  0  0  0  0  0  0  0  0  0  0  0
    4.7289    0.5951    0.0000 H   0  0  0  0  0  0  0  0  0  0  0  0
    3.5597    2.5698    0.0000 H   0  0  0  0  0  0  0  0  0  0  0  0
    2.8192    2.5698    0.0000 H   0  0  0  0  0  0  0  0  0  0  0  0
    2.1047    0.6828    0.0000 H   0  0  0  0  0  0  0  0  0  0  0  0
    2.8453    0.6828    0.0000 H   0  0  0  0  0  0  0  0  0  0  0  0
    4.9887    2.5698    0.0000 H   0  0  0  0  0  0  0  0  0  0  0  0
    4.2482    2.5698    0.0000 H   0  0  0  0  0  0  0  0  0  0  0  0
    4.9626    0.6828    0.0000 H   0  0  0  0  0  0  0  0  0  0  0  0
    5.7031    0.6828    0.0000 H   0  0  0  0  0  0  0  0  0  0  0  0
  1  2  1  0  0  0  0
  2  3  1  0  0  0  0
  3  4  1  0  0  0  0
  4  5  1  0  0  0  0
  2  6  1  0  0  0  0
  6  7  1  0  0  0  0
  7  8  1  0  0  0  0
  1  9  1  0  0  0  0
  1 10  1  0  0  0  0
  1 11  1  0  0  0  0
  3 12  1  0  0  0  0
  3 13  1  0  0  0  0
  4 14  1  0  0  0  0
  4 15  1  0  0  0  0
  6 16  1  0  0  0  0
  6 17  1  0  0  0  0
  7 18  1  0  0  0  0
  7 19  1  0  0  0  0
M  END
>  <InChIKey>
InChI=1S/C5H11Cl2N/c1-8(4-2-6)5-3-7/h2-5H2,1H3

>  <CASRN>
51-75-2

> <Outcome>
0

>  <Index>
1630

>  <StandardizerResult>
Clear Stereo (ID: ClearStereo)
Wedge Clean (ID: WedgeClean)
Mesomerize (ID: Mesomerize)
Tautomerize (ID: Tautomerize)
Add Explicit Hydrogens (ID: AddExplicitH)
Neutralize (ID: Neutralize)
Clean 2D (ID: Clean2D)

> <knn Distance>
3.16227769851685

> <CpId>
1630

$$$$
1707
  Mrv1532301301811342D          

 26 27  0  0  0  0            999 V2000
    0.0000   -0.0000    0.0000 O   0  0  0  0  0  0  0  0  0  0  0  0
    0.7145   -0.4125    0.0000 C   0  0  0  0  0  0  0  0  0  0  0  0
    1.4289   -0.0000    0.0000 O   0  0  0  0  0  0  0  0  0  0  0  0
    0.7145   -1.2375    0.0000 C   0  0  0  0  0  0  0  0  0  0  0  0
    1.4289   -1.6500    0.0000 C   0  0  0  0  0  0  0  0  0  0  0  0
    1.4289   -2.4750    0.0000 C   0  0  0  0  0  0  0  0  0  0  0  0
    0.7145   -2.8875    0.0000 C   0  0  0  0  0  0  0  0  0  0  0  0
    0.0000   -2.4750    0.0000 C   0  0  0  0  0  0  0  0  0  0  0  0
    0.0000   -1.6500    0.0000 C   0  0  0  0  0  0  0  0  0  0  0  0
   -0.7145   -1.2375    0.0000 O   0  0  0  0  0  0  0  0  0  0  0  0
    2.1434   -2.8875    0.0000 C   0  0  0  0  0  0  0  0  0  0  0  0
    2.8579   -2.4750    0.0000 C   0  0  0  0  0  0  0  0  0  0  0  0
    3.5724   -2.8875    0.0000 C   0  0  0  0  0  0  0  0  0  0  0  0
    3.5724   -3.7125    0.0000 C   0  0  0  0  0  0  0  0  0  0  0  0
    4.2868   -4.1250    0.0000 F   0  0  0  0  0  0  0  0  0  0  0  0
    2.8579   -4.1250    0.0000 C   0  0  0  0  0  0  0  0  0  0  0  0
    2.1434   -3.7125    0.0000 C   0  0  0  0  0  0  0  0  0  0  0  0
    1.4289   -4.1250    0.0000 F   0  0  0  0  0  0  0  0  0  0  0  0
    0.0000    0.8250    0.0000 H   0  0  0  0  0  0  0  0  0  0  0  0
    2.1434   -1.2375    0.0000 H   0  0  0  0  0  0  0  0  0  0  0  0
    0.7145   -3.7125    0.0000 H   0  0  0  0  0  0  0  0  0  0  0  0
   -0.7145   -2.8875    0.0000 H   0  0  0  0  0  0  0  0  0  0  0  0
   -0.7145   -0.4125    0.0000 H   0  0  0  0  0  0  0  0  0  0  0  0
    2.8579   -1.6500    0.0000 H   0  0  0  0  0  0  0  0  0  0  0  0
    4.2868   -2.4750    0.0000 H   0  0  0  0  0  0  0  0  0  0  0  0
    2.8579   -4.9500    0.0000 H   0  0  0  0  0  0  0  0  0  0  0  0
  1  2  1  0  0  0  0
  2  3  2  0  0  0  0
  2  4  1  0  0  0  0
  4  5  4  0  0  0  0
  5  6  4  0  0  0  0
  6  7  4  0  0  0  0
  7  8  4  0  0  0  0
  8  9  4  0  0  0  0
  4  9  4  0  0  0  0
  9 10  1  0  0  0  0
  6 11  1  0  0  0  0
 11 12  4  0  0  0  0
 12 13  4  0  0  0  0
 13 14  4  0  0  0  0
 14 15  1  0  0  0  0
 14 16  4  0  0  0  0
 16 17  4  0  0  0  0
 11 17  4  0  0  0  0
 17 18  1  0  0  0  0
  1 19  1  0  0  0  0
  5 20  1  0  0  0  0
  7 21  1  0  0  0  0
  8 22  1  0  0  0  0
 10 23  1  0  0  0  0
 12 24  1  0  0  0  0
 13 25  1  0  0  0  0
 16 26  1  0  0  0  0
M  END
>  <InChIKey>
InChI=1S/C13H8F2O3/c14-8-2-3-9(11(15)6-8)7-1-4-12(16)10(5-7)13(17)18/h1-6,16H,(H,17,18)

>  <CASRN>
22494-42-4

> <Outcome>
0

>  <Index>
1707

>  <StandardizerResult>
Dearomatize (ID: Dearomatize)
Clear Stereo (ID: ClearStereo)
Wedge Clean (ID: WedgeClean)
Mesomerize (ID: Mesomerize)
Tautomerize (ID: Tautomerize)
Aromatize (ID: Aromatize)
Add Explicit Hydrogens (ID: AddExplicitH)
Neutralize (ID: Neutralize)
Clean 2D (ID: Clean2D)

> <knn Distance>
3.16227769851685

> <CpId>
1707

$$$$
1862
  Mrv1532301301811342D          

 25 26  0  0  0  0            999 V2000
    2.0711   -0.4591    0.0000 O   0  0  0  0  0  0  0  0  0  0  0  0
    2.0711   -1.2841    0.0000 C   0  0  0  0  0  0  0  0  0  0  0  0
    1.3566   -1.6966    0.0000 C   0  0  0  0  0  0  0  0  0  0  0  0
    0.6422   -1.2841    0.0000 Cl  0  0  0  0  0  0  0  0  0  0  0  0
    1.3566   -2.5216    0.0000 C   0  0  0  0  0  0  0  0  0  0  0  0
    2.0711   -2.9341    0.0000 C   0  0  0  0  0  0  0  0  0  0  0  0
    2.0711   -3.7591    0.0000 Cl  0  0  0  0  0  0  0  0  0  0  0  0
    2.7856   -2.5216    0.0000 C   0  0  0  0  0  0  0  0  0  0  0  0
    2.7856   -1.6966    0.0000 C   0  0  0  0  0  0  0  0  0  0  0  0
    3.5000   -1.2841    0.0000 S   0  0  0  0  0  0  0  0  0  0  0  0
    4.2145   -1.6966    0.0000 C   0  0  0  0  0  0  0  0  0  0  0  0
    4.9290   -1.2841    0.0000 C   0  0  0  0  0  0  0  0  0  0  0  0
    5.6435   -1.6966    0.0000 C   0  0  0  0  0  0  0  0  0  0  0  0
    6.3579   -1.2841    0.0000 Cl  0  0  0  0  0  0  0  0  0  0  0  0
    5.6435   -2.5216    0.0000 C   0  0  0  0  0  0  0  0  0  0  0  0
    4.9290   -2.9341    0.0000 C   0  0  0  0  0  0  0  0  0  0  0  0
    4.9290   -3.7591    0.0000 Cl  0  0  0  0  0  0  0  0  0  0  0  0
    4.2145   -2.5216    0.0000 C   0  0  0  0  0  0  0  0  0  0  0  0
    3.5000   -2.9341    0.0000 O   0  0  0  0  0  0  0  0  0  0  0  0
    2.7856   -0.0466    0.0000 H   0  0  0  0  0  0  0  0  0  0  0  0
    0.6422   -2.9341    0.0000 H   0  0  0  0  0  0  0  0  0  0  0  0
    3.5000   -2.1091    0.0000 H   0  0  0  0  0  0  0  0  0  0  0  0
    4.9290   -0.4591    0.0000 H   0  0  0  0  0  0  0  0  0  0  0  0
    6.3579   -2.9341    0.0000 H   0  0  0  0  0  0  0  0  0  0  0  0
    3.5000   -3.7591    0.0000 H   0  0  0  0  0  0  0  0  0  0  0  0
  1  2  1  0  0  0  0
  2  3  4  0  0  0  0
  3  4  1  0  0  0  0
  3  5  4  0  0  0  0
  5  6  4  0  0  0  0
  6  7  1  0  0  0  0
  6  8  4  0  0  0  0
  8  9  4  0  0  0  0
  2  9  4  0  0  0  0
  9 10  1  0  0  0  0
 10 11  1  0  0  0  0
 11 12  4  0  0  0  0
 12 13  4  0  0  0  0
 13 14  1  0  0  0  0
 13 15  4  0  0  0  0
 15 16  4  0  0  0  0
 16 17  1  0  0  0  0
 16 18  4  0  0  0  0
 11 18  4  0  0  0  0
 18 19  1  0  0  0  0
  1 20  1  0  0  0  0
  5 21  1  0  0  0  0
  8 22  1  0  0  0  0
 12 23  1  0  0  0  0
 15 24  1  0  0  0  0
 19 25  1  0  0  0  0
M  END
>  <InChIKey>
InChI=1S/C12H6Cl4O2S/c13-5-1-7(15)11(17)9(3-5)19-10-4-6(14)2-8(16)12(10)18/h1-4,17-18H

>  <CASRN>
97-18-7

> <Outcome>
0

>  <Index>
1862

>  <StandardizerResult>
Dearomatize (ID: Dearomatize)
Clear Stereo (ID: ClearStereo)
Wedge Clean (ID: WedgeClean)
Mesomerize (ID: Mesomerize)
Tautomerize (ID: Tautomerize)
Aromatize (ID: Aromatize)
Add Explicit Hydrogens (ID: AddExplicitH)
Neutralize (ID: Neutralize)
Clean 2D (ID: Clean2D)

> <knn Distance>
3.16227769851685

> <CpId>
1862

$$$$
1874
  Mrv1532301301811342D          

 17 17  0  0  0  0            999 V2000
    2.2185    1.1952    0.0000 O   0  0  0  0  0  0  0  0  0  0  0  0
    1.5041    0.7827    0.0000 C   0  0  0  0  0  0  0  0  0  0  0  0
    1.5041   -0.0423    0.0000 C   0  0  0  0  0  0  0  0  0  0  0  0
    0.7896   -0.4548    0.0000 C   0  0  0  0  0  0  0  0  0  0  0  0
    0.0751   -0.0423    0.0000 C   0  0  0  0  0  0  0  0  0  0  0  0
    0.0751    0.7827    0.0000 C   0  0  0  0  0  0  0  0  0  0  0  0
    0.7896    1.1952    0.0000 C   0  0  0  0  0  0  0  0  0  0  0  0
    1.9574   -0.7316    0.0000 H   0  0  0  0  0  0  0  0  0  0  0  0
    2.3277   -0.0903    0.0000 H   0  0  0  0  0  0  0  0  0  0  0  0
    0.4193   -1.1921    0.0000 H   0  0  0  0  0  0  0  0  0  0  0  0
    1.1598   -1.1921    0.0000 H   0  0  0  0  0  0  0  0  0  0  0  0
   -0.7485   -0.0903    0.0000 H   0  0  0  0  0  0  0  0  0  0  0  0
   -0.3782   -0.7316    0.0000 H   0  0  0  0  0  0  0  0  0  0  0  0
   -0.3782    1.4719    0.0000 H   0  0  0  0  0  0  0  0  0  0  0  0
   -0.7485    0.8306    0.0000 H   0  0  0  0  0  0  0  0  0  0  0  0
    1.1598    1.9324    0.0000 H   0  0  0  0  0  0  0  0  0  0  0  0
    0.4193    1.9324    0.0000 H   0  0  0  0  0  0  0  0  0  0  0  0
  1  2  2  0  0  0  0
  2  3  1  0  0  0  0
  3  4  1  0  0  0  0
  4  5  1  0  0  0  0
  5  6  1  0  0  0  0
  6  7  1  0  0  0  0
  2  7  1  0  0  0  0
  3  8  1  0  0  0  0
  3  9  1  0  0  0  0
  4 10  1  0  0  0  0
  4 11  1  0  0  0  0
  5 12  1  0  0  0  0
  5 13  1  0  0  0  0
  6 14  1  0  0  0  0
  6 15  1  0  0  0  0
  7 16  1  0  0  0  0
  7 17  1  0  0  0  0
M  END
>  <InChIKey>
InChI=1S/C6H10O/c7-6-4-2-1-3-5-6/h1-5H2

>  <UN GHS>
Non-irritant

>  <CASRN>
108-94-1

> <Outcome>
0

>  <Index>
1874

>  <StandardizerResult>
Clear Stereo (ID: ClearStereo)
Wedge Clean (ID: WedgeClean)
Mesomerize (ID: Mesomerize)
Tautomerize (ID: Tautomerize)
Add Explicit Hydrogens (ID: AddExplicitH)
Neutralize (ID: Neutralize)
Clean 2D (ID: Clean2D)

> <knn Distance>
3.16227769851685

> <CpId>
1874

$$$$
1876
  Mrv1532301301811342D          

 16 16  0  0  0  0            999 V2000
   -0.0000    2.4750    0.0000 N   0  0  0  0  0  0  0  0  0  0  0  0
    0.7145    2.0625    0.0000 C   0  0  0  0  0  0  0  0  0  0  0  0
    1.4289    2.4750    0.0000 O   0  0  0  0  0  0  0  0  0  0  0  0
    0.7145    1.2375    0.0000 C   0  0  0  0  0  0  0  0  0  0  0  0
    1.4289    0.8250    0.0000 C   0  0  0  0  0  0  0  0  0  0  0  0
    2.1434    1.2375    0.0000 Cl  0  0  0  0  0  0  0  0  0  0  0  0
    1.4289   -0.0000    0.0000 C   0  0  0  0  0  0  0  0  0  0  0  0
    0.7145   -0.4125    0.0000 C   0  0  0  0  0  0  0  0  0  0  0  0
   -0.0000   -0.0000    0.0000 C   0  0  0  0  0  0  0  0  0  0  0  0
   -0.0000    0.8250    0.0000 C   0  0  0  0  0  0  0  0  0  0  0  0
   -0.7145    1.2375    0.0000 Cl  0  0  0  0  0  0  0  0  0  0  0  0
   -0.0000    3.3000    0.0000 H   0  0  0  0  0  0  0  0  0  0  0  0
   -0.7145    2.0625    0.0000 H   0  0  0  0  0  0  0  0  0  0  0  0
    2.1434   -0.4125    0.0000 H   0  0  0  0  0  0  0  0  0  0  0  0
    0.7145   -1.2375    0.0000 H   0  0  0  0  0  0  0  0  0  0  0  0
   -0.7145   -0.4125    0.0000 H   0  0  0  0  0  0  0  0  0  0  0  0
  1  2  1  0  0  0  0
  2  3  2  0  0  0  0
  2  4  1  0  0  0  0
  4  5  4  0  0  0  0
  5  6  1  0  0  0  0
  5  7  4  0  0  0  0
  7  8  4  0  0  0  0
  8  9  4  0  0  0  0
  9 10  4  0  0  0  0
  4 10  4  0  0  0  0
 10 11  1  0  0  0  0
  1 12  1  0  0  0  0
  1 13  1  0  0  0  0
  7 14  1  0  0  0  0
  8 15  1  0  0  0  0
  9 16  1  0  0  0  0
M  END
>  <InChIKey>
InChI=1S/C7H5Cl2NO/c8-4-2-1-3-5(9)6(4)7(10)11/h1-3H,(H2,10,11)

>  <CASRN>
2008-58-4

> <Outcome>
0

>  <Index>
1876

>  <StandardizerResult>
Dearomatize (ID: Dearomatize)
Clear Stereo (ID: ClearStereo)
Wedge Clean (ID: WedgeClean)
Mesomerize (ID: Mesomerize)
Tautomerize (ID: Tautomerize)
Aromatize (ID: Aromatize)
Add Explicit Hydrogens (ID: AddExplicitH)
Neutralize (ID: Neutralize)
Clean 2D (ID: Clean2D)

> <knn Distance>
3.16227769851685

> <CpId>
1876

$$$$
1892
  Mrv1532301301811342D          

 20 20  0  0  0  0            999 V2000
   -0.0000    2.4750    0.0000 C   0  0  0  0  0  0  0  0  0  0  0  0
    0.7145    2.0625    0.0000 N   0  0  0  0  0  0  0  0  0  0  0  0
    1.4289    2.4750    0.0000 C   0  0  0  0  0  0  0  0  0  0  0  0
    0.7145    1.2375    0.0000 C   0  0  0  0  0  0  0  0  0  0  0  0
    1.4289    0.8250    0.0000 C   0  0  0  0  0  0  0  0  0  0  0  0
    1.4289    0.0000    0.0000 C   0  0  0  0  0  0  0  0  0  0  0  0
    0.7145   -0.4125    0.0000 C   0  0  0  0  0  0  0  0  0  0  0  0
   -0.0000    0.0000    0.0000 C   0  0  0  0  0  0  0  0  0  0  0  0
   -0.0000    0.8250    0.0000 C   0  0  0  0  0  0  0  0  0  0  0  0
    0.4125    3.1895    0.0000 H   0  0  0  0  0  0  0  0  0  0  0  0
   -0.7145    2.8875    0.0000 H   0  0  0  0  0  0  0  0  0  0  0  0
   -0.4125    1.7605    0.0000 H   0  0  0  0  0  0  0  0  0  0  0  0
    1.8414    1.7605    0.0000 H   0  0  0  0  0  0  0  0  0  0  0  0
    2.1434    2.8875    0.0000 H   0  0  0  0  0  0  0  0  0  0  0  0
    1.0164    3.1895    0.0000 H   0  0  0  0  0  0  0  0  0  0  0  0
    2.1434    1.2375    0.0000 H   0  0  0  0  0  0  0  0  0  0  0  0
    2.1434   -0.4125    0.0000 H   0  0  0  0  0  0  0  0  0  0  0  0
    0.7145   -1.2375    0.0000 H   0  0  0  0  0  0  0  0  0  0  0  0
   -0.7145   -0.4125    0.0000 H   0  0  0  0  0  0  0  0  0  0  0  0
   -0.7145    1.2375    0.0000 H   0  0  0  0  0  0  0  0  0  0  0  0
  1  2  1  0  0  0  0
  2  3  1  0  0  0  0
  2  4  1  0  0  0  0
  4  5  4  0  0  0  0
  5  6  4  0  0  0  0
  6  7  4  0  0  0  0
  7  8  4  0  0  0  0
  8  9  4  0  0  0  0
  4  9  4  0  0  0  0
  1 10  1  0  0  0  0
  1 11  1  0  0  0  0
  1 12  1  0  0  0  0
  3 13  1  0  0  0  0
  3 14  1  0  0  0  0
  3 15  1  0  0  0  0
  5 16  1  0  0  0  0
  6 17  1  0  0  0  0
  7 18  1  0  0  0  0
  8 19  1  0  0  0  0
  9 20  1  0  0  0  0
M  END
>  <InChIKey>
InChI=1S/C8H11N/c1-9(2)8-6-4-3-5-7-8/h3-7H,1-2H3

>  <CASRN>
121-69-7

> <Outcome>
0

>  <Index>
1892

>  <StandardizerResult>
Dearomatize (ID: Dearomatize)
Clear Stereo (ID: ClearStereo)
Wedge Clean (ID: WedgeClean)
Mesomerize (ID: Mesomerize)
Tautomerize (ID: Tautomerize)
Aromatize (ID: Aromatize)
Add Explicit Hydrogens (ID: AddExplicitH)
Neutralize (ID: Neutralize)
Clean 2D (ID: Clean2D)

> <knn Distance>
3.16227769851685

> <CpId>
1892

$$$$
1894
  Mrv1532301301811342D          

 30 30  0  0  0  0            999 V2000
    2.1444    3.7119    0.0000 C   0  0  0  0  0  0  0  0  0  0  0  0
    1.4300    3.2994    0.0000 C   0  0  0  0  0  0  0  0  0  0  0  0
    1.4300    2.4744    0.0000 O   0  0  0  0  0  0  0  0  0  0  0  0
    0.7155    2.0619    0.0000 C   0  0  0  0  0  0  0  0  0  0  0  0
    0.0010    2.4744    0.0000 O   0  0  0  0  0  0  0  0  0  0  0  0
    0.7155    1.2369    0.0000 C   0  0  0  0  0  0  0  0  0  0  0  0
    1.4300    0.8244    0.0000 C   0  0  0  0  0  0  0  0  0  0  0  0
    1.4300   -0.0006    0.0000 C   0  0  0  0  0  0  0  0  0  0  0  0
    0.7155   -0.4131    0.0000 C   0  0  0  0  0  0  0  0  0  0  0  0
    0.0010   -0.0006    0.0000 C   0  0  0  0  0  0  0  0  0  0  0  0
    0.0010    0.8244    0.0000 C   0  0  0  0  0  0  0  0  0  0  0  0
   -0.7135   -0.4131    0.0000 C   0  0  0  0  0  0  0  0  0  0  0  0
   -1.4279   -0.0006    0.0000 O   0  0  0  0  0  0  0  0  0  0  0  0
   -0.7135   -1.2381    0.0000 O   0  0  0  0  0  0  0  0  0  0  0  0
   -1.4279   -1.6506    0.0000 C   0  0  0  0  0  0  0  0  0  0  0  0
   -1.4279   -2.4756    0.0000 C   0  0  0  0  0  0  0  0  0  0  0  0
    2.5569    2.9974    0.0000 H   0  0  0  0  0  0  0  0  0  0  0  0
    2.8589    4.1244    0.0000 H   0  0  0  0  0  0  0  0  0  0  0  0
    1.7319    4.4264    0.0000 H   0  0  0  0  0  0  0  0  0  0  0  0
    0.9766    3.9887    0.0000 H   0  0  0  0  0  0  0  0  0  0  0  0
    0.6064    3.3474    0.0000 H   0  0  0  0  0  0  0  0  0  0  0  0
    2.1444    1.2369    0.0000 H   0  0  0  0  0  0  0  0  0  0  0  0
    2.1444   -0.4131    0.0000 H   0  0  0  0  0  0  0  0  0  0  0  0
    0.7155   -1.2381    0.0000 H   0  0  0  0  0  0  0  0  0  0  0  0
   -0.7135    1.2369    0.0000 H   0  0  0  0  0  0  0  0  0  0  0  0
   -1.8813   -0.9613    0.0000 H   0  0  0  0  0  0  0  0  0  0  0  0
   -2.2515   -1.6026    0.0000 H   0  0  0  0  0  0  0  0  0  0  0  0
   -2.2529   -2.4756    0.0000 H   0  0  0  0  0  0  0  0  0  0  0  0
   -1.4279   -3.3006    0.0000 H   0  0  0  0  0  0  0  0  0  0  0  0
   -0.6029   -2.4756    0.0000 H   0  0  0  0  0  0  0  0  0  0  0  0
  1  2  1  0  0  0  0
  2  3  1  0  0  0  0
  3  4  1  0  0  0  0
  4  5  2  0  0  0  0
  4  6  1  0  0  0  0
  6  7  4  0  0  0  0
  7  8  4  0  0  0  0
  8  9  4  0  0  0  0
  9 10  4  0  0  0  0
 10 11  4  0  0  0  0
  6 11  4  0  0  0  0
 10 12  1  0  0  0  0
 12 13  2  0  0  0  0
 12 14  1  0  0  0  0
 14 15  1  0  0  0  0
 15 16  1  0  0  0  0
  1 17  1  0  0  0  0
  1 18  1  0  0  0  0
  1 19  1  0  0  0  0
  2 20  1  0  0  0  0
  2 21  1  0  0  0  0
  7 22  1  0  0  0  0
  8 23  1  0  0  0  0
  9 24  1  0  0  0  0
 11 25  1  0  0  0  0
 15 26  1  0  0  0  0
 15 27  1  0  0  0  0
 16 28  1  0  0  0  0
 16 29  1  0  0  0  0
 16 30  1  0  0  0  0
M  END
>  <InChIKey>
InChI=1S/C12H14O4/c1-3-15-11(13)9-6-5-7-10(8-9)12(14)16-4-2/h5-8H,3-4H2,1-2H3

>  <CASRN>
636-53-3

> <Outcome>
0

>  <Index>
1894

>  <StandardizerResult>
Dearomatize (ID: Dearomatize)
Clear Stereo (ID: ClearStereo)
Wedge Clean (ID: WedgeClean)
Mesomerize (ID: Mesomerize)
Tautomerize (ID: Tautomerize)
Aromatize (ID: Aromatize)
Add Explicit Hydrogens (ID: AddExplicitH)
Neutralize (ID: Neutralize)
Clean 2D (ID: Clean2D)

> <knn Distance>
3.16227769851685

> <CpId>
1894

$$$$
2109
  Mrv1532301301811342D          

 29 30  0  0  0  0            999 V2000
    3.5734   -0.4131    0.0000 C   0  0  0  0  0  0  0  0  0  0  0  0
    3.5734   -1.2381    0.0000 S   0  0  0  0  0  0  0  0  0  0  0  0
    2.8590   -1.6506    0.0000 C   0  0  0  0  0  0  0  0  0  0  0  0
    2.8590   -2.4756    0.0000 C   0  0  0  0  0  0  0  0  0  0  0  0
    3.5734   -2.8881    0.0000 C   0  0  0  0  0  0  0  0  0  0  0  0
    3.5734   -3.7131    0.0000 C   0  0  0  0  0  0  0  0  0  0  0  0
    2.8590   -4.1256    0.0000 C   0  0  0  0  0  0  0  0  0  0  0  0
    2.1445   -3.7131    0.0000 C   0  0  0  0  0  0  0  0  0  0  0  0
    2.1445   -2.8881    0.0000 C   0  0  0  0  0  0  0  0  0  0  0  0
    4.2879   -0.0006    0.0000 C   0  0  0  0  0  0  0  0  0  0  0  0
    4.2879    0.8244    0.0000 C   0  0  0  0  0  0  0  0  0  0  0  0
    5.0024    1.2369    0.0000 C   0  0  0  0  0  0  0  0  0  0  0  0
    5.7168    0.8244    0.0000 C   0  0  0  0  0  0  0  0  0  0  0  0
    5.7168   -0.0006    0.0000 C   0  0  0  0  0  0  0  0  0  0  0  0
    5.0024   -0.4131    0.0000 C   0  0  0  0  0  0  0  0  0  0  0  0
    3.1201    0.2762    0.0000 H   0  0  0  0  0  0  0  0  0  0  0  0
    2.7498   -0.3651    0.0000 H   0  0  0  0  0  0  0  0  0  0  0  0
    2.4056   -0.9613    0.0000 H   0  0  0  0  0  0  0  0  0  0  0  0
    2.0353   -1.6026    0.0000 H   0  0  0  0  0  0  0  0  0  0  0  0
    4.2879   -2.4756    0.0000 H   0  0  0  0  0  0  0  0  0  0  0  0
    4.2879   -4.1256    0.0000 H   0  0  0  0  0  0  0  0  0  0  0  0
    2.8590   -4.9506    0.0000 H   0  0  0  0  0  0  0  0  0  0  0  0
    1.4300   -4.1256    0.0000 H   0  0  0  0  0  0  0  0  0  0  0  0
    1.4300   -2.4756    0.0000 H   0  0  0  0  0  0  0  0  0  0  0  0
    3.5734    1.2369    0.0000 H   0  0  0  0  0  0  0  0  0  0  0  0
    5.0024    2.0619    0.0000 H   0  0  0  0  0  0  0  0  0  0  0  0
    6.4313    1.2369    0.0000 H   0  0  0  0  0  0  0  0  0  0  0  0
    6.4313   -0.4131    0.0000 H   0  0  0  0  0  0  0  0  0  0  0  0
    5.0024   -1.2381    0.0000 H   0  0  0  0  0  0  0  0  0  0  0  0
  1  2  1  0  0  0  0
  2  3  1  0  0  0  0
  3  4  1  0  0  0  0
  4  5  4  0  0  0  0
  5  6  4  0  0  0  0
  6  7  4  0  0  0  0
  7  8  4  0  0  0  0
  8  9  4  0  0  0  0
  4  9  4  0  0  0  0
  1 10  1  0  0  0  0
 10 11  4  0  0  0  0
 11 12  4  0  0  0  0
 12 13  4  0  0  0  0
 13 14  4  0  0  0  0
 14 15  4  0  0  0  0
 10 15  4  0  0  0  0
  1 16  1  0  0  0  0
  1 17  1  0  0  0  0
  3 18  1  0  0  0  0
  3 19  1  0  0  0  0
  5 20  1  0  0  0  0
  6 21  1  0  0  0  0
  7 22  1  0  0  0  0
  8 23  1  0  0  0  0
  9 24  1  0  0  0  0
 11 25  1  0  0  0  0
 12 26  1  0  0  0  0
 13 27  1  0  0  0  0
 14 28  1  0  0  0  0
 15 29  1  0  0  0  0
M  END
>  <InChIKey>
InChI=1S/C14H14S/c1-3-7-13(8-4-1)11-15-12-14-9-5-2-6-10-14/h1-10H,11-12H2

>  <CASRN>
538-74-9

> <Outcome>
0

>  <Index>
2109

>  <StandardizerResult>
Dearomatize (ID: Dearomatize)
Clear Stereo (ID: ClearStereo)
Wedge Clean (ID: WedgeClean)
Mesomerize (ID: Mesomerize)
Tautomerize (ID: Tautomerize)
Aromatize (ID: Aromatize)
Add Explicit Hydrogens (ID: AddExplicitH)
Neutralize (ID: Neutralize)
Clean 2D (ID: Clean2D)

> <knn Distance>
3.16227769851685

> <CpId>
2109

$$$$
2240
  Mrv1532301301811342D          

 20 19  0  0  0  0            999 V2000
    3.8647   -0.6438    0.0000 C   0  0  0  0  0  0  0  0  0  0  0  0
    3.0397   -0.6438    0.0000 C   0  0  0  0  0  0  0  0  0  0  0  0
    3.0397    0.1812    0.0000 C   0  0  0  0  0  0  0  0  0  0  0  0
    3.0397   -1.4688    0.0000 C   0  0  0  0  0  0  0  0  0  0  0  0
    2.2147   -0.6438    0.0000 C   0  0  0  0  0  0  0  0  0  0  0  0
    1.8022   -1.3583    0.0000 O   0  0  0  0  0  0  0  0  0  0  0  0
    1.8022    0.0707    0.0000 C   0  0  0  0  0  0  0  0  0  0  0  0
    0.9772    0.0707    0.0000 C   0  0  0  0  0  0  0  0  0  0  0  0
    0.1522    0.0707    0.0000 N   0  0  0  0  0  0  0  0  0  0  0  0
    3.8647   -1.4688    0.0000 H   0  0  0  0  0  0  0  0  0  0  0  0
    4.6897   -0.6438    0.0000 H   0  0  0  0  0  0  0  0  0  0  0  0
    3.8647    0.1812    0.0000 H   0  0  0  0  0  0  0  0  0  0  0  0
    3.3554    0.9434    0.0000 H   0  0  0  0  0  0  0  0  0  0  0  0
    2.4563    0.7645    0.0000 H   0  0  0  0  0  0  0  0  0  0  0  0
    2.2775   -0.1345    0.0000 H   0  0  0  0  0  0  0  0  0  0  0  0
    2.2775   -1.1531    0.0000 H   0  0  0  0  0  0  0  0  0  0  0  0
    2.4563   -2.0522    0.0000 H   0  0  0  0  0  0  0  0  0  0  0  0
    3.3554   -2.2310    0.0000 H   0  0  0  0  0  0  0  0  0  0  0  0
    1.4752    0.8281    0.0000 H   0  0  0  0  0  0  0  0  0  0  0  0
    1.3897   -0.6438    0.0000 H   0  0  0  0  0  0  0  0  0  0  0  0
  1  2  1  0  0  0  0
  2  3  1  0  0  0  0
  2  4  1  0  0  0  0
  2  5  1  0  0  0  0
  5  6  2  0  0  0  0
  5  7  1  0  0  0  0
  7  8  1  0  0  0  0
  8  9  3  0  0  0  0
  1 10  1  0  0  0  0
  1 11  1  0  0  0  0
  1 12  1  0  0  0  0
  3 13  1  0  0  0  0
  3 14  1  0  0  0  0
  3 15  1  0  0  0  0
  4 16  1  0  0  0  0
  4 17  1  0  0  0  0
  4 18  1  0  0  0  0
  7 19  1  0  0  0  0
  7 20  1  0  0  0  0
M  END
>  <InChIKey>
InChI=1S/C7H11NO/c1-7(2,3)6(9)4-5-8/h4H2,1-3H3

>  <UN GHS>
Non-irritant

>  <CASRN>
59997-51-2

> <Outcome>
0

>  <Index>
2240

>  <StandardizerResult>
Clear Stereo (ID: ClearStereo)
Wedge Clean (ID: WedgeClean)
Mesomerize (ID: Mesomerize)
Tautomerize (ID: Tautomerize)
Add Explicit Hydrogens (ID: AddExplicitH)
Neutralize (ID: Neutralize)
Clean 2D (ID: Clean2D)

> <knn Distance>
3.16227769851685

> <CpId>
2240

$$$$
2276
  Mrv1532301301811342D          

 14 13  0  0  0  0            999 V2000
    4.6184   -2.6664    0.0000 C   0  0  0  0  0  0  0  0  0  0  0  0
    4.6184   -1.8414    0.0000 C   0  0  0  0  0  0  0  0  0  0  0  0
    3.9039   -1.4289    0.0000 C   0  0  0  0  0  0  0  0  0  0  0  0
    3.1895   -1.8414    0.0000 C   0  0  0  0  0  0  0  0  0  0  0  0
    2.4750   -1.4289    0.0000 C   0  0  0  0  0  0  0  0  0  0  0  0
    1.7605   -1.0164    0.0000 N   0  0  0  0  0  0  0  0  0  0  0  0
    5.3329   -1.4289    0.0000 C   0  0  0  0  0  0  0  0  0  0  0  0
    6.0474   -1.0164    0.0000 N   0  0  0  0  0  0  0  0  0  0  0  0
    3.9039   -3.0789    0.0000 H   0  0  0  0  0  0  0  0  0  0  0  0
    5.3329   -3.0789    0.0000 H   0  0  0  0  0  0  0  0  0  0  0  0
    4.2742   -0.6917    0.0000 H   0  0  0  0  0  0  0  0  0  0  0  0
    3.5337   -0.6917    0.0000 H   0  0  0  0  0  0  0  0  0  0  0  0
    2.8192   -2.5786    0.0000 H   0  0  0  0  0  0  0  0  0  0  0  0
    3.5597   -2.5786    0.0000 H   0  0  0  0  0  0  0  0  0  0  0  0
  1  2  2  0  0  0  0
  2  3  1  0  0  0  0
  3  4  1  0  0  0  0
  4  5  1  0  0  0  0
  5  6  3  0  0  0  0
  2  7  1  0  0  0  0
  7  8  3  0  0  0  0
  1  9  1  0  0  0  0
  1 10  1  0  0  0  0
  3 11  1  0  0  0  0
  3 12  1  0  0  0  0
  4 13  1  0  0  0  0
  4 14  1  0  0  0  0
M  END
>  <InChIKey>
InChI=1S/C6H6N2/c1-6(5-8)3-2-4-7/h1-3H2

>  <UN GHS>
Non-irritant

>  <CASRN>
1572-52-7

> <Outcome>
0

>  <Index>
2276

>  <StandardizerResult>
Clear Stereo (ID: ClearStereo)
Wedge Clean (ID: WedgeClean)
Mesomerize (ID: Mesomerize)
Tautomerize (ID: Tautomerize)
Add Explicit Hydrogens (ID: AddExplicitH)
Neutralize (ID: Neutralize)
Clean 2D (ID: Clean2D)

> <knn Distance>
3.16227769851685

> <CpId>
2276

$$$$
2325
  Mrv1532301301811342D          

 13 13  0  0  0  0            999 V2000
    0.7145    2.0625    0.0000 N   0  0  0  0  0  0  0  0  0  0  0  0
    0.7145    1.2375    0.0000 C   0  0  0  0  0  0  0  0  0  0  0  0
    1.4289    0.8250    0.0000 C   0  0  0  0  0  0  0  0  0  0  0  0
    1.4289   -0.0000    0.0000 C   0  0  0  0  0  0  0  0  0  0  0  0
    0.7145   -0.4125    0.0000 N   0  0  0  0  0  0  0  0  0  0  0  0
    0.0000    0.0000    0.0000 C   0  0  0  0  0  0  0  0  0  0  0  0
    0.0000    0.8250    0.0000 C   0  0  0  0  0  0  0  0  0  0  0  0
    1.4289    2.4750    0.0000 H   0  0  0  0  0  0  0  0  0  0  0  0
    0.0000    2.4750    0.0000 H   0  0  0  0  0  0  0  0  0  0  0  0
    2.1434    1.2375    0.0000 H   0  0  0  0  0  0  0  0  0  0  0  0
    2.1434   -0.4125    0.0000 H   0  0  0  0  0  0  0  0  0  0  0  0
   -0.7145   -0.4125    0.0000 H   0  0  0  0  0  0  0  0  0  0  0  0
   -0.7145    1.2375    0.0000 H   0  0  0  0  0  0  0  0  0  0  0  0
  1  2  1  0  0  0  0
  2  3  4  0  0  0  0
  3  4  4  0  0  0  0
  4  5  4  0  0  0  0
  5  6  4  0  0  0  0
  6  7  4  0  0  0  0
  2  7  4  0  0  0  0
  1  8  1  0  0  0  0
  1  9  1  0  0  0  0
  3 10  1  0  0  0  0
  4 11  1  0  0  0  0
  6 12  1  0  0  0  0
  7 13  1  0  0  0  0
M  END
>  <InChIKey>
InChI=1S/C5H6N2/c6-5-1-3-7-4-2-5/h1-4H,(H2,6,7)

>  <CASRN>
504-24-5

> <Outcome>
0

>  <Index>
2325

>  <StandardizerResult>
Dearomatize (ID: Dearomatize)
Clear Stereo (ID: ClearStereo)
Wedge Clean (ID: WedgeClean)
Mesomerize (ID: Mesomerize)
Tautomerize (ID: Tautomerize)
Aromatize (ID: Aromatize)
Add Explicit Hydrogens (ID: AddExplicitH)
Neutralize (ID: Neutralize)
Clean 2D (ID: Clean2D)

> <knn Distance>
3.16227769851685

> <CpId>
2325

$$$$
2350
  Mrv1532301301811342D          

 24 24  0  0  0  0            999 V2000
   -0.0000   -2.4757    0.0000 O   0  0  0  0  0  0  0  0  0  0  0  0
    0.7145   -2.8882    0.0000 C   0  0  0  0  0  0  0  0  0  0  0  0
    0.7145   -3.7132    0.0000 O   0  0  0  0  0  0  0  0  0  0  0  0
    1.4289   -2.4757    0.0000 C   0  0  0  0  0  0  0  0  0  0  0  0
    2.1434   -2.8882    0.0000 C   0  0  0  0  0  0  0  0  0  0  0  0
    2.8579   -2.4757    0.0000 C   0  0  0  0  0  0  0  0  0  0  0  0
    3.5723   -2.8882    0.0000 C   0  0  0  0  0  0  0  0  0  0  0  0
    4.2868   -2.4757    0.0000 C   0  0  0  0  0  0  0  0  0  0  0  0
    5.0013   -2.8882    0.0000 C   0  0  0  0  0  0  0  0  0  0  0  0
    5.0013   -3.7132    0.0000 C   0  0  0  0  0  0  0  0  0  0  0  0
    4.2868   -4.1257    0.0000 C   0  0  0  0  0  0  0  0  0  0  0  0
    3.5723   -3.7132    0.0000 C   0  0  0  0  0  0  0  0  0  0  0  0
   -0.0000   -1.6507    0.0000 H   0  0  0  0  0  0  0  0  0  0  0  0
    1.7992   -1.7385    0.0000 H   0  0  0  0  0  0  0  0  0  0  0  0
    1.0587   -1.7385    0.0000 H   0  0  0  0  0  0  0  0  0  0  0  0
    1.7731   -3.6255    0.0000 H   0  0  0  0  0  0  0  0  0  0  0  0
    2.5137   -3.6255    0.0000 H   0  0  0  0  0  0  0  0  0  0  0  0
    3.2281   -1.7385    0.0000 H   0  0  0  0  0  0  0  0  0  0  0  0
    2.4876   -1.7385    0.0000 H   0  0  0  0  0  0  0  0  0  0  0  0
    4.2868   -1.6507    0.0000 H   0  0  0  0  0  0  0  0  0  0  0  0
    5.7158   -2.4757    0.0000 H   0  0  0  0  0  0  0  0  0  0  0  0
    5.7158   -4.1257    0.0000 H   0  0  0  0  0  0  0  0  0  0  0  0
    4.2868   -4.9507    0.0000 H   0  0  0  0  0  0  0  0  0  0  0  0
    2.8579   -4.1257    0.0000 H   0  0  0  0  0  0  0  0  0  0  0  0
  1  2  1  0  0  0  0
  2  3  2  0  0  0  0
  2  4  1  0  0  0  0
  4  5  1  0  0  0  0
  5  6  1  0  0  0  0
  6  7  1  0  0  0  0
  7  8  4  0  0  0  0
  8  9  4  0  0  0  0
  9 10  4  0  0  0  0
 10 11  4  0  0  0  0
 11 12  4  0  0  0  0
  7 12  4  0  0  0  0
  1 13  1  0  0  0  0
  4 14  1  0  0  0  0
  4 15  1  0  0  0  0
  5 16  1  0  0  0  0
  5 17  1  0  0  0  0
  6 18  1  0  0  0  0
  6 19  1  0  0  0  0
  8 20  1  0  0  0  0
  9 21  1  0  0  0  0
 10 22  1  0  0  0  0
 11 23  1  0  0  0  0
 12 24  1  0  0  0  0
M  END
>  <InChIKey>
InChI=1S/C10H12O2/c11-10(12)8-4-7-9-5-2-1-3-6-9/h1-3,5-6H,4,7-8H2,(H,11,12)

>  <CASRN>
1821-12-1

> <Outcome>
0

>  <Index>
2350

>  <StandardizerResult>
Dearomatize (ID: Dearomatize)
Clear Stereo (ID: ClearStereo)
Wedge Clean (ID: WedgeClean)
Mesomerize (ID: Mesomerize)
Tautomerize (ID: Tautomerize)
Aromatize (ID: Aromatize)
Add Explicit Hydrogens (ID: AddExplicitH)
Neutralize (ID: Neutralize)
Clean 2D (ID: Clean2D)

> <knn Distance>
3.16227769851685

> <CpId>
2350

$$$$
2366
  Mrv1532301301811342D          

 21 20  0  0  0  0            999 V2000
    3.0655   -0.7089    0.0000 C   0  0  0  0  0  0  0  0  0  0  0  0
    2.2405   -0.7089    0.0000 N   0  3  0  0  0  0  0  0  0  0  0  0
    2.2405    0.1161    0.0000 C   0  0  0  0  0  0  0  0  0  0  0  0
    2.2405   -1.5339    0.0000 C   0  0  0  0  0  0  0  0  0  0  0  0
    1.4155   -0.7089    0.0000 C   0  0  0  0  0  0  0  0  0  0  0  0
    1.0030    0.0055    0.0000 C   0  0  0  0  0  0  0  0  0  0  0  0
    0.1780    0.0055    0.0000 O   0  0  0  0  0  0  0  0  0  0  0  0
    3.0655   -1.5339    0.0000 H   0  0  0  0  0  0  0  0  0  0  0  0
    3.8905   -0.7089    0.0000 H   0  0  0  0  0  0  0  0  0  0  0  0
    3.0655    0.1161    0.0000 H   0  0  0  0  0  0  0  0  0  0  0  0
    2.5563    0.8783    0.0000 H   0  0  0  0  0  0  0  0  0  0  0  0
    1.6572    0.6994    0.0000 H   0  0  0  0  0  0  0  0  0  0  0  0
    1.4783   -0.1997    0.0000 H   0  0  0  0  0  0  0  0  0  0  0  0
    1.4783   -1.2182    0.0000 H   0  0  0  0  0  0  0  0  0  0  0  0
    1.6572   -2.1173    0.0000 H   0  0  0  0  0  0  0  0  0  0  0  0
    2.5563   -2.2961    0.0000 H   0  0  0  0  0  0  0  0  0  0  0  0
    0.5979   -0.5990    0.0000 H   0  0  0  0  0  0  0  0  0  0  0  0
    0.8290   -1.2891    0.0000 H   0  0  0  0  0  0  0  0  0  0  0  0
    0.9868    0.8304    0.0000 H   0  0  0  0  0  0  0  0  0  0  0  0
    0.4140    0.5831    0.0000 H   0  0  0  0  0  0  0  0  0  0  0  0
   -0.6420   -0.0847    0.0000 H   0  0  0  0  0  0  0  0  0  0  0  0
  1  2  1  0  0  0  0
  2  3  1  0  0  0  0
  2  4  1  0  0  0  0
  2  5  1  0  0  0  0
  5  6  1  0  0  0  0
  6  7  1  0  0  0  0
  1  8  1  0  0  0  0
  1  9  1  0  0  0  0
  1 10  1  0  0  0  0
  3 11  1  0  0  0  0
  3 12  1  0  0  0  0
  3 13  1  0  0  0  0
  4 14  1  0  0  0  0
  4 15  1  0  0  0  0
  4 16  1  0  0  0  0
  5 17  1  0  0  0  0
  5 18  1  0  0  0  0
  6 19  1  0  0  0  0
  6 20  1  0  0  0  0
  7 21  1  0  0  0  0
M  CHG  1   2   1
M  END
>  <InChIKey>
InChI=1S/C5H14NO/c1-6(2,3)4-5-7/h7H,4-5H2,1-3H3/q+1

>  <CASRN>
62-49-7

> <Outcome>
0

>  <Index>
2366

>  <StandardizerResult>
Clear Stereo (ID: ClearStereo)
Wedge Clean (ID: WedgeClean)
Mesomerize (ID: Mesomerize)
Tautomerize (ID: Tautomerize)
Add Explicit Hydrogens (ID: AddExplicitH)
Clean 2D (ID: Clean2D)

> <knn Distance>
3.16227769851685

> <CpId>
2366

$$$$
2585
  Mrv1532301301811342D          

 28 28  0  0  0  0            999 V2000
    1.4289   -4.1256    0.0000 C   0  0  0  0  0  0  0  0  0  0  0  0
    2.1434   -3.7131    0.0000 C   0  0  0  0  0  0  0  0  0  0  0  0
    2.8579   -4.1256    0.0000 C   0  0  0  0  0  0  0  0  0  0  0  0
    3.5724   -3.7131    0.0000 C   0  0  0  0  0  0  0  0  0  0  0  0
    4.2868   -4.1256    0.0000 O   0  0  0  0  0  0  0  0  0  0  0  0
    5.0013   -3.7131    0.0000 C   0  0  0  0  0  0  0  0  0  0  0  0
    5.0013   -2.8881    0.0000 O   0  0  0  0  0  0  0  0  0  0  0  0
    5.7158   -4.1256    0.0000 C   0  0  0  0  0  0  0  0  0  0  0  0
    6.4302   -3.7131    0.0000 C   0  0  0  0  0  0  0  0  0  0  0  0
    7.1447   -4.1256    0.0000 C   0  0  0  0  0  0  0  0  0  0  0  0
    7.1447   -4.9506    0.0000 C   0  0  0  0  0  0  0  0  0  0  0  0
    7.8592   -5.3631    0.0000 O   0  0  0  0  0  0  0  0  0  0  0  0
    6.4302   -5.3631    0.0000 C   0  0  0  0  0  0  0  0  0  0  0  0
    5.7158   -4.9506    0.0000 C   0  0  0  0  0  0  0  0  0  0  0  0
    1.0164   -3.4112    0.0000 H   0  0  0  0  0  0  0  0  0  0  0  0
    0.7145   -4.5381    0.0000 H   0  0  0  0  0  0  0  0  0  0  0  0
    1.8414   -4.8401    0.0000 H   0  0  0  0  0  0  0  0  0  0  0  0
    2.5137   -2.9759    0.0000 H   0  0  0  0  0  0  0  0  0  0  0  0
    1.7731   -2.9759    0.0000 H   0  0  0  0  0  0  0  0  0  0  0  0
    2.4876   -4.8629    0.0000 H   0  0  0  0  0  0  0  0  0  0  0  0
    3.2281   -4.8629    0.0000 H   0  0  0  0  0  0  0  0  0  0  0  0
    3.9426   -2.9759    0.0000 H   0  0  0  0  0  0  0  0  0  0  0  0
    3.2021   -2.9759    0.0000 H   0  0  0  0  0  0  0  0  0  0  0  0
    6.4302   -2.8881    0.0000 H   0  0  0  0  0  0  0  0  0  0  0  0
    7.8592   -3.7131    0.0000 H   0  0  0  0  0  0  0  0  0  0  0  0
    7.8592   -6.1881    0.0000 H   0  0  0  0  0  0  0  0  0  0  0  0
    6.4302   -6.1881    0.0000 H   0  0  0  0  0  0  0  0  0  0  0  0
    5.0013   -5.3631    0.0000 H   0  0  0  0  0  0  0  0  0  0  0  0
  1  2  1  0  0  0  0
  2  3  1  0  0  0  0
  3  4  1  0  0  0  0
  4  5  1  0  0  0  0
  5  6  1  0  0  0  0
  6  7  2  0  0  0  0
  6  8  1  0  0  0  0
  8  9  4  0  0  0  0
  9 10  4  0  0  0  0
 10 11  4  0  0  0  0
 11 12  1  0  0  0  0
 11 13  4  0  0  0  0
 13 14  4  0  0  0  0
  8 14  4  0  0  0  0
  1 15  1  0  0  0  0
  1 16  1  0  0  0  0
  1 17  1  0  0  0  0
  2 18  1  0  0  0  0
  2 19  1  0  0  0  0
  3 20  1  0  0  0  0
  3 21  1  0  0  0  0
  4 22  1  0  0  0  0
  4 23  1  0  0  0  0
  9 24  1  0  0  0  0
 10 25  1  0  0  0  0
 12 26  1  0  0  0  0
 13 27  1  0  0  0  0
 14 28  1  0  0  0  0
M  END
>  <InChIKey>
InChI=1S/C11H14O3/c1-2-3-8-14-11(13)9-4-6-10(12)7-5-9/h4-7,12H,2-3,8H2,1H3

>  <CASRN>
94-26-8

> <Outcome>
0

>  <Index>
2585

>  <StandardizerResult>
Dearomatize (ID: Dearomatize)
Clear Stereo (ID: ClearStereo)
Wedge Clean (ID: WedgeClean)
Mesomerize (ID: Mesomerize)
Tautomerize (ID: Tautomerize)
Aromatize (ID: Aromatize)
Add Explicit Hydrogens (ID: AddExplicitH)
Neutralize (ID: Neutralize)
Clean 2D (ID: Clean2D)

> <knn Distance>
3.16227769851685

> <CpId>
2585

$$$$
2616
  Mrv1532301301811342D          

 18 18  0  0  0  0            999 V2000
   -0.0000    2.4750    0.0000 C   0  0  0  0  0  0  0  0  0  0  0  0
    0.7145    2.0625    0.0000 S   0  0  0  0  0  0  0  0  0  0  0  0
    0.7145    1.2375    0.0000 C   0  0  0  0  0  0  0  0  0  0  0  0
    1.4289    0.8250    0.0000 C   0  0  0  0  0  0  0  0  0  0  0  0
    1.4289    0.0000    0.0000 C   0  0  0  0  0  0  0  0  0  0  0  0
    0.7145   -0.4125    0.0000 C   0  0  0  0  0  0  0  0  0  0  0  0
    0.7145   -1.2375    0.0000 C   0  0  0  0  0  0  0  0  0  0  0  0
    1.4289   -1.6500    0.0000 O   0  0  0  0  0  0  0  0  0  0  0  0
   -0.0000    0.0000    0.0000 C   0  0  0  0  0  0  0  0  0  0  0  0
   -0.0000    0.8250    0.0000 C   0  0  0  0  0  0  0  0  0  0  0  0
    0.4125    3.1895    0.0000 H   0  0  0  0  0  0  0  0  0  0  0  0
   -0.7145    2.8875    0.0000 H   0  0  0  0  0  0  0  0  0  0  0  0
   -0.4125    1.7605    0.0000 H   0  0  0  0  0  0  0  0  0  0  0  0
    2.1434    1.2375    0.0000 H   0  0  0  0  0  0  0  0  0  0  0  0
    2.1434   -0.4125    0.0000 H   0  0  0  0  0  0  0  0  0  0  0  0
   -0.0000   -1.6500    0.0000 H   0  0  0  0  0  0  0  0  0  0  0  0
   -0.7145   -0.4125    0.0000 H   0  0  0  0  0  0  0  0  0  0  0  0
   -0.7145    1.2375    0.0000 H   0  0  0  0  0  0  0  0  0  0  0  0
  1  2  1  0  0  0  0
  2  3  1  0  0  0  0
  3  4  4  0  0  0  0
  4  5  4  0  0  0  0
  5  6  4  0  0  0  0
  6  7  1  0  0  0  0
  7  8  2  0  0  0  0
  6  9  4  0  0  0  0
  9 10  4  0  0  0  0
  3 10  4  0  0  0  0
  1 11  1  0  0  0  0
  1 12  1  0  0  0  0
  1 13  1  0  0  0  0
  4 14  1  0  0  0  0
  5 15  1  0  0  0  0
  7 16  1  0  0  0  0
  9 17  1  0  0  0  0
 10 18  1  0  0  0  0
M  END
>  <InChIKey>
InChI=1S/C8H8OS/c1-10-8-4-2-7(6-9)3-5-8/h2-6H,1H3

>  <UN GHS>
Non-irritant

>  <CASRN>
3446-89-7

> <Outcome>
0

>  <Index>
2616

>  <StandardizerResult>
Dearomatize (ID: Dearomatize)
Clear Stereo (ID: ClearStereo)
Wedge Clean (ID: WedgeClean)
Mesomerize (ID: Mesomerize)
Tautomerize (ID: Tautomerize)
Aromatize (ID: Aromatize)
Add Explicit Hydrogens (ID: AddExplicitH)
Neutralize (ID: Neutralize)
Clean 2D (ID: Clean2D)

> <knn Distance>
3.16227769851685

> <CpId>
2616

$$$$
2627
  Mrv1532301301811342D          

 18 17  0  0  0  0            999 V2000
   -0.6048   -3.2995    0.0000 C   0  0  0  0  0  0  0  0  0  0  0  0
   -0.6048   -2.4745    0.0000 C   0  0  0  0  0  0  0  0  0  0  0  0
   -1.3193   -2.0620    0.0000 C   0  0  0  0  0  0  0  0  0  0  0  0
    0.1097   -2.0620    0.0000 C   0  0  0  0  0  0  0  0  0  0  0  0
    0.8242   -2.4745    0.0000 O   0  0  0  0  0  0  0  0  0  0  0  0
    0.1097   -1.2370    0.0000 O   0  0  0  0  0  0  0  0  0  0  0  0
    0.8242   -0.8245    0.0000 C   0  0  0  0  0  0  0  0  0  0  0  0
    0.8242    0.0005    0.0000 C   0  0  0  0  0  0  0  0  0  0  0  0
    0.8242    0.8255    0.0000 F   0  0  0  0  0  0  0  0  0  0  0  0
    1.6492    0.0005    0.0000 F   0  0  0  0  0  0  0  0  0  0  0  0
   -0.0008    0.0005    0.0000 F   0  0  0  0  0  0  0  0  0  0  0  0
   -1.4298   -3.2995    0.0000 H   0  0  0  0  0  0  0  0  0  0  0  0
   -0.6048   -4.1245    0.0000 H   0  0  0  0  0  0  0  0  0  0  0  0
    0.2202   -3.2995    0.0000 H   0  0  0  0  0  0  0  0  0  0  0  0
   -1.3193   -1.2370    0.0000 H   0  0  0  0  0  0  0  0  0  0  0  0
   -2.0337   -2.4745    0.0000 H   0  0  0  0  0  0  0  0  0  0  0  0
    1.2775   -1.5138    0.0000 H   0  0  0  0  0  0  0  0  0  0  0  0
    1.6478   -0.8725    0.0000 H   0  0  0  0  0  0  0  0  0  0  0  0
  1  2  1  0  0  0  0
  2  3  2  0  0  0  0
  2  4  1  0  0  0  0
  4  5  2  0  0  0  0
  4  6  1  0  0  0  0
  6  7  1  0  0  0  0
  7  8  1  0  0  0  0
  8  9  1  0  0  0  0
  8 10  1  0  0  0  0
  8 11  1  0  0  0  0
  1 12  1  0  0  0  0
  1 13  1  0  0  0  0
  1 14  1  0  0  0  0
  3 15  1  0  0  0  0
  3 16  1  0  0  0  0
  7 17  1  0  0  0  0
  7 18  1  0  0  0  0
M  END
>  <InChIKey>
InChI=1S/C6H7F3O2/c1-4(2)5(10)11-3-6(7,8)9/h1,3H2,2H3

> <Outcome>
0

>  <Index>
2627

>  <StandardizerResult>
Clear Stereo (ID: ClearStereo)
Wedge Clean (ID: WedgeClean)
Mesomerize (ID: Mesomerize)
Tautomerize (ID: Tautomerize)
Add Explicit Hydrogens (ID: AddExplicitH)
Neutralize (ID: Neutralize)
Clean 2D (ID: Clean2D)

> <knn Distance>
3.16227769851685

> <CpId>
2627

$$$$
2767
  Mrv1532301301811342D          

 33 32  0  0  0  0            999 V2000
    4.1624    3.2376    0.0000 C   0  0  0  0  0  0  0  0  0  0  0  0
    4.8769    2.8251    0.0000 C   0  0  0  0  0  0  0  0  0  0  0  0
    4.8769    2.0001    0.0000 C   0  0  0  0  0  0  0  0  0  0  0  0
    5.5914    3.2376    0.0000 C   0  0  0  0  0  0  0  0  0  0  0  0
    6.3059    2.8251    0.0000 C   0  0  0  0  0  0  0  0  0  0  0  0
    7.0203    3.2376    0.0000 C   0  0  0  0  0  0  0  0  0  0  0  0
    7.7348    2.8251    0.0000 C   0  0  0  0  0  0  0  0  0  0  0  0
    8.4493    3.2376    0.0000 C   0  0  0  0  0  0  0  0  0  0  0  0
    9.1637    2.8251    0.0000 O   0  0  0  0  0  0  0  0  0  0  0  0
    9.8782    3.2376    0.0000 C   0  0  0  0  0  0  0  0  0  0  0  0
    9.8782    4.0626    0.0000 O   0  0  0  0  0  0  0  0  0  0  0  0
   10.5927    2.8251    0.0000 C   0  0  0  0  0  0  0  0  0  0  0  0
   11.3072    3.2376    0.0000 S   0  0  0  0  0  0  0  0  0  0  0  0
    4.5749    3.9521    0.0000 H   0  0  0  0  0  0  0  0  0  0  0  0
    3.4480    3.6501    0.0000 H   0  0  0  0  0  0  0  0  0  0  0  0
    3.7499    2.5232    0.0000 H   0  0  0  0  0  0  0  0  0  0  0  0
    4.1624    2.4126    0.0000 H   0  0  0  0  0  0  0  0  0  0  0  0
    4.2935    1.4168    0.0000 H   0  0  0  0  0  0  0  0  0  0  0  0
    5.2894    1.2857    0.0000 H   0  0  0  0  0  0  0  0  0  0  0  0
    5.6738    2.2137    0.0000 H   0  0  0  0  0  0  0  0  0  0  0  0
    5.9616    3.9749    0.0000 H   0  0  0  0  0  0  0  0  0  0  0  0
    5.2211    3.9749    0.0000 H   0  0  0  0  0  0  0  0  0  0  0  0
    6.8026    2.1665    0.0000 H   0  0  0  0  0  0  0  0  0  0  0  0
    6.3059    3.6501    0.0000 H   0  0  0  0  0  0  0  0  0  0  0  0
    7.6523    3.7679    0.0000 H   0  0  0  0  0  0  0  0  0  0  0  0
    7.1636    4.0501    0.0000 H   0  0  0  0  0  0  0  0  0  0  0  0
    7.3645    2.0879    0.0000 H   0  0  0  0  0  0  0  0  0  0  0  0
    8.1051    2.0879    0.0000 H   0  0  0  0  0  0  0  0  0  0  0  0
    9.1723    3.6349    0.0000 H   0  0  0  0  0  0  0  0  0  0  0  0
    8.4842    4.0619    0.0000 H   0  0  0  0  0  0  0  0  0  0  0  0
   10.2224    2.0879    0.0000 H   0  0  0  0  0  0  0  0  0  0  0  0
   10.9629    2.0879    0.0000 H   0  0  0  0  0  0  0  0  0  0  0  0
   12.0216    2.8251    0.0000 H   0  0  0  0  0  0  0  0  0  0  0  0
  1  2  1  0  0  0  0
  2  3  1  0  0  0  0
  2  4  1  0  0  0  0
  4  5  1  0  0  0  0
  5  6  1  0  0  0  0
  6  7  1  0  0  0  0
  7  8  1  0  0  0  0
  8  9  1  0  0  0  0
  9 10  1  0  0  0  0
 10 11  2  0  0  0  0
 10 12  1  0  0  0  0
 12 13  1  0  0  0  0
  1 14  1  0  0  0  0
  1 15  1  0  0  0  0
  1 16  1  0  0  0  0
  2 17  1  0  0  0  0
  3 18  1  0  0  0  0
  3 19  1  0  0  0  0
  3 20  1  0  0  0  0
  4 21  1  0  0  0  0
  4 22  1  0  0  0  0
  5 23  1  0  0  0  0
  5 24  1  0  0  0  0
  6 25  1  0  0  0  0
  6 26  1  0  0  0  0
  7 27  1  0  0  0  0
  7 28  1  0  0  0  0
  8 29  1  0  0  0  0
  8 30  1  0  0  0  0
 12 31  1  0  0  0  0
 12 32  1  0  0  0  0
 13 33  1  0  0  0  0
M  END
>  <InChIKey>
InChI=1S/C10H20O2S/c1-9(2)6-4-3-5-7-12-10(11)8-13/h9,13H,3-8H2,1-2H3

>  <UN GHS>
Non-irritant

>  <CASRN>
25103-09-7

> <Outcome>
0

>  <Index>
2767

>  <StandardizerResult>
Clear Stereo (ID: ClearStereo)
Wedge Clean (ID: WedgeClean)
Mesomerize (ID: Mesomerize)
Tautomerize (ID: Tautomerize)
Add Explicit Hydrogens (ID: AddExplicitH)
Neutralize (ID: Neutralize)
Clean 2D (ID: Clean2D)

> <knn Distance>
3.16227769851685

> <CpId>
2767

$$$$
2795
  Mrv1532301301811342D          

 64 63  0  0  0  0            999 V2000
   -2.9129    3.2724    0.0000 C   0  0  0  0  0  0  0  0  0  0  0  0
   -2.1984    2.8599    0.0000 C   0  0  0  0  0  0  0  0  0  0  0  0
   -1.4839    3.2724    0.0000 C   0  0  0  0  0  0  0  0  0  0  0  0
   -0.7695    2.8599    0.0000 C   0  0  0  0  0  0  0  0  0  0  0  0
   -0.0550    3.2724    0.0000 C   0  0  0  0  0  0  0  0  0  0  0  0
    0.6595    2.8599    0.0000 C   0  0  0  0  0  0  0  0  0  0  0  0
    1.3740    3.2724    0.0000 C   0  0  0  0  0  0  0  0  0  0  0  0
    1.3740    4.0974    0.0000 O   0  0  0  0  0  0  0  0  0  0  0  0
    2.0884    2.8599    0.0000 C   0  0  0  0  0  0  0  0  0  0  0  0
    2.8029    3.2724    0.0000 C   0  0  0  0  0  0  0  0  0  0  0  0
    3.5174    2.8599    0.0000 C   0  0  0  0  0  0  0  0  0  0  0  0
    4.2318    3.2724    0.0000 C   0  0  0  0  0  0  0  0  0  0  0  0
    4.9463    2.8599    0.0000 C   0  0  0  0  0  0  0  0  0  0  0  0
    5.6608    3.2724    0.0000 C   0  0  0  0  0  0  0  0  0  0  0  0
    6.3753    2.8599    0.0000 C   0  0  0  0  0  0  0  0  0  0  0  0
    7.0897    3.2724    0.0000 C   0  0  0  0  0  0  0  0  0  0  0  0
    7.8042    2.8599    0.0000 C   0  0  0  0  0  0  0  0  0  0  0  0
    8.5187    3.2724    0.0000 C   0  0  0  0  0  0  0  0  0  0  0  0
    9.2331    2.8599    0.0000 C   0  0  0  0  0  0  0  0  0  0  0  0
    9.2331    2.0349    0.0000 O   0  0  0  0  0  0  0  0  0  0  0  0
    9.9476    3.2724    0.0000 O   0  0  0  0  0  0  0  0  0  0  0  0
   10.6621    2.8599    0.0000 C   0  0  0  0  0  0  0  0  0  0  0  0
   11.3766    3.2724    0.0000 C   0  0  0  0  0  0  0  0  0  0  0  0
   10.6621    2.0349    0.0000 C   0  0  0  0  0  0  0  0  0  0  0  0
   -2.5004    3.9869    0.0000 H   0  0  0  0  0  0  0  0  0  0  0  0
   -3.6273    3.6849    0.0000 H   0  0  0  0  0  0  0  0  0  0  0  0
   -3.3254    2.5579    0.0000 H   0  0  0  0  0  0  0  0  0  0  0  0
   -2.5687    2.1227    0.0000 H   0  0  0  0  0  0  0  0  0  0  0  0
   -1.8281    2.1227    0.0000 H   0  0  0  0  0  0  0  0  0  0  0  0
   -1.1137    4.0096    0.0000 H   0  0  0  0  0  0  0  0  0  0  0  0
   -1.8542    4.0096    0.0000 H   0  0  0  0  0  0  0  0  0  0  0  0
   -1.1397    2.1227    0.0000 H   0  0  0  0  0  0  0  0  0  0  0  0
   -0.3992    2.1227    0.0000 H   0  0  0  0  0  0  0  0  0  0  0  0
    0.3153    4.0096    0.0000 H   0  0  0  0  0  0  0  0  0  0  0  0
   -0.4252    4.0096    0.0000 H   0  0  0  0  0  0  0  0  0  0  0  0
    0.2892    2.1227    0.0000 H   0  0  0  0  0  0  0  0  0  0  0  0
    1.0298    2.1227    0.0000 H   0  0  0  0  0  0  0  0  0  0  0  0
    0.6595    3.6849    0.0000 H   0  0  0  0  0  0  0  0  0  0  0  0
    1.7865    4.8119    0.0000 H   0  0  0  0  0  0  0  0  0  0  0  0
    1.7182    2.1227    0.0000 H   0  0  0  0  0  0  0  0  0  0  0  0
    2.4587    2.1227    0.0000 H   0  0  0  0  0  0  0  0  0  0  0  0
    2.8029    4.0974    0.0000 H   0  0  0  0  0  0  0  0  0  0  0  0
    3.5174    2.0349    0.0000 H   0  0  0  0  0  0  0  0  0  0  0  0
    4.6021    4.0096    0.0000 H   0  0  0  0  0  0  0  0  0  0  0  0
    3.8616    4.0096    0.0000 H   0  0  0  0  0  0  0  0  0  0  0  0
    4.5761    2.1227    0.0000 H   0  0  0  0  0  0  0  0  0  0  0  0
    5.3166    2.1227    0.0000 H   0  0  0  0  0  0  0  0  0  0  0  0
    6.0310    4.0096    0.0000 H   0  0  0  0  0  0  0  0  0  0  0  0
    5.2905    4.0096    0.0000 H   0  0  0  0  0  0  0  0  0  0  0  0
    6.0050    2.1227    0.0000 H   0  0  0  0  0  0  0  0  0  0  0  0
    6.7455    2.1227    0.0000 H   0  0  0  0  0  0  0  0  0  0  0  0
    7.4600    4.0096    0.0000 H   0  0  0  0  0  0  0  0  0  0  0  0
    6.7195    4.0096    0.0000 H   0  0  0  0  0  0  0  0  0  0  0  0
    7.4339    2.1227    0.0000 H   0  0  0  0  0  0  0  0  0  0  0  0
    8.1745    2.1227    0.0000 H   0  0  0  0  0  0  0  0  0  0  0  0
    8.8889    4.0096    0.0000 H   0  0  0  0  0  0  0  0  0  0  0  0
    8.1484    4.0096    0.0000 H   0  0  0  0  0  0  0  0  0  0  0  0
   10.6621    3.6849    0.0000 H   0  0  0  0  0  0  0  0  0  0  0  0
   11.5901    2.4755    0.0000 H   0  0  0  0  0  0  0  0  0  0  0  0
   12.2016    3.2724    0.0000 H   0  0  0  0  0  0  0  0  0  0  0  0
   11.5901    4.0693    0.0000 H   0  0  0  0  0  0  0  0  0  0  0  0
    9.8371    2.0349    0.0000 H   0  0  0  0  0  0  0  0  0  0  0  0
   10.6621    1.2099    0.0000 H   0  0  0  0  0  0  0  0  0  0  0  0
   11.4871    2.0349    0.0000 H   0  0  0  0  0  0  0  0  0  0  0  0
  1  2  1  0  0  0  0
  2  3  1  0  0  0  0
  3  4  1  0  0  0  0
  4  5  1  0  0  0  0
  5  6  1  0  0  0  0
  6  7  1  0  0  0  0
  7  8  1  0  0  0  0
  7  9  1  0  0  0  0
 10  9  1  4  0  0  0
 10 11  2  0  0  0  0
 11 12  1  0  0  0  0
 12 13  1  0  0  0  0
 13 14  1  0  0  0  0
 14 15  1  0  0  0  0
 15 16  1  0  0  0  0
 16 17  1  0  0  0  0
 17 18  1  0  0  0  0
 18 19  1  0  0  0  0
 19 20  2  0  0  0  0
 19 21  1  0  0  0  0
 21 22  1  0  0  0  0
 22 23  1  0  0  0  0
 22 24  1  0  0  0  0
  1 25  1  0  0  0  0
  1 26  1  0  0  0  0
  1 27  1  0  0  0  0
  2 28  1  0  0  0  0
  2 29  1  0  0  0  0
  3 30  1  0  0  0  0
  3 31  1  0  0  0  0
  4 32  1  0  0  0  0
  4 33  1  0  0  0  0
  5 34  1  0  0  0  0
  5 35  1  0  0  0  0
  6 36  1  0  0  0  0
  6 37  1  0  0  0  0
  7 38  1  0  0  0  0
  8 39  1  0  0  0  0
  9 40  1  0  0  0  0
  9 41  1  0  0  0  0
 10 42  1  0  0  0  0
 11 43  1  0  0  0  0
 12 44  1  0  0  0  0
 12 45  1  0  0  0  0
 13 46  1  0  0  0  0
 13 47  1  0  0  0  0
 14 48  1  0  0  0  0
 14 49  1  0  0  0  0
 15 50  1  0  0  0  0
 15 51  1  0  0  0  0
 16 52  1  0  0  0  0
 16 53  1  0  0  0  0
 17 54  1  0  0  0  0
 17 55  1  0  0  0  0
 18 56  1  0  0  0  0
 18 57  1  0  0  0  0
 22 58  1  0  0  0  0
 23 59  1  0  0  0  0
 23 60  1  0  0  0  0
 23 61  1  0  0  0  0
 24 62  1  0  0  0  0
 24 63  1  0  0  0  0
 24 64  1  0  0  0  0
M  END
>  <InChIKey>
InChI=1S/C21H40O3/c1-4-5-6-13-16-20(22)17-14-11-9-7-8-10-12-15-18-21(23)24-19(2)3/h11,14,19-20,22H,4-10,12-13,15-18H2,1-3H3

>  <CASRN>
71685-99-9

> <Outcome>
0

>  <Index>
2795

>  <StandardizerResult>
Clear Stereo (ID: ClearStereo)
Wedge Clean (ID: WedgeClean)
Mesomerize (ID: Mesomerize)
Tautomerize (ID: Tautomerize)
Add Explicit Hydrogens (ID: AddExplicitH)
Neutralize (ID: Neutralize)
Clean 2D (ID: Clean2D)

> <knn Distance>
3.16227769851685

> <CpId>
2795

$$$$
2897
  Mrv1532301301811342D          

 39 41  0  0  0  0            999 V2000
    1.4106   -4.9183    0.0000 C   0  0  0  0  0  0  0  0  0  0  0  0
    1.4106   -4.0933    0.0000 C   0  0  0  0  0  0  0  0  0  0  0  0
    0.6961   -3.6808    0.0000 O   0  0  0  0  0  0  0  0  0  0  0  0
    2.1251   -3.6808    0.0000 O   0  0  0  0  0  0  0  0  0  0  0  0
    2.1251   -2.8558    0.0000 C   0  0  0  0  0  0  0  0  0  0  0  0
    1.4106   -2.4433    0.0000 C   0  0  0  0  0  0  0  0  0  0  0  0
    1.4106   -1.6183    0.0000 C   0  0  0  0  0  0  0  0  0  0  0  0
    2.1251   -1.2058    0.0000 C   0  0  0  0  0  0  0  0  0  0  0  0
    2.8396   -1.6183    0.0000 C   0  0  0  0  0  0  0  0  0  0  0  0
    3.5540   -1.2058    0.0000 C   0  0  0  0  0  0  0  0  0  0  0  0
    3.5540   -0.3808    0.0000 O   0  0  0  0  0  0  0  0  0  0  0  0
    4.2685   -1.6183    0.0000 C   0  0  0  0  0  0  0  0  0  0  0  0
    4.9830   -1.2058    0.0000 C   0  0  0  0  0  0  0  0  0  0  0  0
    5.6974   -1.6183    0.0000 C   0  0  0  0  0  0  0  0  0  0  0  0
    5.6974   -2.4433    0.0000 C   0  0  0  0  0  0  0  0  0  0  0  0
    4.9830   -2.8558    0.0000 C   0  0  0  0  0  0  0  0  0  0  0  0
    4.9830   -3.6808    0.0000 O   0  0  0  0  0  0  0  0  0  0  0  0
    5.6974   -4.0933    0.0000 C   0  0  0  0  0  0  0  0  0  0  0  0
    6.4119   -3.6808    0.0000 C   0  0  0  0  0  0  0  0  0  0  0  0
    5.6974   -4.9183    0.0000 O   0  0  0  0  0  0  0  0  0  0  0  0
    4.2685   -2.4433    0.0000 C   0  0  0  0  0  0  0  0  0  0  0  0
    3.5540   -2.8558    0.0000 C   0  0  0  0  0  0  0  0  0  0  0  0
    3.5540   -3.6808    0.0000 O   0  0  0  0  0  0  0  0  0  0  0  0
    2.8396   -2.4433    0.0000 C   0  0  0  0  0  0  0  0  0  0  0  0
    6.4119   -1.2058    0.0000 C   0  0  0  0  0  0  0  0  0  0  0  0
    6.4119   -0.3808    0.0000 O   0  0  0  0  0  0  0  0  0  0  0  0
    7.1264   -1.6183    0.0000 O   0  0  0  0  0  0  0  0  0  0  0  0
    0.5856   -4.9183    0.0000 H   0  0  0  0  0  0  0  0  0  0  0  0
    1.4106   -5.7433    0.0000 H   0  0  0  0  0  0  0  0  0  0  0  0
    2.2356   -4.9183    0.0000 H   0  0  0  0  0  0  0  0  0  0  0  0
    0.6961   -2.8558    0.0000 H   0  0  0  0  0  0  0  0  0  0  0  0
    0.6961   -1.2058    0.0000 H   0  0  0  0  0  0  0  0  0  0  0  0
    2.1251   -0.3808    0.0000 H   0  0  0  0  0  0  0  0  0  0  0  0
    4.9830   -0.3808    0.0000 H   0  0  0  0  0  0  0  0  0  0  0  0
    6.4119   -2.8558    0.0000 H   0  0  0  0  0  0  0  0  0  0  0  0
    6.4119   -4.5058    0.0000 H   0  0  0  0  0  0  0  0  0  0  0  0
    7.1264   -4.0933    0.0000 H   0  0  0  0  0  0  0  0  0  0  0  0
    7.1264   -3.2683    0.0000 H   0  0  0  0  0  0  0  0  0  0  0  0
    7.1264    0.0317    0.0000 H   0  0  0  0  0  0  0  0  0  0  0  0
  1  2  1  0  0  0  0
  2  3  2  0  0  0  0
  2  4  1  0  0  0  0
  4  5  1  0  0  0  0
  5  6  4  0  0  0  0
  6  7  4  0  0  0  0
  7  8  4  0  0  0  0
  8  9  4  0  0  0  0
  9 10  1  0  0  0  0
 10 11  2  0  0  0  0
 10 12  1  0  0  0  0
 12 13  4  0  0  0  0
 13 14  4  0  0  0  0
 14 15  4  0  0  0  0
 15 16  4  0  0  0  0
 16 17  1  0  0  0  0
 17 18  1  0  0  0  0
 18 19  1  0  0  0  0
 18 20  2  0  0  0  0
 16 21  4  0  0  0  0
 12 21  4  0  0  0  0
 21 22  1  0  0  0  0
 22 23  2  0  0  0  0
 22 24  1  0  0  0  0
  5 24  4  0  0  0  0
  9 24  4  0  0  0  0
 14 25  1  0  0  0  0
 25 26  1  0  0  0  0
 25 27  2  0  0  0  0
  1 28  1  0  0  0  0
  1 29  1  0  0  0  0
  1 30  1  0  0  0  0
  6 31  1  0  0  0  0
  7 32  1  0  0  0  0
  8 33  1  0  0  0  0
 13 34  1  0  0  0  0
 15 35  1  0  0  0  0
 19 36  1  0  0  0  0
 19 37  1  0  0  0  0
 19 38  1  0  0  0  0
 26 39  1  0  0  0  0
M  END
>  <InChIKey>
InChI=1S/C19H12O8/c1-8(20)26-13-5-3-4-11-15(13)18(23)16-12(17(11)22)6-10(19(24)25)7-14(16)27-9(2)21/h3-7H,1-2H3,(H,24,25)

>  <CASRN>
13739-02-1

> <Outcome>
0

>  <Index>
2897

>  <StandardizerResult>
Dearomatize (ID: Dearomatize)
Clear Stereo (ID: ClearStereo)
Wedge Clean (ID: WedgeClean)
Mesomerize (ID: Mesomerize)
Tautomerize (ID: Tautomerize)
Aromatize (ID: Aromatize)
Add Explicit Hydrogens (ID: AddExplicitH)
Neutralize (ID: Neutralize)
Clean 2D (ID: Clean2D)

> <knn Distance>
3.16227769851685

> <CpId>
2897

$$$$
2933
  Mrv1532301301811342D          

 11 10  0  0  0  0            999 V2000
    2.0625   -0.7145    0.0000 N   0  0  0  0  0  0  0  0  0  0  0  0
    1.2375   -0.7145    0.0000 C   0  0  0  0  0  0  0  0  0  0  0  0
    0.8250   -0.0000    0.0000 C   0  0  0  0  0  0  0  0  0  0  0  0
    0.0000   -0.0000    0.0000 S   0  0  0  0  0  0  0  0  0  0  0  0
    2.4750   -1.4290    0.0000 H   0  0  0  0  0  0  0  0  0  0  0  0
    2.4750   -0.0000    0.0000 H   0  0  0  0  0  0  0  0  0  0  0  0
    0.5482   -1.1678    0.0000 H   0  0  0  0  0  0  0  0  0  0  0  0
    1.1895   -1.5381    0.0000 H   0  0  0  0  0  0  0  0  0  0  0  0
    1.5143    0.4533    0.0000 H   0  0  0  0  0  0  0  0  0  0  0  0
    0.8730    0.8236    0.0000 H   0  0  0  0  0  0  0  0  0  0  0  0
   -0.4125    0.7145    0.0000 H   0  0  0  0  0  0  0  0  0  0  0  0
  1  2  1  0  0  0  0
  2  3  1  0  0  0  0
  3  4  1  0  0  0  0
  1  5  1  0  0  0  0
  1  6  1  0  0  0  0
  2  7  1  0  0  0  0
  2  8  1  0  0  0  0
  3  9  1  0  0  0  0
  3 10  1  0  0  0  0
  4 11  1  0  0  0  0
M  END
>  <InChIKey>
InChI=1S/C2H7NS/c3-1-2-4/h4H,1-3H2

>  <CASRN>
60-23-1

> <Outcome>
0

>  <Index>
2933

>  <StandardizerResult>
Clear Stereo (ID: ClearStereo)
Wedge Clean (ID: WedgeClean)
Mesomerize (ID: Mesomerize)
Tautomerize (ID: Tautomerize)
Add Explicit Hydrogens (ID: AddExplicitH)
Neutralize (ID: Neutralize)
Clean 2D (ID: Clean2D)

> <knn Distance>
3.16227769851685

> <CpId>
2933

$$$$
3062
  Mrv1532301301811342D          

 55 55  0  0  0  0            999 V2000
    3.5724   -8.6625    0.0000 C   0  0  0  0  0  0  0  0  0  0  0  0
    4.2868   -9.0750    0.0000 C   0  0  0  0  0  0  0  0  0  0  0  0
    5.0013   -8.6625    0.0000 C   0  0  0  0  0  0  0  0  0  0  0  0
    5.7158   -9.0750    0.0000 C   0  0  0  0  0  0  0  0  0  0  0  0
    6.4302   -8.6625    0.0000 C   0  0  0  0  0  0  0  0  0  0  0  0
    7.1447   -9.0750    0.0000 C   0  0  0  0  0  0  0  0  0  0  0  0
    7.8592   -8.6625    0.0000 C   0  0  0  0  0  0  0  0  0  0  0  0
    8.5737   -9.0750    0.0000 C   0  0  0  0  0  0  0  0  0  0  0  0
    9.2881   -8.6625    0.0000 C   0  0  0  0  0  0  0  0  0  0  0  0
   10.0026   -9.0750    0.0000 C   0  0  0  0  0  0  0  0  0  0  0  0
   10.7171   -8.6625    0.0000 C   0  0  0  0  0  0  0  0  0  0  0  0
   11.4315   -9.0750    0.0000 C   0  0  0  0  0  0  0  0  0  0  0  0
   12.1460   -8.6625    0.0000 C   0  0  0  0  0  0  0  0  0  0  0  0
   12.8605   -9.0750    0.0000 O   0  0  0  0  0  0  0  0  0  0  0  0
   13.5750   -8.6625    0.0000 C   0  0  0  0  0  0  0  0  0  0  0  0
   13.5750   -7.8375    0.0000 O   0  0  0  0  0  0  0  0  0  0  0  0
   14.2894   -9.0750    0.0000 C   0  0  0  0  0  0  0  0  0  0  0  0
   15.0039   -8.6625    0.0000 C   0  0  0  0  0  0  0  0  0  0  0  0
   15.7184   -9.0750    0.0000 C   0  0  0  0  0  0  0  0  0  0  0  0
   15.7184   -9.9000    0.0000 C   0  0  0  0  0  0  0  0  0  0  0  0
   15.0039  -10.3125    0.0000 C   0  0  0  0  0  0  0  0  0  0  0  0
   14.2894   -9.9000    0.0000 C   0  0  0  0  0  0  0  0  0  0  0  0
   13.5750  -10.3125    0.0000 O   0  0  0  0  0  0  0  0  0  0  0  0
    3.9849   -7.9480    0.0000 H   0  0  0  0  0  0  0  0  0  0  0  0
    2.8579   -8.2500    0.0000 H   0  0  0  0  0  0  0  0  0  0  0  0
    3.1599   -9.3770    0.0000 H   0  0  0  0  0  0  0  0  0  0  0  0
    3.9166   -9.8122    0.0000 H   0  0  0  0  0  0  0  0  0  0  0  0
    4.6571   -9.8122    0.0000 H   0  0  0  0  0  0  0  0  0  0  0  0
    5.3716   -7.9253    0.0000 H   0  0  0  0  0  0  0  0  0  0  0  0
    4.6310   -7.9253    0.0000 H   0  0  0  0  0  0  0  0  0  0  0  0
    5.3455   -9.8122    0.0000 H   0  0  0  0  0  0  0  0  0  0  0  0
    6.0860   -9.8122    0.0000 H   0  0  0  0  0  0  0  0  0  0  0  0
    6.8005   -7.9253    0.0000 H   0  0  0  0  0  0  0  0  0  0  0  0
    6.0600   -7.9253    0.0000 H   0  0  0  0  0  0  0  0  0  0  0  0
    6.7745   -9.8122    0.0000 H   0  0  0  0  0  0  0  0  0  0  0  0
    7.5150   -9.8122    0.0000 H   0  0  0  0  0  0  0  0  0  0  0  0
    8.2294   -7.9253    0.0000 H   0  0  0  0  0  0  0  0  0  0  0  0
    7.4889   -7.9253    0.0000 H   0  0  0  0  0  0  0  0  0  0  0  0
    8.2034   -9.8122    0.0000 H   0  0  0  0  0  0  0  0  0  0  0  0
    8.9439   -9.8122    0.0000 H   0  0  0  0  0  0  0  0  0  0  0  0
    9.6584   -7.9253    0.0000 H   0  0  0  0  0  0  0  0  0  0  0  0
    8.9179   -7.9253    0.0000 H   0  0  0  0  0  0  0  0  0  0  0  0
    9.6323   -9.8122    0.0000 H   0  0  0  0  0  0  0  0  0  0  0  0
   10.3729   -9.8122    0.0000 H   0  0  0  0  0  0  0  0  0  0  0  0
   11.0873   -7.9253    0.0000 H   0  0  0  0  0  0  0  0  0  0  0  0
   10.3468   -7.9253    0.0000 H   0  0  0  0  0  0  0  0  0  0  0  0
   11.0613   -9.8122    0.0000 H   0  0  0  0  0  0  0  0  0  0  0  0
   11.8018   -9.8122    0.0000 H   0  0  0  0  0  0  0  0  0  0  0  0
   12.5163   -7.9253    0.0000 H   0  0  0  0  0  0  0  0  0  0  0  0
   11.7757   -7.9253    0.0000 H   0  0  0  0  0  0  0  0  0  0  0  0
   15.0039   -7.8375    0.0000 H   0  0  0  0  0  0  0  0  0  0  0  0
   16.4328   -8.6625    0.0000 H   0  0  0  0  0  0  0  0  0  0  0  0
   16.4328  -10.3125    0.0000 H   0  0  0  0  0  0  0  0  0  0  0  0
   15.0039  -11.1375    0.0000 H   0  0  0  0  0  0  0  0  0  0  0  0
   12.8605   -9.9000    0.0000 H   0  0  0  0  0  0  0  0  0  0  0  0
  1  2  1  0  0  0  0
  2  3  1  0  0  0  0
  3  4  1  0  0  0  0
  4  5  1  0  0  0  0
  5  6  1  0  0  0  0
  6  7  1  0  0  0  0
  7  8  1  0  0  0  0
  8  9  1  0  0  0  0
  9 10  1  0  0  0  0
 10 11  1  0  0  0  0
 11 12  1  0  0  0  0
 12 13  1  0  0  0  0
 13 14  1  0  0  0  0
 14 15  1  0  0  0  0
 15 16  2  0  0  0  0
 15 17  1  0  0  0  0
 17 18  4  0  0  0  0
 18 19  4  0  0  0  0
 19 20  4  0  0  0  0
 20 21  4  0  0  0  0
 21 22  4  0  0  0  0
 17 22  4  0  0  0  0
 22 23  1  0  0  0  0
  1 24  1  0  0  0  0
  1 25  1  0  0  0  0
  1 26  1  0  0  0  0
  2 27  1  0  0  0  0
  2 28  1  0  0  0  0
  3 29  1  0  0  0  0
  3 30  1  0  0  0  0
  4 31  1  0  0  0  0
  4 32  1  0  0  0  0
  5 33  1  0  0  0  0
  5 34  1  0  0  0  0
  6 35  1  0  0  0  0
  6 36  1  0  0  0  0
  7 37  1  0  0  0  0
  7 38  1  0  0  0  0
  8 39  1  0  0  0  0
  8 40  1  0  0  0  0
  9 41  1  0  0  0  0
  9 42  1  0  0  0  0
 10 43  1  0  0  0  0
 10 44  1  0  0  0  0
 11 45  1  0  0  0  0
 11 46  1  0  0  0  0
 12 47  1  0  0  0  0
 12 48  1  0  0  0  0
 13 49  1  0  0  0  0
 13 50  1  0  0  0  0
 18 51  1  0  0  0  0
 19 52  1  0  0  0  0
 20 53  1  0  0  0  0
 21 54  1  0  0  0  0
 23 55  1  0  0  0  0
M  END
>  <InChIKey>
InChI=1S/C20H32O3/c1-2-3-4-5-6-7-8-9-10-11-14-17-23-20(22)18-15-12-13-16-19(18)21/h12-13,15-16,21H,2-11,14,17H2,1H3

>  <CASRN>
19666-16-1

> <Outcome>
0

>  <Index>
3062

>  <StandardizerResult>
Dearomatize (ID: Dearomatize)
Clear Stereo (ID: ClearStereo)
Wedge Clean (ID: WedgeClean)
Mesomerize (ID: Mesomerize)
Tautomerize (ID: Tautomerize)
Aromatize (ID: Aromatize)
Add Explicit Hydrogens (ID: AddExplicitH)
Neutralize (ID: Neutralize)
Clean 2D (ID: Clean2D)

> <knn Distance>
3.16227769851685

> <CpId>
3062

$$$$
3131
  Mrv1532301301811342D          

 55 54  0  0  0  0            999 V2000
   -4.1412    2.5507    0.0000 C   0  0  0  0  0  0  0  0  0  0  0  0
   -3.4267    2.1382    0.0000 C   0  0  0  0  0  0  0  0  0  0  0  0
   -2.7122    2.5507    0.0000 C   0  0  0  0  0  0  0  0  0  0  0  0
   -1.9978    2.1382    0.0000 C   0  0  0  0  0  0  0  0  0  0  0  0
   -1.2833    2.5507    0.0000 C   0  0  0  0  0  0  0  0  0  0  0  0
   -0.5688    2.1382    0.0000 C   0  0  0  0  0  0  0  0  0  0  0  0
    0.1456    2.5507    0.0000 C   0  0  0  0  0  0  0  0  0  0  0  0
    0.1456    3.3757    0.0000 O   0  0  0  0  0  0  0  0  0  0  0  0
    0.8601    2.1382    0.0000 C   0  0  0  0  0  0  0  0  0  0  0  0
    1.5746    2.5507    0.0000 C   0  0  0  0  0  0  0  0  0  0  0  0
    2.2890    2.1382    0.0000 C   0  0  0  0  0  0  0  0  0  0  0  0
    3.0035    2.5507    0.0000 C   0  0  0  0  0  0  0  0  0  0  0  0
    3.7180    2.1382    0.0000 C   0  0  0  0  0  0  0  0  0  0  0  0
    4.4325    2.5507    0.0000 C   0  0  0  0  0  0  0  0  0  0  0  0
    5.1469    2.1382    0.0000 C   0  0  0  0  0  0  0  0  0  0  0  0
    5.8614    2.5507    0.0000 C   0  0  0  0  0  0  0  0  0  0  0  0
    6.5759    2.1382    0.0000 C   0  0  0  0  0  0  0  0  0  0  0  0
    7.2903    2.5507    0.0000 C   0  0  0  0  0  0  0  0  0  0  0  0
    8.0048    2.1382    0.0000 C   0  0  0  0  0  0  0  0  0  0  0  0
    8.7193    2.5507    0.0000 O   0  0  0  0  0  0  0  0  0  0  0  0
    8.0048    1.3132    0.0000 O   0  0  0  0  0  0  0  0  0  0  0  0
   -3.7287    3.2652    0.0000 H   0  0  0  0  0  0  0  0  0  0  0  0
   -4.8557    2.9632    0.0000 H   0  0  0  0  0  0  0  0  0  0  0  0
   -4.5537    1.8363    0.0000 H   0  0  0  0  0  0  0  0  0  0  0  0
   -3.7970    1.4010    0.0000 H   0  0  0  0  0  0  0  0  0  0  0  0
   -3.0565    1.4010    0.0000 H   0  0  0  0  0  0  0  0  0  0  0  0
   -2.3420    3.2880    0.0000 H   0  0  0  0  0  0  0  0  0  0  0  0
   -3.0825    3.2880    0.0000 H   0  0  0  0  0  0  0  0  0  0  0  0
   -2.3680    1.4010    0.0000 H   0  0  0  0  0  0  0  0  0  0  0  0
   -1.6275    1.4010    0.0000 H   0  0  0  0  0  0  0  0  0  0  0  0
   -0.9130    3.2880    0.0000 H   0  0  0  0  0  0  0  0  0  0  0  0
   -1.6536    3.2880    0.0000 H   0  0  0  0  0  0  0  0  0  0  0  0
   -0.9391    1.4010    0.0000 H   0  0  0  0  0  0  0  0  0  0  0  0
   -0.1986    1.4010    0.0000 H   0  0  0  0  0  0  0  0  0  0  0  0
   -0.5688    2.9632    0.0000 H   0  0  0  0  0  0  0  0  0  0  0  0
    0.5581    4.0902    0.0000 H   0  0  0  0  0  0  0  0  0  0  0  0
    0.4898    1.4010    0.0000 H   0  0  0  0  0  0  0  0  0  0  0  0
    1.2304    1.4010    0.0000 H   0  0  0  0  0  0  0  0  0  0  0  0
    1.5746    3.3757    0.0000 H   0  0  0  0  0  0  0  0  0  0  0  0
    2.2890    1.3132    0.0000 H   0  0  0  0  0  0  0  0  0  0  0  0
    3.3738    3.2880    0.0000 H   0  0  0  0  0  0  0  0  0  0  0  0
    2.6333    3.2880    0.0000 H   0  0  0  0  0  0  0  0  0  0  0  0
    3.3477    1.4010    0.0000 H   0  0  0  0  0  0  0  0  0  0  0  0
    4.0882    1.4010    0.0000 H   0  0  0  0  0  0  0  0  0  0  0  0
    4.8027    3.2880    0.0000 H   0  0  0  0  0  0  0  0  0  0  0  0
    4.0622    3.2880    0.0000 H   0  0  0  0  0  0  0  0  0  0  0  0
    4.7767    1.4010    0.0000 H   0  0  0  0  0  0  0  0  0  0  0  0
    5.5172    1.4010    0.0000 H   0  0  0  0  0  0  0  0  0  0  0  0
    6.2317    3.2880    0.0000 H   0  0  0  0  0  0  0  0  0  0  0  0
    5.4911    3.2880    0.0000 H   0  0  0  0  0  0  0  0  0  0  0  0
    6.2056    1.4010    0.0000 H   0  0  0  0  0  0  0  0  0  0  0  0
    6.9461    1.4010    0.0000 H   0  0  0  0  0  0  0  0  0  0  0  0
    7.6606    3.2880    0.0000 H   0  0  0  0  0  0  0  0  0  0  0  0
    6.9201    3.2880    0.0000 H   0  0  0  0  0  0  0  0  0  0  0  0
    9.4338    2.1382    0.0000 H   0  0  0  0  0  0  0  0  0  0  0  0
  1  2  1  0  0  0  0
  2  3  1  0  0  0  0
  3  4  1  0  0  0  0
  4  5  1  0  0  0  0
  5  6  1  0  0  0  0
  6  7  1  0  0  0  0
  7  8  1  0  0  0  0
  7  9  1  0  0  0  0
 10  9  1  4  0  0  0
 10 11  2  0  0  0  0
 11 12  1  0  0  0  0
 12 13  1  0  0  0  0
 13 14  1  0  0  0  0
 14 15  1  0  0  0  0
 15 16  1  0  0  0  0
 16 17  1  0  0  0  0
 17 18  1  0  0  0  0
 18 19  1  0  0  0  0
 19 20  1  0  0  0  0
 19 21  2  0  0  0  0
  1 22  1  0  0  0  0
  1 23  1  0  0  0  0
  1 24  1  0  0  0  0
  2 25  1  0  0  0  0
  2 26  1  0  0  0  0
  3 27  1  0  0  0  0
  3 28  1  0  0  0  0
  4 29  1  0  0  0  0
  4 30  1  0  0  0  0
  5 31  1  0  0  0  0
  5 32  1  0  0  0  0
  6 33  1  0  0  0  0
  6 34  1  0  0  0  0
  7 35  1  0  0  0  0
  8 36  1  0  0  0  0
  9 37  1  0  0  0  0
  9 38  1  0  0  0  0
 10 39  1  0  0  0  0
 11 40  1  0  0  0  0
 12 41  1  0  0  0  0
 12 42  1  0  0  0  0
 13 43  1  0  0  0  0
 13 44  1  0  0  0  0
 14 45  1  0  0  0  0
 14 46  1  0  0  0  0
 15 47  1  0  0  0  0
 15 48  1  0  0  0  0
 16 49  1  0  0  0  0
 16 50  1  0  0  0  0
 17 51  1  0  0  0  0
 17 52  1  0  0  0  0
 18 53  1  0  0  0  0
 18 54  1  0  0  0  0
 20 55  1  0  0  0  0
M  END
>  <InChIKey>
InChI=1S/C18H34O3/c1-2-3-4-11-14-17(19)15-12-9-7-5-6-8-10-13-16-18(20)21/h9,12,17,19H,2-8,10-11,13-16H2,1H3,(H,20,21)

>  <CASRN>
141-22-0

> <Outcome>
0

>  <Index>
3131

>  <StandardizerResult>
Clear Stereo (ID: ClearStereo)
Wedge Clean (ID: WedgeClean)
Mesomerize (ID: Mesomerize)
Tautomerize (ID: Tautomerize)
Add Explicit Hydrogens (ID: AddExplicitH)
Neutralize (ID: Neutralize)
Clean 2D (ID: Clean2D)

> <knn Distance>
3.16227769851685

> <CpId>
3131

$$$$
3192
  Mrv1532301301811342D          

 25 26  0  0  0  0            999 V2000
    2.1271   -0.4376    0.0000 N   0  0  0  0  0  0  0  0  0  0  0  0
    2.1271   -1.2626    0.0000 C   0  0  0  0  0  0  0  0  0  0  0  0
    2.8416   -1.6751    0.0000 C   0  0  0  0  0  0  0  0  0  0  0  0
    2.8416   -2.5001    0.0000 C   0  0  0  0  0  0  0  0  0  0  0  0
    2.1271   -2.9126    0.0000 C   0  0  0  0  0  0  0  0  0  0  0  0
    2.1271   -3.7376    0.0000 O   0  0  0  0  0  0  0  0  0  0  0  0
    1.4126   -4.1501    0.0000 C   0  0  0  0  0  0  0  0  0  0  0  0
    1.4126   -4.9751    0.0000 C   0  0  0  0  0  0  0  0  0  0  0  0
    0.6981   -5.3876    0.0000 C   0  0  0  0  0  0  0  0  0  0  0  0
   -0.0163   -4.9751    0.0000 C   0  0  0  0  0  0  0  0  0  0  0  0
   -0.0163   -4.1501    0.0000 C   0  0  0  0  0  0  0  0  0  0  0  0
    0.6981   -3.7376    0.0000 C   0  0  0  0  0  0  0  0  0  0  0  0
    1.4126   -2.5001    0.0000 C   0  0  0  0  0  0  0  0  0  0  0  0
    1.4126   -1.6751    0.0000 C   0  0  0  0  0  0  0  0  0  0  0  0
    2.8416   -0.0251    0.0000 H   0  0  0  0  0  0  0  0  0  0  0  0
    1.4126   -0.0251    0.0000 H   0  0  0  0  0  0  0  0  0  0  0  0
    3.5560   -1.2626    0.0000 H   0  0  0  0  0  0  0  0  0  0  0  0
    3.5560   -2.9126    0.0000 H   0  0  0  0  0  0  0  0  0  0  0  0
    2.1271   -5.3876    0.0000 H   0  0  0  0  0  0  0  0  0  0  0  0
    0.6981   -6.2126    0.0000 H   0  0  0  0  0  0  0  0  0  0  0  0
   -0.7308   -5.3876    0.0000 H   0  0  0  0  0  0  0  0  0  0  0  0
   -0.7308   -3.7376    0.0000 H   0  0  0  0  0  0  0  0  0  0  0  0
    0.6981   -2.9126    0.0000 H   0  0  0  0  0  0  0  0  0  0  0  0
    0.6981   -2.0876    0.0000 H   0  0  0  0  0  0  0  0  0  0  0  0
    1.0001   -0.9607    0.0000 H   0  0  0  0  0  0  0  0  0  0  0  0
  1  2  1  0  0  0  0
  2  3  4  0  0  0  0
  3  4  4  0  0  0  0
  4  5  4  0  0  0  0
  5  6  1  0  0  0  0
  6  7  1  0  0  0  0
  7  8  4  0  0  0  0
  8  9  4  0  0  0  0
  9 10  4  0  0  0  0
 10 11  4  0  0  0  0
 11 12  4  0  0  0  0
  7 12  4  0  0  0  0
  5 13  4  0  0  0  0
 13 14  4  0  0  0  0
  2 14  4  0  0  0  0
  1 15  1  0  0  0  0
  1 16  1  0  0  0  0
  3 17  1  0  0  0  0
  4 18  1  0  0  0  0
  8 19  1  0  0  0  0
  9 20  1  0  0  0  0
 10 21  1  0  0  0  0
 11 22  1  0  0  0  0
 12 23  1  0  0  0  0
 13 24  1  0  0  0  0
 14 25  1  0  0  0  0
M  END
>  <InChIKey>
InChI=1S/C12H11NO/c13-10-6-8-12(9-7-10)14-11-4-2-1-3-5-11/h1-9H,13H2

>  <CASRN>
139-59-3

> <Outcome>
0

>  <Index>
3192

>  <StandardizerResult>
Dearomatize (ID: Dearomatize)
Clear Stereo (ID: ClearStereo)
Wedge Clean (ID: WedgeClean)
Mesomerize (ID: Mesomerize)
Tautomerize (ID: Tautomerize)
Aromatize (ID: Aromatize)
Add Explicit Hydrogens (ID: AddExplicitH)
Neutralize (ID: Neutralize)
Clean 2D (ID: Clean2D)

> <knn Distance>
3.16227769851685

> <CpId>
3192

$$$$
3223
  Mrv1532301301811342D          

 19 19  0  0  0  0            999 V2000
    0.0008    3.3005    0.0000 C   0  0  0  0  0  0  0  0  0  0  0  0
    0.0008    2.4755    0.0000 C   0  0  0  0  0  0  0  0  0  0  0  0
    0.7153    2.0630    0.0000 O   0  0  0  0  0  0  0  0  0  0  0  0
    0.7153    1.2380    0.0000 C   0  0  0  0  0  0  0  0  0  0  0  0
    1.4297    0.8255    0.0000 C   0  0  0  0  0  0  0  0  0  0  0  0
    1.4297    0.0005    0.0000 C   0  0  0  0  0  0  0  0  0  0  0  0
    0.7153   -0.4120    0.0000 C   0  0  0  0  0  0  0  0  0  0  0  0
    0.7153   -1.2370    0.0000 Br  0  0  0  0  0  0  0  0  0  0  0  0
    0.0008    0.0005    0.0000 C   0  0  0  0  0  0  0  0  0  0  0  0
    0.0008    0.8255    0.0000 C   0  0  0  0  0  0  0  0  0  0  0  0
    0.8258    3.3005    0.0000 H   0  0  0  0  0  0  0  0  0  0  0  0
    0.0008    4.1255    0.0000 H   0  0  0  0  0  0  0  0  0  0  0  0
   -0.8242    3.3005    0.0000 H   0  0  0  0  0  0  0  0  0  0  0  0
   -0.8228    2.4275    0.0000 H   0  0  0  0  0  0  0  0  0  0  0  0
   -0.4525    1.7862    0.0000 H   0  0  0  0  0  0  0  0  0  0  0  0
    2.1442    1.2380    0.0000 H   0  0  0  0  0  0  0  0  0  0  0  0
    2.1442   -0.4120    0.0000 H   0  0  0  0  0  0  0  0  0  0  0  0
   -0.7137   -0.4120    0.0000 H   0  0  0  0  0  0  0  0  0  0  0  0
   -0.7137    1.2380    0.0000 H   0  0  0  0  0  0  0  0  0  0  0  0
  1  2  1  0  0  0  0
  2  3  1  0  0  0  0
  3  4  1  0  0  0  0
  4  5  4  0  0  0  0
  5  6  4  0  0  0  0
  6  7  4  0  0  0  0
  7  8  1  0  0  0  0
  7  9  4  0  0  0  0
  9 10  4  0  0  0  0
  4 10  4  0  0  0  0
  1 11  1  0  0  0  0
  1 12  1  0  0  0  0
  1 13  1  0  0  0  0
  2 14  1  0  0  0  0
  2 15  1  0  0  0  0
  5 16  1  0  0  0  0
  6 17  1  0  0  0  0
  9 18  1  0  0  0  0
 10 19  1  0  0  0  0
M  END
>  <InChIKey>
InChI=1S/C8H9BrO/c1-2-10-8-5-3-7(9)4-6-8/h3-6H,2H2,1H3

>  <CASRN>
588-96-5

> <Outcome>
0

>  <Index>
3223

>  <StandardizerResult>
Dearomatize (ID: Dearomatize)
Clear Stereo (ID: ClearStereo)
Wedge Clean (ID: WedgeClean)
Mesomerize (ID: Mesomerize)
Tautomerize (ID: Tautomerize)
Aromatize (ID: Aromatize)
Add Explicit Hydrogens (ID: AddExplicitH)
Neutralize (ID: Neutralize)
Clean 2D (ID: Clean2D)

> <knn Distance>
3.16227769851685

> <CpId>
3223

$$$$
3289
  Mrv1532301301811342D          

 58 57  0  0  0  0            999 V2000
    1.3763    9.0389    0.0000 C   0  0  0  0  0  0  0  0  0  0  0  0
    1.3763    8.2139    0.0000 C   0  0  0  0  0  0  0  0  0  0  0  0
    2.0907    7.8014    0.0000 C   0  0  0  0  0  0  0  0  0  0  0  0
    2.0907    6.9764    0.0000 C   0  0  0  0  0  0  0  0  0  0  0  0
    2.8052    6.5639    0.0000 C   0  0  0  0  0  0  0  0  0  0  0  0
    2.8052    5.7389    0.0000 C   0  0  0  0  0  0  0  0  0  0  0  0
    3.5197    5.3264    0.0000 C   0  0  0  0  0  0  0  0  0  0  0  0
    4.2341    5.7389    0.0000 O   0  0  0  0  0  0  0  0  0  0  0  0
    3.5197    4.5014    0.0000 C   0  0  0  0  0  0  0  0  0  0  0  0
    4.2341    4.0889    0.0000 C   0  0  0  0  0  0  0  0  0  0  0  0
    4.2341    3.2639    0.0000 C   0  0  0  0  0  0  0  0  0  0  0  0
    4.9486    2.8514    0.0000 C   0  0  0  0  0  0  0  0  0  0  0  0
    5.6631    3.2639    0.0000 C   0  0  0  0  0  0  0  0  0  0  0  0
    6.3776    2.8514    0.0000 C   0  0  0  0  0  0  0  0  0  0  0  0
    7.0920    3.2639    0.0000 C   0  0  0  0  0  0  0  0  0  0  0  0
    7.8065    2.8514    0.0000 C   0  0  0  0  0  0  0  0  0  0  0  0
    8.5210    3.2639    0.0000 C   0  0  0  0  0  0  0  0  0  0  0  0
    9.2354    2.8514    0.0000 C   0  0  0  0  0  0  0  0  0  0  0  0
    9.9499    3.2639    0.0000 C   0  0  0  0  0  0  0  0  0  0  0  0
    9.9499    4.0889    0.0000 O   0  0  0  0  0  0  0  0  0  0  0  0
   10.6644    2.8514    0.0000 O   0  0  0  0  0  0  0  0  0  0  0  0
   11.3789    3.2639    0.0000 C   0  0  0  0  0  0  0  0  0  0  0  0
    2.2013    9.0389    0.0000 H   0  0  0  0  0  0  0  0  0  0  0  0
    1.3763    9.8639    0.0000 H   0  0  0  0  0  0  0  0  0  0  0  0
    0.5513    9.0389    0.0000 H   0  0  0  0  0  0  0  0  0  0  0  0
    0.5527    8.1659    0.0000 H   0  0  0  0  0  0  0  0  0  0  0  0
    0.9229    7.5246    0.0000 H   0  0  0  0  0  0  0  0  0  0  0  0
    2.9143    7.8494    0.0000 H   0  0  0  0  0  0  0  0  0  0  0  0
    2.5441    8.4907    0.0000 H   0  0  0  0  0  0  0  0  0  0  0  0
    1.2671    6.9284    0.0000 H   0  0  0  0  0  0  0  0  0  0  0  0
    1.6374    6.2871    0.0000 H   0  0  0  0  0  0  0  0  0  0  0  0
    3.6288    6.6119    0.0000 H   0  0  0  0  0  0  0  0  0  0  0  0
    3.2585    7.2532    0.0000 H   0  0  0  0  0  0  0  0  0  0  0  0
    1.9816    5.6909    0.0000 H   0  0  0  0  0  0  0  0  0  0  0  0
    2.3519    5.0496    0.0000 H   0  0  0  0  0  0  0  0  0  0  0  0
    3.5197    6.1514    0.0000 H   0  0  0  0  0  0  0  0  0  0  0  0
    5.0591    5.7389    0.0000 H   0  0  0  0  0  0  0  0  0  0  0  0
    2.6961    4.4534    0.0000 H   0  0  0  0  0  0  0  0  0  0  0  0
    3.0663    3.8121    0.0000 H   0  0  0  0  0  0  0  0  0  0  0  0
    4.9486    4.5014    0.0000 H   0  0  0  0  0  0  0  0  0  0  0  0
    3.5197    2.8514    0.0000 H   0  0  0  0  0  0  0  0  0  0  0  0
    4.5784    2.1141    0.0000 H   0  0  0  0  0  0  0  0  0  0  0  0
    5.3189    2.1141    0.0000 H   0  0  0  0  0  0  0  0  0  0  0  0
    6.0333    4.0011    0.0000 H   0  0  0  0  0  0  0  0  0  0  0  0
    5.2928    4.0011    0.0000 H   0  0  0  0  0  0  0  0  0  0  0  0
    6.0073    2.1141    0.0000 H   0  0  0  0  0  0  0  0  0  0  0  0
    6.7478    2.1141    0.0000 H   0  0  0  0  0  0  0  0  0  0  0  0
    7.4623    4.0011    0.0000 H   0  0  0  0  0  0  0  0  0  0  0  0
    6.7218    4.0011    0.0000 H   0  0  0  0  0  0  0  0  0  0  0  0
    7.4362    2.1141    0.0000 H   0  0  0  0  0  0  0  0  0  0  0  0
    8.1768    2.1141    0.0000 H   0  0  0  0  0  0  0  0  0  0  0  0
    8.8912    4.0011    0.0000 H   0  0  0  0  0  0  0  0  0  0  0  0
    8.1507    4.0011    0.0000 H   0  0  0  0  0  0  0  0  0  0  0  0
    8.8652    2.1141    0.0000 H   0  0  0  0  0  0  0  0  0  0  0  0
    9.6057    2.1141    0.0000 H   0  0  0  0  0  0  0  0  0  0  0  0
   11.7914    2.5494    0.0000 H   0  0  0  0  0  0  0  0  0  0  0  0
   12.0933    3.6764    0.0000 H   0  0  0  0  0  0  0  0  0  0  0  0
   10.9664    3.9784    0.0000 H   0  0  0  0  0  0  0  0  0  0  0  0
  1  2  1  0  0  0  0
  2  3  1  0  0  0  0
  3  4  1  0  0  0  0
  4  5  1  0  0  0  0
  5  6  1  0  0  0  0
  6  7  1  0  0  0  0
  7  8  1  0  0  0  0
  7  9  1  0  0  0  0
 10  9  1  4  0  0  0
 10 11  2  0  0  0  0
 11 12  1  0  0  0  0
 12 13  1  0  0  0  0
 13 14  1  0  0  0  0
 14 15  1  0  0  0  0
 15 16  1  0  0  0  0
 16 17  1  0  0  0  0
 17 18  1  0  0  0  0
 18 19  1  0  0  0  0
 19 20  2  0  0  0  0
 19 21  1  0  0  0  0
 21 22  1  0  0  0  0
  1 23  1  0  0  0  0
  1 24  1  0  0  0  0
  1 25  1  0  0  0  0
  2 26  1  0  0  0  0
  2 27  1  0  0  0  0
  3 28  1  0  0  0  0
  3 29  1  0  0  0  0
  4 30  1  0  0  0  0
  4 31  1  0  0  0  0
  5 32  1  0  0  0  0
  5 33  1  0  0  0  0
  6 34  1  0  0  0  0
  6 35  1  0  0  0  0
  7 36  1  0  0  0  0
  8 37  1  0  0  0  0
  9 38  1  0  0  0  0
  9 39  1  0  0  0  0
 10 40  1  0  0  0  0
 11 41  1  0  0  0  0
 12 42  1  0  0  0  0
 12 43  1  0  0  0  0
 13 44  1  0  0  0  0
 13 45  1  0  0  0  0
 14 46  1  0  0  0  0
 14 47  1  0  0  0  0
 15 48  1  0  0  0  0
 15 49  1  0  0  0  0
 16 50  1  0  0  0  0
 16 51  1  0  0  0  0
 17 52  1  0  0  0  0
 17 53  1  0  0  0  0
 18 54  1  0  0  0  0
 18 55  1  0  0  0  0
 22 56  1  0  0  0  0
 22 57  1  0  0  0  0
 22 58  1  0  0  0  0
M  END
>  <InChIKey>
InChI=1S/C19H36O3/c1-3-4-5-12-15-18(20)16-13-10-8-6-7-9-11-14-17-19(21)22-2/h10,13,18,20H,3-9,11-12,14-17H2,1-2H3

>  <CASRN>
141-24-2

> <Outcome>
0

>  <Index>
3289

>  <StandardizerResult>
Clear Stereo (ID: ClearStereo)
Wedge Clean (ID: WedgeClean)
Mesomerize (ID: Mesomerize)
Tautomerize (ID: Tautomerize)
Add Explicit Hydrogens (ID: AddExplicitH)
Neutralize (ID: Neutralize)
Clean 2D (ID: Clean2D)

> <knn Distance>
3.16227769851685

> <CpId>
3289

$$$$
3293
  Mrv1532301301811342D          

 62 61  0  0  0  0            999 V2000
    2.6138    9.7538    0.0000 C   0  0  0  0  0  0  0  0  0  0  0  0
    2.6138    8.9288    0.0000 C   0  0  0  0  0  0  0  0  0  0  0  0
    3.3283    8.5163    0.0000 C   0  0  0  0  0  0  0  0  0  0  0  0
    3.3283    7.6913    0.0000 C   0  0  0  0  0  0  0  0  0  0  0  0
    4.0428    7.2788    0.0000 C   0  0  0  0  0  0  0  0  0  0  0  0
    4.0428    6.4538    0.0000 C   0  0  0  0  0  0  0  0  0  0  0  0
    4.7573    6.0413    0.0000 C   0  0  0  0  0  0  0  0  0  0  0  0
    5.4717    6.4538    0.0000 O   0  0  0  0  0  0  0  0  0  0  0  0
    4.7573    5.2163    0.0000 C   0  0  0  0  0  0  0  0  0  0  0  0
    5.4717    4.8038    0.0000 C   0  0  0  0  0  0  0  0  0  0  0  0
    5.4717    3.9788    0.0000 C   0  0  0  0  0  0  0  0  0  0  0  0
    6.1862    3.5663    0.0000 C   0  0  0  0  0  0  0  0  0  0  0  0
    6.9007    3.9788    0.0000 C   0  0  0  0  0  0  0  0  0  0  0  0
    7.6151    3.5663    0.0000 C   0  0  0  0  0  0  0  0  0  0  0  0
    8.3296    3.9788    0.0000 C   0  0  0  0  0  0  0  0  0  0  0  0
    9.0441    3.5663    0.0000 C   0  0  0  0  0  0  0  0  0  0  0  0
    9.7586    3.9788    0.0000 C   0  0  0  0  0  0  0  0  0  0  0  0
   10.4730    3.5663    0.0000 C   0  0  0  0  0  0  0  0  0  0  0  0
   11.1875    3.9788    0.0000 C   0  0  0  0  0  0  0  0  0  0  0  0
   11.1875    4.8038    0.0000 O   0  0  0  0  0  0  0  0  0  0  0  0
   11.9020    3.5663    0.0000 O   0  0  0  0  0  0  0  0  0  0  0  0
   12.6164    3.9788    0.0000 C   0  0  0  0  0  0  0  0  0  0  0  0
   13.3309    3.5663    0.0000 C   0  0  0  0  0  0  0  0  0  0  0  0
   14.0454    3.9788    0.0000 O   0  0  0  0  0  0  0  0  0  0  0  0
    3.4388    9.7538    0.0000 H   0  0  0  0  0  0  0  0  0  0  0  0
    2.6138   10.5788    0.0000 H   0  0  0  0  0  0  0  0  0  0  0  0
    1.7888    9.7538    0.0000 H   0  0  0  0  0  0  0  0  0  0  0  0
    1.7902    8.8808    0.0000 H   0  0  0  0  0  0  0  0  0  0  0  0
    2.1605    8.2395    0.0000 H   0  0  0  0  0  0  0  0  0  0  0  0
    4.1519    8.5643    0.0000 H   0  0  0  0  0  0  0  0  0  0  0  0
    3.7817    9.2056    0.0000 H   0  0  0  0  0  0  0  0  0  0  0  0
    2.5047    7.6433    0.0000 H   0  0  0  0  0  0  0  0  0  0  0  0
    2.8750    7.0020    0.0000 H   0  0  0  0  0  0  0  0  0  0  0  0
    4.8664    7.3268    0.0000 H   0  0  0  0  0  0  0  0  0  0  0  0
    4.4961    7.9681    0.0000 H   0  0  0  0  0  0  0  0  0  0  0  0
    3.2192    6.4058    0.0000 H   0  0  0  0  0  0  0  0  0  0  0  0
    3.5894    5.7645    0.0000 H   0  0  0  0  0  0  0  0  0  0  0  0
    4.7573    6.8663    0.0000 H   0  0  0  0  0  0  0  0  0  0  0  0
    6.2967    6.4538    0.0000 H   0  0  0  0  0  0  0  0  0  0  0  0
    3.9337    5.1683    0.0000 H   0  0  0  0  0  0  0  0  0  0  0  0
    4.3039    4.5270    0.0000 H   0  0  0  0  0  0  0  0  0  0  0  0
    6.1862    5.2163    0.0000 H   0  0  0  0  0  0  0  0  0  0  0  0
    4.7573    3.5663    0.0000 H   0  0  0  0  0  0  0  0  0  0  0  0
    5.8159    2.8291    0.0000 H   0  0  0  0  0  0  0  0  0  0  0  0
    6.5565    2.8291    0.0000 H   0  0  0  0  0  0  0  0  0  0  0  0
    7.2709    4.7161    0.0000 H   0  0  0  0  0  0  0  0  0  0  0  0
    6.5304    4.7161    0.0000 H   0  0  0  0  0  0  0  0  0  0  0  0
    7.2449    2.8291    0.0000 H   0  0  0  0  0  0  0  0  0  0  0  0
    7.9854    2.8291    0.0000 H   0  0  0  0  0  0  0  0  0  0  0  0
    8.6999    4.7161    0.0000 H   0  0  0  0  0  0  0  0  0  0  0  0
    7.9594    4.7161    0.0000 H   0  0  0  0  0  0  0  0  0  0  0  0
    8.6738    2.8291    0.0000 H   0  0  0  0  0  0  0  0  0  0  0  0
    9.4143    2.8291    0.0000 H   0  0  0  0  0  0  0  0  0  0  0  0
   10.1288    4.7161    0.0000 H   0  0  0  0  0  0  0  0  0  0  0  0
    9.3883    4.7161    0.0000 H   0  0  0  0  0  0  0  0  0  0  0  0
   10.1028    2.8291    0.0000 H   0  0  0  0  0  0  0  0  0  0  0  0
   10.8433    2.8291    0.0000 H   0  0  0  0  0  0  0  0  0  0  0  0
   12.9867    4.7161    0.0000 H   0  0  0  0  0  0  0  0  0  0  0  0
   12.2462    4.7161    0.0000 H   0  0  0  0  0  0  0  0  0  0  0  0
   12.9607    2.8291    0.0000 H   0  0  0  0  0  0  0  0  0  0  0  0
   13.7012    2.8291    0.0000 H   0  0  0  0  0  0  0  0  0  0  0  0
   14.7599    3.5663    0.0000 H   0  0  0  0  0  0  0  0  0  0  0  0
  1  2  1  0  0  0  0
  2  3  1  0  0  0  0
  3  4  1  0  0  0  0
  4  5  1  0  0  0  0
  5  6  1  0  0  0  0
  6  7  1  0  0  0  0
  7  8  1  0  0  0  0
  7  9  1  0  0  0  0
 10  9  1  4  0  0  0
 10 11  2  0  0  0  0
 11 12  1  0  0  0  0
 12 13  1  0  0  0  0
 13 14  1  0  0  0  0
 14 15  1  0  0  0  0
 15 16  1  0  0  0  0
 16 17  1  0  0  0  0
 17 18  1  0  0  0  0
 18 19  1  0  0  0  0
 19 20  2  0  0  0  0
 19 21  1  0  0  0  0
 21 22  1  0  0  0  0
 22 23  1  0  0  0  0
 23 24  1  0  0  0  0
  1 25  1  0  0  0  0
  1 26  1  0  0  0  0
  1 27  1  0  0  0  0
  2 28  1  0  0  0  0
  2 29  1  0  0  0  0
  3 30  1  0  0  0  0
  3 31  1  0  0  0  0
  4 32  1  0  0  0  0
  4 33  1  0  0  0  0
  5 34  1  0  0  0  0
  5 35  1  0  0  0  0
  6 36  1  0  0  0  0
  6 37  1  0  0  0  0
  7 38  1  0  0  0  0
  8 39  1  0  0  0  0
  9 40  1  0  0  0  0
  9 41  1  0  0  0  0
 10 42  1  0  0  0  0
 11 43  1  0  0  0  0
 12 44  1  0  0  0  0
 12 45  1  0  0  0  0
 13 46  1  0  0  0  0
 13 47  1  0  0  0  0
 14 48  1  0  0  0  0
 14 49  1  0  0  0  0
 15 50  1  0  0  0  0
 15 51  1  0  0  0  0
 16 52  1  0  0  0  0
 16 53  1  0  0  0  0
 17 54  1  0  0  0  0
 17 55  1  0  0  0  0
 18 56  1  0  0  0  0
 18 57  1  0  0  0  0
 22 58  1  0  0  0  0
 22 59  1  0  0  0  0
 23 60  1  0  0  0  0
 23 61  1  0  0  0  0
 24 62  1  0  0  0  0
M  END
>  <InChIKey>
InChI=1S/C20H38O4/c1-2-3-4-11-14-19(22)15-12-9-7-5-6-8-10-13-16-20(23)24-18-17-21/h9,12,19,21-22H,2-8,10-11,13-18H2,1H3

>  <CASRN>
106-17-2

> <Outcome>
0

>  <Index>
3293

>  <StandardizerResult>
Clear Stereo (ID: ClearStereo)
Wedge Clean (ID: WedgeClean)
Mesomerize (ID: Mesomerize)
Tautomerize (ID: Tautomerize)
Add Explicit Hydrogens (ID: AddExplicitH)
Neutralize (ID: Neutralize)
Clean 2D (ID: Clean2D)

> <knn Distance>
3.16227769851685

> <CpId>
3293

$$$$
3389
  Mrv1532301301811342D          

  9  9  0  0  0  0            999 V2000
    0.5678    1.1143    0.0000 C   0  0  0  0  0  0  0  0  0  0  0  0
    1.2352    0.6294    0.0000 C   0  0  0  0  0  0  0  0  0  0  0  0
    0.9803   -0.1552    0.0000 C   0  0  0  0  0  0  0  0  0  0  0  0
    0.1553   -0.1552    0.0000 O   0  0  0  0  0  0  0  0  0  0  0  0
   -0.0997    0.6294    0.0000 C   0  0  0  0  0  0  0  0  0  0  0  0
    0.5678    1.9393    0.0000 H   0  0  0  0  0  0  0  0  0  0  0  0
    2.0198    0.8843    0.0000 H   0  0  0  0  0  0  0  0  0  0  0  0
    1.4652   -0.8227    0.0000 H   0  0  0  0  0  0  0  0  0  0  0  0
   -0.8843    0.8843    0.0000 H   0  0  0  0  0  0  0  0  0  0  0  0
  1  2  4  0  0  0  0
  2  3  4  0  0  0  0
  3  4  4  0  0  0  0
  4  5  4  0  0  0  0
  1  5  4  0  0  0  0
  1  6  1  0  0  0  0
  2  7  1  0  0  0  0
  3  8  1  0  0  0  0
  5  9  1  0  0  0  0
M  END
>  <InChIKey>
InChI=1S/C4H4O/c1-2-4-5-3-1/h1-4H

>  <UN GHS>
Non-irritant

>  <CASRN>
110-00-9

> <Outcome>
0

>  <Index>
3389

>  <StandardizerResult>
Dearomatize (ID: Dearomatize)
Clear Stereo (ID: ClearStereo)
Wedge Clean (ID: WedgeClean)
Mesomerize (ID: Mesomerize)
Tautomerize (ID: Tautomerize)
Aromatize (ID: Aromatize)
Add Explicit Hydrogens (ID: AddExplicitH)
Neutralize (ID: Neutralize)
Clean 2D (ID: Clean2D)

> <knn Distance>
3.16227769851685

> <CpId>
3389

$$$$
3469
  Mrv1532301301811342D          

 26 27  0  0  0  0            999 V2000
    1.4295   -1.6497    0.0000 Cl  0  0  0  0  0  0  0  0  0  0  0  0
    1.4295   -2.4747    0.0000 C   0  0  0  0  0  0  0  0  0  0  0  0
    2.1440   -2.8872    0.0000 C   0  0  0  0  0  0  0  0  0  0  0  0
    2.1440   -3.7122    0.0000 C   0  0  0  0  0  0  0  0  0  0  0  0
    1.4295   -4.1247    0.0000 C   0  0  0  0  0  0  0  0  0  0  0  0
    1.4295   -4.9497    0.0000 C   0  0  0  0  0  0  0  0  0  0  0  0
    2.1440   -5.3622    0.0000 S   0  0  0  0  0  0  0  0  0  0  0  0
    2.1440   -6.1872    0.0000 C   0  0  0  0  0  0  0  0  0  0  0  0
    2.8585   -6.5997    0.0000 C   0  0  0  0  0  0  0  0  0  0  0  0
    2.8585   -7.4247    0.0000 C   0  0  0  0  0  0  0  0  0  0  0  0
    2.1440   -7.8372    0.0000 C   0  0  0  0  0  0  0  0  0  0  0  0
    2.1440   -8.6622    0.0000 Cl  0  0  0  0  0  0  0  0  0  0  0  0
    1.4295   -7.4247    0.0000 C   0  0  0  0  0  0  0  0  0  0  0  0
    1.4295   -6.5997    0.0000 C   0  0  0  0  0  0  0  0  0  0  0  0
    0.7150   -3.7122    0.0000 C   0  0  0  0  0  0  0  0  0  0  0  0
    0.7150   -2.8872    0.0000 C   0  0  0  0  0  0  0  0  0  0  0  0
    2.8585   -2.4747    0.0000 H   0  0  0  0  0  0  0  0  0  0  0  0
    2.8585   -4.1247    0.0000 H   0  0  0  0  0  0  0  0  0  0  0  0
    0.6059   -4.9976    0.0000 H   0  0  0  0  0  0  0  0  0  0  0  0
    0.9762   -5.6389    0.0000 H   0  0  0  0  0  0  0  0  0  0  0  0
    3.5729   -6.1872    0.0000 H   0  0  0  0  0  0  0  0  0  0  0  0
    3.5729   -7.8372    0.0000 H   0  0  0  0  0  0  0  0  0  0  0  0
    0.7150   -7.8372    0.0000 H   0  0  0  0  0  0  0  0  0  0  0  0
    0.7150   -6.1872    0.0000 H   0  0  0  0  0  0  0  0  0  0  0  0
    0.0006   -4.1247    0.0000 H   0  0  0  0  0  0  0  0  0  0  0  0
    0.0006   -2.4747    0.0000 H   0  0  0  0  0  0  0  0  0  0  0  0
  1  2  1  0  0  0  0
  2  3  4  0  0  0  0
  3  4  4  0  0  0  0
  4  5  4  0  0  0  0
  5  6  1  0  0  0  0
  6  7  1  0  0  0  0
  7  8  1  0  0  0  0
  8  9  4  0  0  0  0
  9 10  4  0  0  0  0
 10 11  4  0  0  0  0
 11 12  1  0  0  0  0
 11 13  4  0  0  0  0
 13 14  4  0  0  0  0
  8 14  4  0  0  0  0
  5 15  4  0  0  0  0
 15 16  4  0  0  0  0
  2 16  4  0  0  0  0
  3 17  1  0  0  0  0
  4 18  1  0  0  0  0
  6 19  1  0  0  0  0
  6 20  1  0  0  0  0
  9 21  1  0  0  0  0
 10 22  1  0  0  0  0
 13 23  1  0  0  0  0
 14 24  1  0  0  0  0
 15 25  1  0  0  0  0
 16 26  1  0  0  0  0
M  END
>  <InChIKey>
InChI=1S/C13H10Cl2S/c14-11-3-1-10(2-4-11)9-16-13-7-5-12(15)6-8-13/h1-8H,9H2

>  <CASRN>
103-17-3

> <Outcome>
0

>  <Index>
3469

>  <StandardizerResult>
Dearomatize (ID: Dearomatize)
Clear Stereo (ID: ClearStereo)
Wedge Clean (ID: WedgeClean)
Mesomerize (ID: Mesomerize)
Tautomerize (ID: Tautomerize)
Aromatize (ID: Aromatize)
Add Explicit Hydrogens (ID: AddExplicitH)
Neutralize (ID: Neutralize)
Clean 2D (ID: Clean2D)

> <knn Distance>
3.16227769851685

> <CpId>
3469

$$$$
3532
  Mrv1532301301811342D          

 23 22  0  0  0  0            999 V2000
    1.0592    1.4165    0.0000 O   0  0  0  0  0  0  0  0  0  0  0  0
    1.7737    1.8290    0.0000 C   0  0  0  0  0  0  0  0  0  0  0  0
    2.4881    1.4165    0.0000 C   0  0  0  0  0  0  0  0  0  0  0  0
    3.2026    1.8290    0.0000 C   0  0  0  0  0  0  0  0  0  0  0  0
    3.9171    1.4165    0.0000 C   0  0  0  0  0  0  0  0  0  0  0  0
    4.6315    1.8290    0.0000 C   0  0  0  0  0  0  0  0  0  0  0  0
    4.6315    2.6540    0.0000 O   0  0  0  0  0  0  0  0  0  0  0  0
    5.3460    1.4165    0.0000 C   0  0  0  0  0  0  0  0  0  0  0  0
    6.0605    1.8290    0.0000 O   0  0  0  0  0  0  0  0  0  0  0  0
    0.3447    1.8290    0.0000 H   0  0  0  0  0  0  0  0  0  0  0  0
    2.1439    2.5663    0.0000 H   0  0  0  0  0  0  0  0  0  0  0  0
    1.4034    2.5663    0.0000 H   0  0  0  0  0  0  0  0  0  0  0  0
    2.1179    0.6793    0.0000 H   0  0  0  0  0  0  0  0  0  0  0  0
    2.8584    0.6793    0.0000 H   0  0  0  0  0  0  0  0  0  0  0  0
    3.5729    2.5663    0.0000 H   0  0  0  0  0  0  0  0  0  0  0  0
    2.8323    2.5663    0.0000 H   0  0  0  0  0  0  0  0  0  0  0  0
    3.5468    0.6793    0.0000 H   0  0  0  0  0  0  0  0  0  0  0  0
    4.2873    0.6793    0.0000 H   0  0  0  0  0  0  0  0  0  0  0  0
    3.9171    2.2415    0.0000 H   0  0  0  0  0  0  0  0  0  0  0  0
    5.0440    3.3685    0.0000 H   0  0  0  0  0  0  0  0  0  0  0  0
    4.9758    0.6793    0.0000 H   0  0  0  0  0  0  0  0  0  0  0  0
    5.7163    0.6793    0.0000 H   0  0  0  0  0  0  0  0  0  0  0  0
    6.7750    1.4165    0.0000 H   0  0  0  0  0  0  0  0  0  0  0  0
  1  2  1  0  0  0  0
  2  3  1  0  0  0  0
  3  4  1  0  0  0  0
  4  5  1  0  0  0  0
  5  6  1  0  0  0  0
  6  7  1  0  0  0  0
  6  8  1  0  0  0  0
  8  9  1  0  0  0  0
  1 10  1  0  0  0  0
  2 11  1  0  0  0  0
  2 12  1  0  0  0  0
  3 13  1  0  0  0  0
  3 14  1  0  0  0  0
  4 15  1  0  0  0  0
  4 16  1  0  0  0  0
  5 17  1  0  0  0  0
  5 18  1  0  0  0  0
  6 19  1  0  0  0  0
  7 20  1  0  0  0  0
  8 21  1  0  0  0  0
  8 22  1  0  0  0  0
  9 23  1  0  0  0  0
M  END
>  <InChIKey>
InChI=1S/C6H14O3/c7-4-2-1-3-6(9)5-8/h6-9H,1-5H2

>  <UN GHS>
Non-irritant

>  <CASRN>
106-69-4

> <Outcome>
0

>  <Index>
3532

>  <StandardizerResult>
Clear Stereo (ID: ClearStereo)
Wedge Clean (ID: WedgeClean)
Mesomerize (ID: Mesomerize)
Tautomerize (ID: Tautomerize)
Add Explicit Hydrogens (ID: AddExplicitH)
Neutralize (ID: Neutralize)
Clean 2D (ID: Clean2D)

> <knn Distance>
3.16227769851685

> <CpId>
3532

$$$$
12
  Mrv1532301301811342D          

108107  0  0  0  0            999 V2000
   20.4386   11.8259    0.0000 C   0  0  0  0  0  0  0  0  0  0  0  0
   19.7241   11.4134    0.0000 C   0  0  0  0  0  0  0  0  0  0  0  0
   19.7241   10.5884    0.0000 C   0  0  0  0  0  0  0  0  0  0  0  0
   19.0097   10.1759    0.0000 C   0  0  0  0  0  0  0  0  0  0  0  0
   19.0097    9.3509    0.0000 C   0  0  0  0  0  0  0  0  0  0  0  0
   18.2952    8.9384    0.0000 C   0  0  0  0  0  0  0  0  0  0  0  0
   18.2952    8.1134    0.0000 C   0  0  0  0  0  0  0  0  0  0  0  0
   17.5807    7.7009    0.0000 C   0  0  0  0  0  0  0  0  0  0  0  0
   17.5807    6.8759    0.0000 C   0  0  0  0  0  0  0  0  0  0  0  0
   16.8662    6.4634    0.0000 C   0  0  0  0  0  0  0  0  0  0  0  0
   16.1518    6.8759    0.0000 C   0  0  0  0  0  0  0  0  0  0  0  0
   15.4373    6.4634    0.0000 C   0  0  0  0  0  0  0  0  0  0  0  0
   14.7228    6.8759    0.0000 C   0  0  0  0  0  0  0  0  0  0  0  0
   14.0084    6.4634    0.0000 C   0  0  0  0  0  0  0  0  0  0  0  0
   13.2939    6.8759    0.0000 C   0  0  0  0  0  0  0  0  0  0  0  0
   12.5794    6.4634    0.0000 C   0  0  0  0  0  0  0  0  0  0  0  0
   11.8649    6.8759    0.0000 C   0  0  0  0  0  0  0  0  0  0  0  0
   11.1505    6.4634    0.0000 C   0  0  0  0  0  0  0  0  0  0  0  0
   10.4360    6.8759    0.0000 O   0  0  0  0  0  0  0  0  0  0  0  0
   11.1505    5.6384    0.0000 O   0  0  0  0  0  0  0  0  0  0  0  0
   18.2952    6.4634    0.0000 C   0  0  0  0  0  0  0  0  0  0  0  0
   19.0097    6.8759    0.0000 C   0  0  0  0  0  0  0  0  0  0  0  0
   19.7241    6.4634    0.0000 C   0  0  0  0  0  0  0  0  0  0  0  0
   20.4386    6.8759    0.0000 C   0  0  0  0  0  0  0  0  0  0  0  0
   21.1531    6.4634    0.0000 C   0  0  0  0  0  0  0  0  0  0  0  0
   21.8675    6.8759    0.0000 C   0  0  0  0  0  0  0  0  0  0  0  0
   22.5820    6.4634    0.0000 C   0  0  0  0  0  0  0  0  0  0  0  0
   23.2965    6.8759    0.0000 C   0  0  0  0  0  0  0  0  0  0  0  0
   24.0109    6.4634    0.0000 C   0  0  0  0  0  0  0  0  0  0  0  0
   24.7254    6.8759    0.0000 O   0  0  0  0  0  0  0  0  0  0  0  0
   24.0109    5.6384    0.0000 O   0  0  0  0  0  0  0  0  0  0  0  0
   18.2952    5.6384    0.0000 C   0  0  0  0  0  0  0  0  0  0  0  0
   19.0097    5.2259    0.0000 C   0  0  0  0  0  0  0  0  0  0  0  0
   19.0097    4.4009    0.0000 C   0  0  0  0  0  0  0  0  0  0  0  0
   19.7241    3.9884    0.0000 C   0  0  0  0  0  0  0  0  0  0  0  0
   19.7241    3.1634    0.0000 C   0  0  0  0  0  0  0  0  0  0  0  0
   20.4386    2.7509    0.0000 C   0  0  0  0  0  0  0  0  0  0  0  0
   20.4386    1.9259    0.0000 C   0  0  0  0  0  0  0  0  0  0  0  0
   21.1531    1.5134    0.0000 C   0  0  0  0  0  0  0  0  0  0  0  0
   21.1531    0.6884    0.0000 C   0  0  0  0  0  0  0  0  0  0  0  0
   20.8511   11.1114    0.0000 H   0  0  0  0  0  0  0  0  0  0  0  0
   21.1531   12.2384    0.0000 H   0  0  0  0  0  0  0  0  0  0  0  0
   20.0261   12.5404    0.0000 H   0  0  0  0  0  0  0  0  0  0  0  0
   19.2708   12.1027    0.0000 H   0  0  0  0  0  0  0  0  0  0  0  0
   18.9005   11.4614    0.0000 H   0  0  0  0  0  0  0  0  0  0  0  0
   20.1775    9.8991    0.0000 H   0  0  0  0  0  0  0  0  0  0  0  0
   20.5477   10.5404    0.0000 H   0  0  0  0  0  0  0  0  0  0  0  0
   18.5563   10.8652    0.0000 H   0  0  0  0  0  0  0  0  0  0  0  0
   18.1860   10.2239    0.0000 H   0  0  0  0  0  0  0  0  0  0  0  0
   19.4630    8.6616    0.0000 H   0  0  0  0  0  0  0  0  0  0  0  0
   19.8333    9.3029    0.0000 H   0  0  0  0  0  0  0  0  0  0  0  0
   17.8418    9.6277    0.0000 H   0  0  0  0  0  0  0  0  0  0  0  0
   17.4716    8.9864    0.0000 H   0  0  0  0  0  0  0  0  0  0  0  0
   18.7485    7.4241    0.0000 H   0  0  0  0  0  0  0  0  0  0  0  0
   19.1188    8.0654    0.0000 H   0  0  0  0  0  0  0  0  0  0  0  0
   17.1274    8.3902    0.0000 H   0  0  0  0  0  0  0  0  0  0  0  0
   16.7571    7.7489    0.0000 H   0  0  0  0  0  0  0  0  0  0  0  0
   16.8662    7.2884    0.0000 H   0  0  0  0  0  0  0  0  0  0  0  0
   16.4960    5.7262    0.0000 H   0  0  0  0  0  0  0  0  0  0  0  0
   17.2365    5.7262    0.0000 H   0  0  0  0  0  0  0  0  0  0  0  0
   16.0085    7.6884    0.0000 H   0  0  0  0  0  0  0  0  0  0  0  0
   15.5198    7.4062    0.0000 H   0  0  0  0  0  0  0  0  0  0  0  0
   15.0670    5.7262    0.0000 H   0  0  0  0  0  0  0  0  0  0  0  0
   15.8076    5.7262    0.0000 H   0  0  0  0  0  0  0  0  0  0  0  0
   14.6879    7.7002    0.0000 H   0  0  0  0  0  0  0  0  0  0  0  0
   13.9998    7.2732    0.0000 H   0  0  0  0  0  0  0  0  0  0  0  0
   13.6381    5.7262    0.0000 H   0  0  0  0  0  0  0  0  0  0  0  0
   14.3786    5.7262    0.0000 H   0  0  0  0  0  0  0  0  0  0  0  0
   13.1561    7.6893    0.0000 H   0  0  0  0  0  0  0  0  0  0  0  0
   12.6642    7.4089    0.0000 H   0  0  0  0  0  0  0  0  0  0  0  0
   12.2092    5.7262    0.0000 H   0  0  0  0  0  0  0  0  0  0  0  0
   12.9497    5.7262    0.0000 H   0  0  0  0  0  0  0  0  0  0  0  0
   11.8294    7.7001    0.0000 H   0  0  0  0  0  0  0  0  0  0  0  0
   11.1418    7.2729    0.0000 H   0  0  0  0  0  0  0  0  0  0  0  0
    9.6110    6.8805    0.0000 H   0  0  0  0  0  0  0  0  0  0  0  0
   18.2952    7.2884    0.0000 H   0  0  0  0  0  0  0  0  0  0  0  0
   19.6156    7.4358    0.0000 H   0  0  0  0  0  0  0  0  0  0  0  0
   19.0097    6.0509    0.0000 H   0  0  0  0  0  0  0  0  0  0  0  0
   19.8674    5.6509    0.0000 H   0  0  0  0  0  0  0  0  0  0  0  0
   20.3561    5.9331    0.0000 H   0  0  0  0  0  0  0  0  0  0  0  0
   20.8089    7.6132    0.0000 H   0  0  0  0  0  0  0  0  0  0  0  0
   20.0683    7.6132    0.0000 H   0  0  0  0  0  0  0  0  0  0  0  0
   21.1880    5.6392    0.0000 H   0  0  0  0  0  0  0  0  0  0  0  0
   21.8761    6.0661    0.0000 H   0  0  0  0  0  0  0  0  0  0  0  0
   22.2378    7.6132    0.0000 H   0  0  0  0  0  0  0  0  0  0  0  0
   21.4973    7.6132    0.0000 H   0  0  0  0  0  0  0  0  0  0  0  0
   22.7198    5.6500    0.0000 H   0  0  0  0  0  0  0  0  0  0  0  0
   23.2117    5.9304    0.0000 H   0  0  0  0  0  0  0  0  0  0  0  0
   23.6667    7.6132    0.0000 H   0  0  0  0  0  0  0  0  0  0  0  0
   22.9262    7.6132    0.0000 H   0  0  0  0  0  0  0  0  0  0  0  0
   25.4399    6.4634    0.0000 H   0  0  0  0  0  0  0  0  0  0  0  0
   17.4716    5.5904    0.0000 H   0  0  0  0  0  0  0  0  0  0  0  0
   17.8418    4.9491    0.0000 H   0  0  0  0  0  0  0  0  0  0  0  0
   18.2952    4.8134    0.0000 H   0  0  0  0  0  0  0  0  0  0  0  0
   19.7107    4.7909    0.0000 H   0  0  0  0  0  0  0  0  0  0  0  0
   18.5972    3.6864    0.0000 H   0  0  0  0  0  0  0  0  0  0  0  0
   20.5491    3.9953    0.0000 H   0  0  0  0  0  0  0  0  0  0  0  0
   18.9005    3.1154    0.0000 H   0  0  0  0  0  0  0  0  0  0  0  0
   19.2708    2.4741    0.0000 H   0  0  0  0  0  0  0  0  0  0  0  0
   21.2622    2.7989    0.0000 H   0  0  0  0  0  0  0  0  0  0  0  0
   20.8919    3.4402    0.0000 H   0  0  0  0  0  0  0  0  0  0  0  0
   19.6150    1.8779    0.0000 H   0  0  0  0  0  0  0  0  0  0  0  0
   19.9852    1.2366    0.0000 H   0  0  0  0  0  0  0  0  0  0  0  0
   21.9767    1.5614    0.0000 H   0  0  0  0  0  0  0  0  0  0  0  0
   21.6064    2.2027    0.0000 H   0  0  0  0  0  0  0  0  0  0  0  0
   20.3281    0.6884    0.0000 H   0  0  0  0  0  0  0  0  0  0  0  0
   21.1531   -0.1366    0.0000 H   0  0  0  0  0  0  0  0  0  0  0  0
   21.9781    0.6884    0.0000 H   0  0  0  0  0  0  0  0  0  0  0  0
  1  2  1  0  0  0  0
  2  3  1  0  0  0  0
  3  4  1  0  0  0  0
  4  5  1  0  0  0  0
  5  6  1  0  0  0  0
  6  7  1  0  0  0  0
  7  8  1  0  0  0  0
  8  9  1  0  0  0  0
  9 10  1  0  0  0  0
 10 11  1  0  0  0  0
 11 12  1  0  0  0  0
 12 13  1  0  0  0  0
 13 14  1  0  0  0  0
 14 15  1  0  0  0  0
 15 16  1  0  0  0  0
 16 17  1  0  0  0  0
 17 18  1  0  0  0  0
 18 19  1  0  0  0  0
 18 20  2  0  0  0  0
  9 21  1  0  0  0  0
 21 22  1  0  0  0  0
 22 23  1  0  0  0  0
 23 24  1  0  0  0  0
 24 25  1  0  0  0  0
 25 26  1  0  0  0  0
 26 27  1  0  0  0  0
 27 28  1  0  0  0  0
 28 29  1  0  0  0  0
 29 30  1  0  0  0  0
 29 31  2  0  0  0  0
 21 32  1  0  0  0  0
 32 33  1  0  0  0  0
 34 33  1  0  0  0  0
 34 35  2  0  0  0  0
 35 36  1  0  0  0  0
 36 37  1  0  0  0  0
 37 38  1  0  0  0  0
 38 39  1  0  0  0  0
 39 40  1  0  0  0  0
  1 41  1  0  0  0  0
  1 42  1  0  0  0  0
  1 43  1  0  0  0  0
  2 44  1  0  0  0  0
  2 45  1  0  0  0  0
  3 46  1  0  0  0  0
  3 47  1  0  0  0  0
  4 48  1  0  0  0  0
  4 49  1  0  0  0  0
  5 50  1  0  0  0  0
  5 51  1  0  0  0  0
  6 52  1  0  0  0  0
  6 53  1  0  0  0  0
  7 54  1  0  0  0  0
  7 55  1  0  0  0  0
  8 56  1  0  0  0  0
  8 57  1  0  0  0  0
  9 58  1  0  0  0  0
 10 59  1  0  0  0  0
 10 60  1  0  0  0  0
 11 61  1  0  0  0  0
 11 62  1  0  0  0  0
 12 63  1  0  0  0  0
 12 64  1  0  0  0  0
 13 65  1  0  0  0  0
 13 66  1  0  0  0  0
 14 67  1  0  0  0  0
 14 68  1  0  0  0  0
 15 69  1  0  0  0  0
 15 70  1  0  0  0  0
 16 71  1  0  0  0  0
 16 72  1  0  0  0  0
 17 73  1  0  0  0  0
 17 74  1  0  0  0  0
 19 75  1  0  0  0  0
 21 76  1  0  0  0  0
 22 77  1  0  0  0  0
 22 78  1  0  0  0  0
 23 79  1  0  0  0  0
 23 80  1  0  0  0  0
 24 81  1  0  0  0  0
 24 82  1  0  0  0  0
 25 83  1  0  0  0  0
 25 84  1  0  0  0  0
 26 85  1  0  0  0  0
 26 86  1  0  0  0  0
 27 87  1  0  0  0  0
 27 88  1  0  0  0  0
 28 89  1  0  0  0  0
 28 90  1  0  0  0  0
 30 91  1  0  0  0  0
 32 92  1  0  0  0  0
 32 93  1  0  0  0  0
 33 94  1  0  0  0  0
 33 95  1  0  0  0  0
 34 96  1  4  0  0  0
 35 97  1  0  0  0  0
 36 98  1  0  0  0  0
 36 99  1  0  0  0  0
 37100  1  0  0  0  0
 37101  1  0  0  0  0
 38102  1  0  0  0  0
 38103  1  0  0  0  0
 39104  1  0  0  0  0
 39105  1  0  0  0  0
 40106  1  0  0  0  0
 40107  1  0  0  0  0
 40108  1  0  0  0  0
M  END
>  <InChIKey>
AMOKUAKXKXBFIW-UHFFFAOYSA-N

>  <UN GHS>
Non-irritant

>  <CASRN>
61788-89-4

> <Outcome>
0

>  <Index>
12

>  <StandardizerResult>
Clear Stereo (ID: ClearStereo)
Wedge Clean (ID: WedgeClean)
Mesomerize (ID: Mesomerize)
Tautomerize (ID: Tautomerize)
Add Explicit Hydrogens (ID: AddExplicitH)
Neutralize (ID: Neutralize)
Clean 2D (ID: Clean2D)

> <knn Distance>
3.31662487983704

> <CpId>
12

$$$$
28
  Mrv1532301301811342D          

 61 60  0  0  0  0            999 V2000
   -3.6022   -0.5219    0.0000 O   0  0  0  0  0  0  0  0  0  0  0  0
   -2.7772   -0.5219    0.0000 C   0  0  0  0  0  0  0  0  0  0  0  0
   -2.3647   -1.2364    0.0000 C   0  0  0  0  0  0  0  0  0  0  0  0
   -1.5397   -1.2364    0.0000 C   0  0  0  0  0  0  0  0  0  0  0  0
   -1.1272   -1.9508    0.0000 O   0  0  0  0  0  0  0  0  0  0  0  0
   -0.3022   -1.9508    0.0000 C   0  0  0  0  0  0  0  0  0  0  0  0
    0.1103   -1.2364    0.0000 C   0  0  0  0  0  0  0  0  0  0  0  0
    0.5228   -0.5219    0.0000 C   0  0  0  0  0  0  0  0  0  0  0  0
    1.3478   -0.5219    0.0000 O   0  0  0  0  0  0  0  0  0  0  0  0
    1.7603   -1.2364    0.0000 C   0  0  0  0  0  0  0  0  0  0  0  0
    2.5853   -1.2364    0.0000 C   0  0  0  0  0  0  0  0  0  0  0  0
    2.9978   -1.9508    0.0000 C   0  0  0  0  0  0  0  0  0  0  0  0
    3.8228   -1.9508    0.0000 O   0  0  0  0  0  0  0  0  0  0  0  0
    0.8248   -1.6489    0.0000 C   0  0  0  0  0  0  0  0  0  0  0  0
    0.8248   -2.4739    0.0000 O   0  0  0  0  0  0  0  0  0  0  0  0
    0.1103   -2.8864    0.0000 C   0  0  0  0  0  0  0  0  0  0  0  0
   -0.6042   -2.4739    0.0000 C   0  0  0  0  0  0  0  0  0  0  0  0
   -1.3187   -2.8864    0.0000 C   0  0  0  0  0  0  0  0  0  0  0  0
   -2.0331   -2.4739    0.0000 O   0  0  0  0  0  0  0  0  0  0  0  0
   -0.6042   -0.8239    0.0000 C   0  0  0  0  0  0  0  0  0  0  0  0
   -0.6042    0.0011    0.0000 O   0  0  0  0  0  0  0  0  0  0  0  0
    0.1103    0.4136    0.0000 C   0  0  0  0  0  0  0  0  0  0  0  0
    0.8248    0.0011    0.0000 C   0  0  0  0  0  0  0  0  0  0  0  0
    1.5392    0.4136    0.0000 C   0  0  0  0  0  0  0  0  0  0  0  0
    2.2537    0.0011    0.0000 O   0  0  0  0  0  0  0  0  0  0  0  0
   -4.0147    0.1926    0.0000 H   0  0  0  0  0  0  0  0  0  0  0  0
   -2.0879   -0.0685    0.0000 H   0  0  0  0  0  0  0  0  0  0  0  0
   -2.7292    0.3017    0.0000 H   0  0  0  0  0  0  0  0  0  0  0  0
   -3.0540   -1.6897    0.0000 H   0  0  0  0  0  0  0  0  0  0  0  0
   -2.4127   -2.0600    0.0000 H   0  0  0  0  0  0  0  0  0  0  0  0
   -0.8504   -0.7830    0.0000 H   0  0  0  0  0  0  0  0  0  0  0  0
   -1.4917   -0.4128    0.0000 H   0  0  0  0  0  0  0  0  0  0  0  0
    0.2281   -2.5828    0.0000 H   0  0  0  0  0  0  0  0  0  0  0  0
    0.5103   -2.0941    0.0000 H   0  0  0  0  0  0  0  0  0  0  0  0
   -0.0075    0.1101    0.0000 H   0  0  0  0  0  0  0  0  0  0  0  0
   -0.2897   -0.3786    0.0000 H   0  0  0  0  0  0  0  0  0  0  0  0
    1.0710   -1.6897    0.0000 H   0  0  0  0  0  0  0  0  0  0  0  0
    1.7123   -2.0600    0.0000 H   0  0  0  0  0  0  0  0  0  0  0  0
    3.2746   -0.7830    0.0000 H   0  0  0  0  0  0  0  0  0  0  0  0
    2.6333   -0.4128    0.0000 H   0  0  0  0  0  0  0  0  0  0  0  0
    2.3085   -2.4042    0.0000 H   0  0  0  0  0  0  0  0  0  0  0  0
    2.9498   -2.7744    0.0000 H   0  0  0  0  0  0  0  0  0  0  0  0
    4.2353   -2.6653    0.0000 H   0  0  0  0  0  0  0  0  0  0  0  0
    1.4210   -1.0787    0.0000 H   0  0  0  0  0  0  0  0  0  0  0  0
    0.7262   -0.8298    0.0000 H   0  0  0  0  0  0  0  0  0  0  0  0
   -0.2600   -3.6236    0.0000 H   0  0  0  0  0  0  0  0  0  0  0  0
    0.4805   -3.6236    0.0000 H   0  0  0  0  0  0  0  0  0  0  0  0
   -0.8863   -3.2491    0.0000 H   0  0  0  0  0  0  0  0  0  0  0  0
   -0.3220   -3.2491    0.0000 H   0  0  0  0  0  0  0  0  0  0  0  0
   -2.0559   -3.2566    0.0000 H   0  0  0  0  0  0  0  0  0  0  0  0
   -1.4144   -3.7058    0.0000 H   0  0  0  0  0  0  0  0  0  0  0  0
   -1.5169   -1.8304    0.0000 H   0  0  0  0  0  0  0  0  0  0  0  0
   -1.2004   -1.3941    0.0000 H   0  0  0  0  0  0  0  0  0  0  0  0
   -0.5056   -1.6430    0.0000 H   0  0  0  0  0  0  0  0  0  0  0  0
    0.4805    1.1509    0.0000 H   0  0  0  0  0  0  0  0  0  0  0  0
   -0.2600    1.1509    0.0000 H   0  0  0  0  0  0  0  0  0  0  0  0
    1.1069    0.7764    0.0000 H   0  0  0  0  0  0  0  0  0  0  0  0
    0.5426    0.7764    0.0000 H   0  0  0  0  0  0  0  0  0  0  0  0
    2.2765    0.7839    0.0000 H   0  0  0  0  0  0  0  0  0  0  0  0
    1.6350    1.2331    0.0000 H   0  0  0  0  0  0  0  0  0  0  0  0
    1.7374   -0.6424    0.0000 H   0  0  0  0  0  0  0  0  0  0  0  0
  1  2  1  0  0  0  0
  2  3  1  0  0  0  0
  3  4  1  0  0  0  0
  4  5  1  0  0  0  0
  5  6  1  0  0  0  0
  6  7  1  0  0  0  0
  7  8  1  0  0  0  0
  8  9  1  0  0  0  0
  9 10  1  0  0  0  0
 10 11  1  0  0  0  0
 11 12  1  0  0  0  0
 12 13  1  0  0  0  0
  7 14  1  0  0  0  0
 14 15  1  0  0  0  0
 15 16  1  0  0  0  0
 16 17  1  0  0  0  0
 17 18  1  0  0  0  0
 18 19  1  0  0  0  0
  7 20  1  0  0  0  0
 20 21  1  0  0  0  0
 21 22  1  0  0  0  0
 22 23  1  0  0  0  0
 23 24  1  0  0  0  0
 24 25  1  0  0  0  0
  1 26  1  0  0  0  0
  2 27  1  0  0  0  0
  2 28  1  0  0  0  0
  3 29  1  0  0  0  0
  3 30  1  0  0  0  0
  4 31  1  0  0  0  0
  4 32  1  0  0  0  0
  6 33  1  0  0  0  0
  6 34  1  0  0  0  0
  8 35  1  0  0  0  0
  8 36  1  0  0  0  0
 10 37  1  0  0  0  0
 10 38  1  0  0  0  0
 11 39  1  0  0  0  0
 11 40  1  0  0  0  0
 12 41  1  0  0  0  0
 12 42  1  0  0  0  0
 13 43  1  0  0  0  0
 14 44  1  0  0  0  0
 14 45  1  0  0  0  0
 16 46  1  0  0  0  0
 16 47  1  0  0  0  0
 17 48  1  0  0  0  0
 17 49  1  0  0  0  0
 18 50  1  0  0  0  0
 18 51  1  0  0  0  0
 19 52  1  0  0  0  0
 20 53  1  0  0  0  0
 20 54  1  0  0  0  0
 22 55  1  0  0  0  0
 22 56  1  0  0  0  0
 23 57  1  0  0  0  0
 23 58  1  0  0  0  0
 24 59  1  0  0  0  0
 24 60  1  0  0  0  0
 25 61  1  0  0  0  0
M  END
>  <InChIKey>
AZEOMCMPNPXNDQ-UHFFFAOYSA-N

>  <UN GHS>
Non-irritant

>  <CASRN>
9051-49-4

> <Outcome>
0

>  <Index>
28

>  <StandardizerResult>
Clear Stereo (ID: ClearStereo)
Wedge Clean (ID: WedgeClean)
Mesomerize (ID: Mesomerize)
Tautomerize (ID: Tautomerize)
Add Explicit Hydrogens (ID: AddExplicitH)
Neutralize (ID: Neutralize)
Clean 2D (ID: Clean2D)

> <knn Distance>
3.31662487983704

> <CpId>
28

$$$$
60
  Mrv1532301301811342D          

 43 42  0  0  0  0            999 V2000
    3.0113    2.5770    0.0000 C   0  0  0  0  0  0  0  0  0  0  0  0
    3.7258    2.1645    0.0000 C   0  0  0  0  0  0  0  0  0  0  0  0
    4.4403    2.5770    0.0000 C   0  0  0  0  0  0  0  0  0  0  0  0
    5.1547    2.1645    0.0000 C   0  0  0  0  0  0  0  0  0  0  0  0
    5.8692    2.5770    0.0000 C   0  0  0  0  0  0  0  0  0  0  0  0
    5.8692    3.4020    0.0000 C   0  0  0  0  0  0  0  0  0  0  0  0
    6.5837    3.8145    0.0000 C   0  0  0  0  0  0  0  0  0  0  0  0
    6.5837    2.1645    0.0000 C   0  0  0  0  0  0  0  0  0  0  0  0
    7.2981    2.5770    0.0000 O   0  0  0  0  0  0  0  0  0  0  0  0
    8.0126    2.1645    0.0000 C   0  0  0  0  0  0  0  0  0  0  0  0
    8.0126    1.3395    0.0000 O   0  0  0  0  0  0  0  0  0  0  0  0
    8.7271    2.5770    0.0000 O   0  0  0  0  0  0  0  0  0  0  0  0
    9.4416    2.1645    0.0000 O   0  0  0  0  0  0  0  0  0  0  0  0
   10.1560    2.5770    0.0000 C   0  0  0  0  0  0  0  0  0  0  0  0
   10.8705    2.9895    0.0000 C   0  0  0  0  0  0  0  0  0  0  0  0
   10.5685    1.8625    0.0000 C   0  0  0  0  0  0  0  0  0  0  0  0
    9.7435    3.2914    0.0000 C   0  0  0  0  0  0  0  0  0  0  0  0
    3.4238    3.2914    0.0000 H   0  0  0  0  0  0  0  0  0  0  0  0
    2.2969    2.9895    0.0000 H   0  0  0  0  0  0  0  0  0  0  0  0
    2.5988    1.8625    0.0000 H   0  0  0  0  0  0  0  0  0  0  0  0
    3.3555    1.4272    0.0000 H   0  0  0  0  0  0  0  0  0  0  0  0
    4.0961    1.4272    0.0000 H   0  0  0  0  0  0  0  0  0  0  0  0
    4.8105    3.3142    0.0000 H   0  0  0  0  0  0  0  0  0  0  0  0
    4.0700    3.3142    0.0000 H   0  0  0  0  0  0  0  0  0  0  0  0
    4.7845    1.4272    0.0000 H   0  0  0  0  0  0  0  0  0  0  0  0
    5.5250    1.4272    0.0000 H   0  0  0  0  0  0  0  0  0  0  0  0
    5.1547    2.9895    0.0000 H   0  0  0  0  0  0  0  0  0  0  0  0
    5.7259    4.2144    0.0000 H   0  0  0  0  0  0  0  0  0  0  0  0
    5.2372    3.9323    0.0000 H   0  0  0  0  0  0  0  0  0  0  0  0
    6.8145    3.0224    0.0000 H   0  0  0  0  0  0  0  0  0  0  0  0
    7.4079    3.8505    0.0000 H   0  0  0  0  0  0  0  0  0  0  0  0
    6.7446    4.6236    0.0000 H   0  0  0  0  0  0  0  0  0  0  0  0
    6.2134    1.4272    0.0000 H   0  0  0  0  0  0  0  0  0  0  0  0
    6.9539    1.4272    0.0000 H   0  0  0  0  0  0  0  0  0  0  0  0
   11.2830    2.2750    0.0000 H   0  0  0  0  0  0  0  0  0  0  0  0
   11.5850    3.4020    0.0000 H   0  0  0  0  0  0  0  0  0  0  0  0
   10.4580    3.7039    0.0000 H   0  0  0  0  0  0  0  0  0  0  0  0
    9.7506    1.7548    0.0000 H   0  0  0  0  0  0  0  0  0  0  0  0
   10.3550    1.0656    0.0000 H   0  0  0  0  0  0  0  0  0  0  0  0
   11.2230    1.3603    0.0000 H   0  0  0  0  0  0  0  0  0  0  0  0
    9.6358    4.1094    0.0000 H   0  0  0  0  0  0  0  0  0  0  0  0
    8.9466    3.5050    0.0000 H   0  0  0  0  0  0  0  0  0  0  0  0
    9.2413    2.6369    0.0000 H   0  0  0  0  0  0  0  0  0  0  0  0
  1  2  1  0  0  0  0
  2  3  1  0  0  0  0
  3  4  1  0  0  0  0
  4  5  1  0  0  0  0
  5  6  1  0  0  0  0
  6  7  1  0  0  0  0
  5  8  1  0  0  0  0
  8  9  1  0  0  0  0
  9 10  1  0  0  0  0
 10 11  2  0  0  0  0
 10 12  1  0  0  0  0
 12 13  1  0  0  0  0
 13 14  1  0  0  0  0
 14 15  1  0  0  0  0
 14 16  1  0  0  0  0
 14 17  1  0  0  0  0
  1 18  1  0  0  0  0
  1 19  1  0  0  0  0
  1 20  1  0  0  0  0
  2 21  1  0  0  0  0
  2 22  1  0  0  0  0
  3 23  1  0  0  0  0
  3 24  1  0  0  0  0
  4 25  1  0  0  0  0
  4 26  1  0  0  0  0
  5 27  1  0  0  0  0
  6 28  1  0  0  0  0
  6 29  1  0  0  0  0
  7 30  1  0  0  0  0
  7 31  1  0  0  0  0
  7 32  1  0  0  0  0
  8 33  1  0  0  0  0
  8 34  1  0  0  0  0
 15 35  1  0  0  0  0
 15 36  1  0  0  0  0
 15 37  1  0  0  0  0
 16 38  1  0  0  0  0
 16 39  1  0  0  0  0
 16 40  1  0  0  0  0
 17 41  1  0  0  0  0
 17 42  1  0  0  0  0
 17 43  1  0  0  0  0
M  END
>  <InChIKey>
BRQMAAFGEXNUOL-UHFFFAOYSA-N

>  <UN GHS>
Non-irritant

>  <CASRN>
34443-12-4

> <Outcome>
0

>  <Index>
60

>  <StandardizerResult>
Clear Stereo (ID: ClearStereo)
Wedge Clean (ID: WedgeClean)
Mesomerize (ID: Mesomerize)
Tautomerize (ID: Tautomerize)
Add Explicit Hydrogens (ID: AddExplicitH)
Neutralize (ID: Neutralize)
Clean 2D (ID: Clean2D)

> <knn Distance>
3.31662487983704

> <CpId>
60

$$$$
77
  Mrv1532301301811342D          

 53 54  0  0  0  0            999 V2000
    4.7667   -0.5488    0.0000 C   0  0  0  0  0  0  0  0  0  0  0  0
    5.4812   -0.9613    0.0000 C   0  0  0  0  0  0  0  0  0  0  0  0
    5.4812   -1.7863    0.0000 O   0  0  0  0  0  0  0  0  0  0  0  0
    4.7667   -2.1988    0.0000 C   0  0  0  0  0  0  0  0  0  0  0  0
    5.1792   -2.9132    0.0000 C   0  0  0  0  0  0  0  0  0  0  0  0
    4.3542   -1.4843    0.0000 C   0  0  0  0  0  0  0  0  0  0  0  0
    4.0522   -2.6113    0.0000 C   0  0  0  0  0  0  0  0  0  0  0  0
    4.0522   -3.4363    0.0000 O   0  0  0  0  0  0  0  0  0  0  0  0
    3.3377   -3.8488    0.0000 C   0  0  0  0  0  0  0  0  0  0  0  0
    2.6233   -3.4363    0.0000 O   0  0  0  0  0  0  0  0  0  0  0  0
    3.3377   -4.6738    0.0000 C   0  0  0  0  0  0  0  0  0  0  0  0
    3.7502   -5.3882    0.0000 C   0  0  0  0  0  0  0  0  0  0  0  0
    2.9252   -5.3882    0.0000 C   0  0  0  0  0  0  0  0  0  0  0  0
    6.1956   -0.5488    0.0000 C   0  0  0  0  0  0  0  0  0  0  0  0
    6.1956    0.2762    0.0000 C   0  0  0  0  0  0  0  0  0  0  0  0
    6.9101    0.6887    0.0000 C   0  0  0  0  0  0  0  0  0  0  0  0
    7.6246    0.2762    0.0000 C   0  0  0  0  0  0  0  0  0  0  0  0
    7.6246   -0.5488    0.0000 C   0  0  0  0  0  0  0  0  0  0  0  0
    8.4370   -0.4055    0.0000 C   0  0  0  0  0  0  0  0  0  0  0  0
    7.9067   -1.3240    0.0000 C   0  0  0  0  0  0  0  0  0  0  0  0
    6.9101   -0.9613    0.0000 C   0  0  0  0  0  0  0  0  0  0  0  0
    5.1792    0.1657    0.0000 H   0  0  0  0  0  0  0  0  0  0  0  0
    4.0522   -0.1363    0.0000 H   0  0  0  0  0  0  0  0  0  0  0  0
    4.3542   -1.2632    0.0000 H   0  0  0  0  0  0  0  0  0  0  0  0
    4.7667   -1.3738    0.0000 H   0  0  0  0  0  0  0  0  0  0  0  0
    4.4647   -3.3257    0.0000 H   0  0  0  0  0  0  0  0  0  0  0  0
    5.5917   -3.6277    0.0000 H   0  0  0  0  0  0  0  0  0  0  0  0
    5.8937   -2.5007    0.0000 H   0  0  0  0  0  0  0  0  0  0  0  0
    3.6997   -0.9821    0.0000 H   0  0  0  0  0  0  0  0  0  0  0  0
    3.5573   -1.6978    0.0000 H   0  0  0  0  0  0  0  0  0  0  0  0
    4.0385   -2.2465    0.0000 H   0  0  0  0  0  0  0  0  0  0  0  0
    3.3276   -2.2168    0.0000 H   0  0  0  0  0  0  0  0  0  0  0  0
    3.3430   -3.0327    0.0000 H   0  0  0  0  0  0  0  0  0  0  0  0
    2.5409   -4.4602    0.0000 H   0  0  0  0  0  0  0  0  0  0  0  0
    4.1205   -6.1255    0.0000 H   0  0  0  0  0  0  0  0  0  0  0  0
    4.5738   -5.3403    0.0000 H   0  0  0  0  0  0  0  0  0  0  0  0
    2.1016   -5.3403    0.0000 H   0  0  0  0  0  0  0  0  0  0  0  0
    2.5550   -6.1255    0.0000 H   0  0  0  0  0  0  0  0  0  0  0  0
    6.1956   -1.3738    0.0000 H   0  0  0  0  0  0  0  0  0  0  0  0
    5.7423    0.9655    0.0000 H   0  0  0  0  0  0  0  0  0  0  0  0
    5.3720    0.3242    0.0000 H   0  0  0  0  0  0  0  0  0  0  0  0
    7.2804    1.4260    0.0000 H   0  0  0  0  0  0  0  0  0  0  0  0
    6.5398    1.4260    0.0000 H   0  0  0  0  0  0  0  0  0  0  0  0
    8.4482    0.3242    0.0000 H   0  0  0  0  0  0  0  0  0  0  0  0
    8.0779    0.9655    0.0000 H   0  0  0  0  0  0  0  0  0  0  0  0
    8.2205   -1.2016    0.0000 H   0  0  0  0  0  0  0  0  0  0  0  0
    9.0650   -0.9406    0.0000 H   0  0  0  0  0  0  0  0  0  0  0  0
    9.1887   -0.0654    0.0000 H   0  0  0  0  0  0  0  0  0  0  0  0
    7.0823   -1.2928    0.0000 H   0  0  0  0  0  0  0  0  0  0  0  0
    7.5667   -2.0757    0.0000 H   0  0  0  0  0  0  0  0  0  0  0  0
    8.4745   -1.9226    0.0000 H   0  0  0  0  0  0  0  0  0  0  0  0
    6.9101   -0.1363    0.0000 H   0  0  0  0  0  0  0  0  0  0  0  0
    6.6789   -1.7532    0.0000 H   0  0  0  0  0  0  0  0  0  0  0  0
  1  2  1  0  0  0  0
  2  3  1  0  0  0  0
  3  4  1  0  0  0  0
  4  5  1  0  0  0  0
  4  6  1  0  0  0  0
  4  7  1  0  0  0  0
  7  8  1  0  0  0  0
  8  9  1  0  0  0  0
  9 10  2  0  0  0  0
  9 11  1  0  0  0  0
 11 12  1  0  0  0  0
 12 13  1  0  0  0  0
 11 13  1  0  0  0  0
  2 14  1  0  0  0  0
 14 15  1  0  0  0  0
 15 16  1  0  0  0  0
 16 17  1  0  0  0  0
 17 18  1  0  0  0  0
 18 19  1  0  0  0  0
 18 20  1  0  0  0  0
 18 21  1  0  0  0  0
 14 21  1  0  0  0  0
  1 22  1  0  0  0  0
  1 23  1  0  0  0  0
  1 24  1  0  0  0  0
  2 25  1  0  0  0  0
  5 26  1  0  0  0  0
  5 27  1  0  0  0  0
  5 28  1  0  0  0  0
  6 29  1  0  0  0  0
  6 30  1  0  0  0  0
  6 31  1  0  0  0  0
  7 32  1  0  0  0  0
  7 33  1  0  0  0  0
 11 34  1  0  0  0  0
 12 35  1  0  0  0  0
 12 36  1  0  0  0  0
 13 37  1  0  0  0  0
 13 38  1  0  0  0  0
 14 39  1  0  0  0  0
 15 40  1  0  0  0  0
 15 41  1  0  0  0  0
 16 42  1  0  0  0  0
 16 43  1  0  0  0  0
 17 44  1  0  0  0  0
 17 45  1  0  0  0  0
 19 46  1  0  0  0  0
 19 47  1  0  0  0  0
 19 48  1  0  0  0  0
 20 49  1  0  0  0  0
 20 50  1  0  0  0  0
 20 51  1  0  0  0  0
 21 52  1  0  0  0  0
 21 53  1  0  0  0  0
M  END
>  <InChIKey>
BZLYOWSSNHNYKW-UHFFFAOYSA-N

>  <UN GHS>
Non-irritant

>  <CASRN>
477218-42-1

> <Outcome>
0

>  <Index>
77

>  <StandardizerResult>
Clear Stereo (ID: ClearStereo)
Wedge Clean (ID: WedgeClean)
Mesomerize (ID: Mesomerize)
Tautomerize (ID: Tautomerize)
Add Explicit Hydrogens (ID: AddExplicitH)
Neutralize (ID: Neutralize)
Clean 2D (ID: Clean2D)

> <knn Distance>
3.31662487983704

> <CpId>
77

$$$$
82
  Mrv1532301301811342D          

 18 17  0  0  0  0            999 V2000
    1.7005    1.5220    0.0000 C   0  0  0  0  0  0  0  0  0  0  0  0
    1.2880    0.8075    0.0000 C   0  0  0  0  0  0  0  0  0  0  0  0
    0.5735    1.2200    0.0000 C   0  0  0  0  0  0  0  0  0  0  0  0
   -0.1409    0.8075    0.0000 O   0  0  0  0  0  0  0  0  0  0  0  0
    2.0025    0.3950    0.0000 C   0  0  0  0  0  0  0  0  0  0  0  0
    2.7169    0.8075    0.0000 O   0  0  0  0  0  0  0  0  0  0  0  0
    0.8755    0.0930    0.0000 C   0  0  0  0  0  0  0  0  0  0  0  0
    0.0505    0.0930    0.0000 O   0  0  0  0  0  0  0  0  0  0  0  0
    2.4150    1.1095    0.0000 H   0  0  0  0  0  0  0  0  0  0  0  0
    2.1130    2.2365    0.0000 H   0  0  0  0  0  0  0  0  0  0  0  0
    0.9860    1.9345    0.0000 H   0  0  0  0  0  0  0  0  0  0  0  0
   -0.0098    1.8034    0.0000 H   0  0  0  0  0  0  0  0  0  0  0  0
    0.5735    0.3950    0.0000 H   0  0  0  0  0  0  0  0  0  0  0  0
   -0.9031    1.1232    0.0000 H   0  0  0  0  0  0  0  0  0  0  0  0
    1.6322   -0.3422    0.0000 H   0  0  0  0  0  0  0  0  0  0  0  0
    2.3727   -0.3422    0.0000 H   0  0  0  0  0  0  0  0  0  0  0  0
    3.5349    0.6998    0.0000 H   0  0  0  0  0  0  0  0  0  0  0  0
    0.6626   -0.7040    0.0000 H   0  0  0  0  0  0  0  0  0  0  0  0
  1  2  1  0  0  0  0
  2  3  1  0  0  0  0
  3  4  1  0  0  0  0
  2  5  1  0  0  0  0
  5  6  1  0  0  0  0
  2  7  1  0  0  0  0
  7  8  2  0  0  0  0
  1  9  1  0  0  0  0
  1 10  1  0  0  0  0
  1 11  1  0  0  0  0
  3 12  1  0  0  0  0
  3 13  1  0  0  0  0
  4 14  1  0  0  0  0
  5 15  1  0  0  0  0
  5 16  1  0  0  0  0
  6 17  1  0  0  0  0
  7 18  1  0  0  0  0
M  END
>  <InChIKey>
CBIFNLUPCWCNQT-UHFFFAOYSA-N

>  <UN GHS>
Non-irritant

>  <CASRN>
18516-18-2

> <Outcome>
0

>  <Index>
82

>  <StandardizerResult>
Clear Stereo (ID: ClearStereo)
Wedge Clean (ID: WedgeClean)
Mesomerize (ID: Mesomerize)
Tautomerize (ID: Tautomerize)
Add Explicit Hydrogens (ID: AddExplicitH)
Neutralize (ID: Neutralize)
Clean 2D (ID: Clean2D)

> <knn Distance>
3.31662487983704

> <CpId>
82

$$$$
87
  Mrv1532301301811342D          

 45 46  0  0  0  0            999 V2000
    1.5395   -1.2375    0.0000 C   0  0  0  0  0  0  0  0  0  0  0  0
    0.7145   -1.2375    0.0000 C   0  0  0  0  0  0  0  0  0  0  0  0
   -0.1105   -1.2375    0.0000 C   0  0  0  0  0  0  0  0  0  0  0  0
    0.7145   -2.0625    0.0000 C   0  0  0  0  0  0  0  0  0  0  0  0
    1.4289   -2.4750    0.0000 C   0  0  0  0  0  0  0  0  0  0  0  0
    1.4289   -3.3000    0.0000 C   0  0  0  0  0  0  0  0  0  0  0  0
    0.7145   -3.7125    0.0000 C   0  0  0  0  0  0  0  0  0  0  0  0
    0.7145   -4.5375    0.0000 O   0  0  0  0  0  0  0  0  0  0  0  0
    0.0000   -3.3000    0.0000 C   0  0  0  0  0  0  0  0  0  0  0  0
    0.0000   -2.4750    0.0000 C   0  0  0  0  0  0  0  0  0  0  0  0
    0.7145   -0.4125    0.0000 C   0  0  0  0  0  0  0  0  0  0  0  0
    0.0000   -0.0000    0.0000 C   0  0  0  0  0  0  0  0  0  0  0  0
    0.0000    0.8250    0.0000 C   0  0  0  0  0  0  0  0  0  0  0  0
    0.7145    1.2375    0.0000 C   0  0  0  0  0  0  0  0  0  0  0  0
    0.7145    2.0625    0.0000 O   0  0  0  0  0  0  0  0  0  0  0  0
    1.4289    0.8250    0.0000 C   0  0  0  0  0  0  0  0  0  0  0  0
    1.4289   -0.0000    0.0000 C   0  0  0  0  0  0  0  0  0  0  0  0
    1.5395   -2.0625    0.0000 H   0  0  0  0  0  0  0  0  0  0  0  0
    2.3645   -1.2375    0.0000 H   0  0  0  0  0  0  0  0  0  0  0  0
    1.5395   -0.4125    0.0000 H   0  0  0  0  0  0  0  0  0  0  0  0
   -0.1105   -0.4125    0.0000 H   0  0  0  0  0  0  0  0  0  0  0  0
   -0.9355   -1.2375    0.0000 H   0  0  0  0  0  0  0  0  0  0  0  0
   -0.1105   -2.0625    0.0000 H   0  0  0  0  0  0  0  0  0  0  0  0
    0.7145   -2.8875    0.0000 H   0  0  0  0  0  0  0  0  0  0  0  0
    2.1047   -2.9482    0.0000 H   0  0  0  0  0  0  0  0  0  0  0  0
    2.2042   -2.1928    0.0000 H   0  0  0  0  0  0  0  0  0  0  0  0
    1.4169   -4.1249    0.0000 H   0  0  0  0  0  0  0  0  0  0  0  0
    2.1311   -3.7331    0.0000 H   0  0  0  0  0  0  0  0  0  0  0  0
    0.0000   -4.1250    0.0000 H   0  0  0  0  0  0  0  0  0  0  0  0
    0.7176   -5.3625    0.0000 H   0  0  0  0  0  0  0  0  0  0  0  0
   -0.7752   -3.0178    0.0000 H   0  0  0  0  0  0  0  0  0  0  0  0
   -0.7752   -3.5822    0.0000 H   0  0  0  0  0  0  0  0  0  0  0  0
   -0.7752   -2.1928    0.0000 H   0  0  0  0  0  0  0  0  0  0  0  0
    0.3157   -1.7128    0.0000 H   0  0  0  0  0  0  0  0  0  0  0  0
    0.7145    0.4125    0.0000 H   0  0  0  0  0  0  0  0  0  0  0  0
   -0.6758    0.4732    0.0000 H   0  0  0  0  0  0  0  0  0  0  0  0
   -0.7752   -0.2822    0.0000 H   0  0  0  0  0  0  0  0  0  0  0  0
    0.0120    1.6499    0.0000 H   0  0  0  0  0  0  0  0  0  0  0  0
   -0.7022    1.2581    0.0000 H   0  0  0  0  0  0  0  0  0  0  0  0
    1.4289    1.6500    0.0000 H   0  0  0  0  0  0  0  0  0  0  0  0
    0.7114    2.8875    0.0000 H   0  0  0  0  0  0  0  0  0  0  0  0
    2.2042    0.5428    0.0000 H   0  0  0  0  0  0  0  0  0  0  0  0
    2.2042    1.1072    0.0000 H   0  0  0  0  0  0  0  0  0  0  0  0
    2.2042   -0.2822    0.0000 H   0  0  0  0  0  0  0  0  0  0  0  0
    1.1132   -0.7622    0.0000 H   0  0  0  0  0  0  0  0  0  0  0  0
  1  2  1  0  0  0  0
  2  3  1  0  0  0  0
  2  4  1  0  0  0  0
  4  5  1  0  0  0  0
  5  6  1  0  0  0  0
  6  7  1  0  0  0  0
  7  8  1  0  0  0  0
  7  9  1  0  0  0  0
  9 10  1  0  0  0  0
  4 10  1  0  0  0  0
  2 11  1  0  0  0  0
 11 12  1  0  0  0  0
 12 13  1  0  0  0  0
 13 14  1  0  0  0  0
 14 15  1  0  0  0  0
 14 16  1  0  0  0  0
 16 17  1  0  0  0  0
 11 17  1  0  0  0  0
  1 18  1  0  0  0  0
  1 19  1  0  0  0  0
  1 20  1  0  0  0  0
  3 21  1  0  0  0  0
  3 22  1  0  0  0  0
  3 23  1  0  0  0  0
  4 24  1  0  0  0  0
  5 25  1  0  0  0  0
  5 26  1  0  0  0  0
  6 27  1  0  0  0  0
  6 28  1  0  0  0  0
  7 29  1  0  0  0  0
  8 30  1  0  0  0  0
  9 31  1  0  0  0  0
  9 32  1  0  0  0  0
 10 33  1  0  0  0  0
 10 34  1  0  0  0  0
 11 35  1  0  0  0  0
 12 36  1  0  0  0  0
 12 37  1  0  0  0  0
 13 38  1  0  0  0  0
 13 39  1  0  0  0  0
 14 40  1  0  0  0  0
 15 41  1  0  0  0  0
 16 42  1  0  0  0  0
 16 43  1  0  0  0  0
 17 44  1  0  0  0  0
 17 45  1  0  0  0  0
M  END
>  <InChIKey>
CDBAMNGURPMUTG-UHFFFAOYSA-N

>  <UN GHS>
Non-irritant

>  <CASRN>
80-04-6

> <Outcome>
0

>  <Index>
87

>  <StandardizerResult>
Clear Stereo (ID: ClearStereo)
Wedge Clean (ID: WedgeClean)
Mesomerize (ID: Mesomerize)
Tautomerize (ID: Tautomerize)
Add Explicit Hydrogens (ID: AddExplicitH)
Neutralize (ID: Neutralize)
Clean 2D (ID: Clean2D)

> <knn Distance>
3.31662487983704

> <CpId>
87

$$$$
111
  Mrv1532301301811342D          

 29 28  0  0  0  0            999 V2000
    2.9672    1.9073    0.0000 C   0  0  0  0  0  0  0  0  0  0  0  0
    2.2527    1.4948    0.0000 C   0  0  0  0  0  0  0  0  0  0  0  0
    1.5382    1.9073    0.0000 O   0  0  0  0  0  0  0  0  0  0  0  0
    0.8237    1.4948    0.0000 Si  0  0  0  0  0  0  0  0  0  0  0  0
    0.4112    2.2093    0.0000 C   0  0  0  0  0  0  0  0  0  0  0  0
    0.1093    1.0823    0.0000 O   0  0  0  0  0  0  0  0  0  0  0  0
   -0.6052    1.4948    0.0000 C   0  0  0  0  0  0  0  0  0  0  0  0
   -1.3197    1.0823    0.0000 C   0  0  0  0  0  0  0  0  0  0  0  0
    1.2362    0.7803    0.0000 O   0  0  0  0  0  0  0  0  0  0  0  0
    0.8237    0.0659    0.0000 C   0  0  0  0  0  0  0  0  0  0  0  0
   -0.0013    0.0659    0.0000 C   0  0  0  0  0  0  0  0  0  0  0  0
    3.3797    1.1928    0.0000 H   0  0  0  0  0  0  0  0  0  0  0  0
    3.6816    2.3198    0.0000 H   0  0  0  0  0  0  0  0  0  0  0  0
    2.5547    2.6218    0.0000 H   0  0  0  0  0  0  0  0  0  0  0  0
    1.8824    0.7576    0.0000 H   0  0  0  0  0  0  0  0  0  0  0  0
    2.6229    0.7576    0.0000 H   0  0  0  0  0  0  0  0  0  0  0  0
    1.1257    2.6218    0.0000 H   0  0  0  0  0  0  0  0  0  0  0  0
   -0.0013    2.9237    0.0000 H   0  0  0  0  0  0  0  0  0  0  0  0
   -0.3032    1.7968    0.0000 H   0  0  0  0  0  0  0  0  0  0  0  0
   -1.1074    2.1493    0.0000 H   0  0  0  0  0  0  0  0  0  0  0  0
   -0.6052    0.6698    0.0000 H   0  0  0  0  0  0  0  0  0  0  0  0
   -1.5332    1.8792    0.0000 H   0  0  0  0  0  0  0  0  0  0  0  0
   -2.1447    1.0823    0.0000 H   0  0  0  0  0  0  0  0  0  0  0  0
   -1.5332    0.2854    0.0000 H   0  0  0  0  0  0  0  0  0  0  0  0
    0.8717   -0.7577    0.0000 H   0  0  0  0  0  0  0  0  0  0  0  0
    1.5130   -0.3875    0.0000 H   0  0  0  0  0  0  0  0  0  0  0  0
   -0.6095   -0.4915    0.0000 H   0  0  0  0  0  0  0  0  0  0  0  0
    0.0347   -0.7584    0.0000 H   0  0  0  0  0  0  0  0  0  0  0  0
    0.3145    0.8281    0.0000 H   0  0  0  0  0  0  0  0  0  0  0  0
  1  2  1  0  0  0  0
  2  3  1  0  0  0  0
  3  4  1  0  0  0  0
  4  5  1  0  0  0  0
  4  6  1  0  0  0  0
  6  7  1  0  0  0  0
  7  8  1  0  0  0  0
  4  9  1  0  0  0  0
  9 10  1  0  0  0  0
 10 11  1  0  0  0  0
  1 12  1  0  0  0  0
  1 13  1  0  0  0  0
  1 14  1  0  0  0  0
  2 15  1  0  0  0  0
  2 16  1  0  0  0  0
  5 17  1  0  0  0  0
  5 18  1  0  0  0  0
  5 19  1  0  0  0  0
  7 20  1  0  0  0  0
  7 21  1  0  0  0  0
  8 22  1  0  0  0  0
  8 23  1  0  0  0  0
  8 24  1  0  0  0  0
 10 25  1  0  0  0  0
 10 26  1  0  0  0  0
 11 27  1  0  0  0  0
 11 28  1  0  0  0  0
 11 29  1  0  0  0  0
M  END
>  <InChIKey>
CPUDPFPXCZDNGI-UHFFFAOYSA-N

>  <UN GHS>
Non-irritant

>  <CASRN>
2031-67-6

> <Outcome>
0

>  <Index>
111

>  <StandardizerResult>
Clear Stereo (ID: ClearStereo)
Wedge Clean (ID: WedgeClean)
Mesomerize (ID: Mesomerize)
Tautomerize (ID: Tautomerize)
Add Explicit Hydrogens (ID: AddExplicitH)
Neutralize (ID: Neutralize)
Clean 2D (ID: Clean2D)

> <knn Distance>
3.31662487983704

> <CpId>
111

$$$$
225
  Mrv1532301301811342D          

 28 28  0  0  0  0            999 V2000
   -1.4829    4.1562    0.0000 C   0  0  0  0  0  0  0  0  0  0  0  0
   -0.7684    3.7437    0.0000 C   0  0  0  0  0  0  0  0  0  0  0  0
   -1.1809    3.0292    0.0000 C   0  0  0  0  0  0  0  0  0  0  0  0
   -0.3559    4.4581    0.0000 C   0  0  0  0  0  0  0  0  0  0  0  0
   -0.0540    3.3312    0.0000 O   0  0  0  0  0  0  0  0  0  0  0  0
   -0.0540    2.5062    0.0000 O   0  0  0  0  0  0  0  0  0  0  0  0
    0.6605    2.0937    0.0000 C   0  0  0  0  0  0  0  0  0  0  0  0
    1.3750    2.5062    0.0000 O   0  0  0  0  0  0  0  0  0  0  0  0
    0.6605    1.2687    0.0000 C   0  0  0  0  0  0  0  0  0  0  0  0
    1.3750    0.8562    0.0000 C   0  0  0  0  0  0  0  0  0  0  0  0
    1.3750    0.0312    0.0000 C   0  0  0  0  0  0  0  0  0  0  0  0
    0.6605   -0.3813    0.0000 C   0  0  0  0  0  0  0  0  0  0  0  0
   -0.0540    0.0312    0.0000 C   0  0  0  0  0  0  0  0  0  0  0  0
   -0.0540    0.8562    0.0000 C   0  0  0  0  0  0  0  0  0  0  0  0
   -1.0704    4.8706    0.0000 H   0  0  0  0  0  0  0  0  0  0  0  0
   -2.1974    4.5687    0.0000 H   0  0  0  0  0  0  0  0  0  0  0  0
   -1.8954    3.4417    0.0000 H   0  0  0  0  0  0  0  0  0  0  0  0
   -1.8355    2.5270    0.0000 H   0  0  0  0  0  0  0  0  0  0  0  0
   -0.9674    2.2323    0.0000 H   0  0  0  0  0  0  0  0  0  0  0  0
   -0.3630    2.9215    0.0000 H   0  0  0  0  0  0  0  0  0  0  0  0
    0.1463    3.8036    0.0000 H   0  0  0  0  0  0  0  0  0  0  0  0
    0.4410    4.6717    0.0000 H   0  0  0  0  0  0  0  0  0  0  0  0
   -0.2482    5.2761    0.0000 H   0  0  0  0  0  0  0  0  0  0  0  0
    2.0894    1.2687    0.0000 H   0  0  0  0  0  0  0  0  0  0  0  0
    2.0894   -0.3813    0.0000 H   0  0  0  0  0  0  0  0  0  0  0  0
    0.6605   -1.2063    0.0000 H   0  0  0  0  0  0  0  0  0  0  0  0
   -0.7684   -0.3813    0.0000 H   0  0  0  0  0  0  0  0  0  0  0  0
   -0.7684    1.2687    0.0000 H   0  0  0  0  0  0  0  0  0  0  0  0
  1  2  1  0  0  0  0
  2  3  1  0  0  0  0
  2  4  1  0  0  0  0
  2  5  1  0  0  0  0
  5  6  1  0  0  0  0
  6  7  1  0  0  0  0
  7  8  2  0  0  0  0
  7  9  1  0  0  0  0
  9 10  4  0  0  0  0
 10 11  4  0  0  0  0
 11 12  4  0  0  0  0
 12 13  4  0  0  0  0
 13 14  4  0  0  0  0
  9 14  4  0  0  0  0
  1 15  1  0  0  0  0
  1 16  1  0  0  0  0
  1 17  1  0  0  0  0
  3 18  1  0  0  0  0
  3 19  1  0  0  0  0
  3 20  1  0  0  0  0
  4 21  1  0  0  0  0
  4 22  1  0  0  0  0
  4 23  1  0  0  0  0
 10 24  1  0  0  0  0
 11 25  1  0  0  0  0
 12 26  1  0  0  0  0
 13 27  1  0  0  0  0
 14 28  1  0  0  0  0
M  END
>  <InChIKey>
GJBRNHKUVLOCEB-UHFFFAOYSA-N

>  <UN GHS>
Non-irritant

>  <CASRN>
614-45-9

> <Outcome>
0

>  <Index>
225

>  <StandardizerResult>
Dearomatize (ID: Dearomatize)
Clear Stereo (ID: ClearStereo)
Wedge Clean (ID: WedgeClean)
Mesomerize (ID: Mesomerize)
Tautomerize (ID: Tautomerize)
Aromatize (ID: Aromatize)
Add Explicit Hydrogens (ID: AddExplicitH)
Neutralize (ID: Neutralize)
Clean 2D (ID: Clean2D)

> <knn Distance>
3.31662487983704

> <CpId>
225

$$$$
330
  Mrv1532301301811342D          

 26 25  0  0  0  0            999 V2000
   -4.4783   -0.1105    0.0000 O   0  0  0  0  0  0  0  0  0  0  0  0
   -3.7638    0.3020    0.0000 C   0  0  0  0  0  0  0  0  0  0  0  0
   -3.0493   -0.1105    0.0000 C   0  0  0  0  0  0  0  0  0  0  0  0
   -2.3349    0.3020    0.0000 O   0  0  0  0  0  0  0  0  0  0  0  0
   -1.6204   -0.1105    0.0000 C   0  0  0  0  0  0  0  0  0  0  0  0
   -0.9059    0.3020    0.0000 C   0  0  0  0  0  0  0  0  0  0  0  0
   -0.1914    0.7145    0.0000 C   0  0  0  0  0  0  0  0  0  0  0  0
    0.5230    1.1270    0.0000 C   0  0  0  0  0  0  0  0  0  0  0  0
    1.2375    0.7145    0.0000 O   0  0  0  0  0  0  0  0  0  0  0  0
    1.9520    1.1270    0.0000 C   0  0  0  0  0  0  0  0  0  0  0  0
    2.6664    0.7145    0.0000 C   0  0  0  0  0  0  0  0  0  0  0  0
    3.3809    1.1270    0.0000 O   0  0  0  0  0  0  0  0  0  0  0  0
   -5.1927    0.3020    0.0000 H   0  0  0  0  0  0  0  0  0  0  0  0
   -3.3935    1.0392    0.0000 H   0  0  0  0  0  0  0  0  0  0  0  0
   -4.1341    1.0392    0.0000 H   0  0  0  0  0  0  0  0  0  0  0  0
   -3.4196   -0.8477    0.0000 H   0  0  0  0  0  0  0  0  0  0  0  0
   -2.6791   -0.8477    0.0000 H   0  0  0  0  0  0  0  0  0  0  0  0
   -1.9907   -0.8477    0.0000 H   0  0  0  0  0  0  0  0  0  0  0  0
   -1.2501   -0.8477    0.0000 H   0  0  0  0  0  0  0  0  0  0  0  0
    0.8933    1.8642    0.0000 H   0  0  0  0  0  0  0  0  0  0  0  0
    0.1528    1.8642    0.0000 H   0  0  0  0  0  0  0  0  0  0  0  0
    2.3222    1.8642    0.0000 H   0  0  0  0  0  0  0  0  0  0  0  0
    1.5817    1.8642    0.0000 H   0  0  0  0  0  0  0  0  0  0  0  0
    2.2962   -0.0227    0.0000 H   0  0  0  0  0  0  0  0  0  0  0  0
    3.0367   -0.0227    0.0000 H   0  0  0  0  0  0  0  0  0  0  0  0
    4.0954    0.7145    0.0000 H   0  0  0  0  0  0  0  0  0  0  0  0
  1  2  1  0  0  0  0
  2  3  1  0  0  0  0
  3  4  1  0  0  0  0
  4  5  1  0  0  0  0
  5  6  1  0  0  0  0
  6  7  3  0  0  0  0
  7  8  1  0  0  0  0
  8  9  1  0  0  0  0
  9 10  1  0  0  0  0
 10 11  1  0  0  0  0
 11 12  1  0  0  0  0
  1 13  1  0  0  0  0
  2 14  1  0  0  0  0
  2 15  1  0  0  0  0
  3 16  1  0  0  0  0
  3 17  1  0  0  0  0
  5 18  1  0  0  0  0
  5 19  1  0  0  0  0
  8 20  1  0  0  0  0
  8 21  1  0  0  0  0
 10 22  1  0  0  0  0
 10 23  1  0  0  0  0
 11 24  1  0  0  0  0
 11 25  1  0  0  0  0
 12 26  1  0  0  0  0
M  END
>  <InChIKey>
IXAWTPMDMPUGLV-UHFFFAOYSA-N

>  <UN GHS>
Non-irritant

>  <CASRN>
32167-31-0

> <Outcome>
0

>  <Index>
330

>  <StandardizerResult>
Clear Stereo (ID: ClearStereo)
Wedge Clean (ID: WedgeClean)
Mesomerize (ID: Mesomerize)
Tautomerize (ID: Tautomerize)
Add Explicit Hydrogens (ID: AddExplicitH)
Neutralize (ID: Neutralize)
Clean 2D (ID: Clean2D)

> <knn Distance>
3.31662487983704

> <CpId>
330

$$$$
375
  Mrv1532301301811342D          

 56 55  0  0  0  0            999 V2000
    1.0327    0.5632    0.0000 C   0  0  0  0  0  0  0  0  0  0  0  0
    1.0327    1.3882    0.0000 C   0  0  0  0  0  0  0  0  0  0  0  0
    1.7471    1.8007    0.0000 C   0  0  0  0  0  0  0  0  0  0  0  0
    2.4616    1.3882    0.0000 C   0  0  0  0  0  0  0  0  0  0  0  0
    2.4616    0.5632    0.0000 O   0  0  0  0  0  0  0  0  0  0  0  0
    3.1761    1.8007    0.0000 O   0  0  0  0  0  0  0  0  0  0  0  0
    3.8905    1.3882    0.0000 O   0  0  0  0  0  0  0  0  0  0  0  0
    4.6050    1.8007    0.0000 C   0  0  0  0  0  0  0  0  0  0  0  0
    4.6050    2.6257    0.0000 O   0  0  0  0  0  0  0  0  0  0  0  0
    5.3195    1.3882    0.0000 C   0  0  0  0  0  0  0  0  0  0  0  0
    6.0340    1.8007    0.0000 C   0  0  0  0  0  0  0  0  0  0  0  0
    6.0340    2.6257    0.0000 C   0  0  0  0  0  0  0  0  0  0  0  0
    6.7484    1.3882    0.0000 C   0  0  0  0  0  0  0  0  0  0  0  0
    7.4629    1.8007    0.0000 C   0  0  0  0  0  0  0  0  0  0  0  0
    8.1774    2.2132    0.0000 C   0  0  0  0  0  0  0  0  0  0  0  0
    7.0504    2.5152    0.0000 C   0  0  0  0  0  0  0  0  0  0  0  0
    7.8754    1.0862    0.0000 C   0  0  0  0  0  0  0  0  0  0  0  0
    0.3182    1.8007    0.0000 C   0  0  0  0  0  0  0  0  0  0  0  0
   -0.3963    1.3882    0.0000 C   0  0  0  0  0  0  0  0  0  0  0  0
   -1.1107    0.9757    0.0000 C   0  0  0  0  0  0  0  0  0  0  0  0
   -0.8088    2.1027    0.0000 C   0  0  0  0  0  0  0  0  0  0  0  0
    0.0162    0.6737    0.0000 C   0  0  0  0  0  0  0  0  0  0  0  0
    0.2077    0.5632    0.0000 H   0  0  0  0  0  0  0  0  0  0  0  0
    1.0327   -0.2618    0.0000 H   0  0  0  0  0  0  0  0  0  0  0  0
    1.8577    0.5632    0.0000 H   0  0  0  0  0  0  0  0  0  0  0  0
    1.7471    0.9757    0.0000 H   0  0  0  0  0  0  0  0  0  0  0  0
    2.1174    2.5380    0.0000 H   0  0  0  0  0  0  0  0  0  0  0  0
    1.3769    2.5380    0.0000 H   0  0  0  0  0  0  0  0  0  0  0  0
    4.9492    0.6510    0.0000 H   0  0  0  0  0  0  0  0  0  0  0  0
    5.6897    0.6510    0.0000 H   0  0  0  0  0  0  0  0  0  0  0  0
    5.3195    2.2132    0.0000 H   0  0  0  0  0  0  0  0  0  0  0  0
    6.8308    2.4122    0.0000 H   0  0  0  0  0  0  0  0  0  0  0  0
    6.4465    3.3402    0.0000 H   0  0  0  0  0  0  0  0  0  0  0  0
    5.4506    3.2091    0.0000 H   0  0  0  0  0  0  0  0  0  0  0  0
    6.3782    0.6510    0.0000 H   0  0  0  0  0  0  0  0  0  0  0  0
    7.1187    0.6510    0.0000 H   0  0  0  0  0  0  0  0  0  0  0  0
    8.5899    1.4987    0.0000 H   0  0  0  0  0  0  0  0  0  0  0  0
    8.8918    2.6257    0.0000 H   0  0  0  0  0  0  0  0  0  0  0  0
    7.7649    2.9277    0.0000 H   0  0  0  0  0  0  0  0  0  0  0  0
    7.2808    3.3074    0.0000 H   0  0  0  0  0  0  0  0  0  0  0  0
    6.6686    3.2465    0.0000 H   0  0  0  0  0  0  0  0  0  0  0  0
    6.2687    2.7790    0.0000 H   0  0  0  0  0  0  0  0  0  0  0  0
    7.6609    0.2896    0.0000 H   0  0  0  0  0  0  0  0  0  0  0  0
    8.2873    0.3714    0.0000 H   0  0  0  0  0  0  0  0  0  0  0  0
    8.6722    0.8724    0.0000 H   0  0  0  0  0  0  0  0  0  0  0  0
    0.6885    2.5380    0.0000 H   0  0  0  0  0  0  0  0  0  0  0  0
   -0.0521    2.5380    0.0000 H   0  0  0  0  0  0  0  0  0  0  0  0
   -1.5232    1.6902    0.0000 H   0  0  0  0  0  0  0  0  0  0  0  0
   -1.8252    0.5632    0.0000 H   0  0  0  0  0  0  0  0  0  0  0  0
   -0.6982    0.2612    0.0000 H   0  0  0  0  0  0  0  0  0  0  0  0
   -0.5943    2.8993    0.0000 H   0  0  0  0  0  0  0  0  0  0  0  0
   -1.2207    2.8175    0.0000 H   0  0  0  0  0  0  0  0  0  0  0  0
   -1.6056    2.3165    0.0000 H   0  0  0  0  0  0  0  0  0  0  0  0
    0.7915    0.9559    0.0000 H   0  0  0  0  0  0  0  0  0  0  0  0
    0.2984    1.4490    0.0000 H   0  0  0  0  0  0  0  0  0  0  0  0
    0.0162   -0.1513    0.0000 H   0  0  0  0  0  0  0  0  0  0  0  0
  1  2  1  0  0  0  0
  2  3  1  0  0  0  0
  3  4  1  0  0  0  0
  4  5  2  0  0  0  0
  4  6  1  0  0  0  0
  6  7  1  0  0  0  0
  7  8  1  0  0  0  0
  8  9  2  0  0  0  0
  8 10  1  0  0  0  0
 10 11  1  0  0  0  0
 11 12  1  0  0  0  0
 11 13  1  0  0  0  0
 13 14  1  0  0  0  0
 14 15  1  0  0  0  0
 14 16  1  0  0  0  0
 14 17  1  0  0  0  0
  2 18  1  0  0  0  0
 18 19  1  0  0  0  0
 19 20  1  0  0  0  0
 19 21  1  0  0  0  0
 19 22  1  0  0  0  0
  1 23  1  0  0  0  0
  1 24  1  0  0  0  0
  1 25  1  0  0  0  0
  2 26  1  0  0  0  0
  3 27  1  0  0  0  0
  3 28  1  0  0  0  0
 10 29  1  0  0  0  0
 10 30  1  0  0  0  0
 11 31  1  0  0  0  0
 12 32  1  0  0  0  0
 12 33  1  0  0  0  0
 12 34  1  0  0  0  0
 13 35  1  0  0  0  0
 13 36  1  0  0  0  0
 15 37  1  0  0  0  0
 15 38  1  0  0  0  0
 15 39  1  0  0  0  0
 16 40  1  0  0  0  0
 16 41  1  0  0  0  0
 16 42  1  0  0  0  0
 17 43  1  0  0  0  0
 17 44  1  0  0  0  0
 17 45  1  0  0  0  0
 18 46  1  0  0  0  0
 18 47  1  0  0  0  0
 20 48  1  0  0  0  0
 20 49  1  0  0  0  0
 20 50  1  0  0  0  0
 21 51  1  0  0  0  0
 21 52  1  0  0  0  0
 21 53  1  0  0  0  0
 22 54  1  0  0  0  0
 22 55  1  0  0  0  0
 22 56  1  0  0  0  0
M  END
>  <InChIKey>
KFGFVPMRLOQXNB-UHFFFAOYSA-N

>  <UN GHS>
Non-irritant

>  <CASRN>
3851-87-4

> <Outcome>
0

>  <Index>
375

>  <StandardizerResult>
Clear Stereo (ID: ClearStereo)
Wedge Clean (ID: WedgeClean)
Mesomerize (ID: Mesomerize)
Tautomerize (ID: Tautomerize)
Add Explicit Hydrogens (ID: AddExplicitH)
Neutralize (ID: Neutralize)
Clean 2D (ID: Clean2D)

> <knn Distance>
3.31662487983704

> <CpId>
375

$$$$
379
  Mrv1532301301811342D          

 34 35  0  0  0  0            999 V2000
   -1.3883    2.2507    0.0000 C   0  0  0  0  0  0  0  0  0  0  0  0
   -0.6009    2.0043    0.0000 C   0  0  0  0  0  0  0  0  0  0  0  0
    0.0061    2.5630    0.0000 O   0  0  0  0  0  0  0  0  0  0  0  0
   -0.4138    1.1690    0.0000 O   0  0  0  0  0  0  0  0  0  0  0  0
    0.2400    0.5685    0.0000 C   0  0  0  0  0  0  0  0  0  0  0  0
    0.2211   -0.2563    0.0000 C   0  0  0  0  0  0  0  0  0  0  0  0
    0.8140   -0.6523    0.0000 C   0  0  0  0  0  0  0  0  0  0  0  0
    1.5377   -0.2563    0.0000 C   0  0  0  0  0  0  0  0  0  0  0  0
    1.5566    0.5685    0.0000 C   0  0  0  0  0  0  0  0  0  0  0  0
    0.8518    0.9972    0.0000 C   0  0  0  0  0  0  0  0  0  0  0  0
    0.9618    1.8498    0.0000 C   0  0  0  0  0  0  0  0  0  0  0  0
    0.6267    0.1772    0.0000 C   0  0  0  0  0  0  0  0  0  0  0  0
   -0.3394    0.5067    0.0000 C   0  0  0  0  0  0  0  0  0  0  0  0
   -0.2971   -0.2870    0.0000 C   0  0  0  0  0  0  0  0  0  0  0  0
   -1.1419    3.0380    0.0000 H   0  0  0  0  0  0  0  0  0  0  0  0
   -2.1756    2.4971    0.0000 H   0  0  0  0  0  0  0  0  0  0  0  0
   -1.6347    1.4633    0.0000 H   0  0  0  0  0  0  0  0  0  0  0  0
    0.2943    1.3917    0.0000 H   0  0  0  0  0  0  0  0  0  0  0  0
   -0.2979   -0.8976    0.0000 H   0  0  0  0  0  0  0  0  0  0  0  0
    0.3450   -1.0720    0.0000 H   0  0  0  0  0  0  0  0  0  0  0  0
    1.2902   -1.3260    0.0000 H   0  0  0  0  0  0  0  0  0  0  0  0
    1.9751   -0.9558    0.0000 H   0  0  0  0  0  0  0  0  0  0  0  0
    2.3600   -0.3232    0.0000 H   0  0  0  0  0  0  0  0  0  0  0  0
    2.3811    0.5975    0.0000 H   0  0  0  0  0  0  0  0  0  0  0  0
    2.0257    1.2472    0.0000 H   0  0  0  0  0  0  0  0  0  0  0  0
    1.7399    1.5758    0.0000 H   0  0  0  0  0  0  0  0  0  0  0  0
    1.3921    2.5536    0.0000 H   0  0  0  0  0  0  0  0  0  0  0  0
    0.3632    2.4176    0.0000 H   0  0  0  0  0  0  0  0  0  0  0  0
   -0.9767    1.0307    0.0000 H   0  0  0  0  0  0  0  0  0  0  0  0
   -1.1616    0.4386    0.0000 H   0  0  0  0  0  0  0  0  0  0  0  0
   -0.8818   -0.1149    0.0000 H   0  0  0  0  0  0  0  0  0  0  0  0
   -1.0769   -0.5562    0.0000 H   0  0  0  0  0  0  0  0  0  0  0  0
   -0.7764   -0.9585    0.0000 H   0  0  0  0  0  0  0  0  0  0  0  0
    0.1171    0.4265    0.0000 H   0  0  0  0  0  0  0  0  0  0  0  0
  1  2  1  0  0  0  0
  2  3  2  0  0  0  0
  2  4  1  0  0  0  0
  4  5  1  0  0  0  0
  5  6  1  0  0  0  0
  6  7  1  0  0  0  0
  7  8  1  0  0  0  0
  8  9  1  0  0  0  0
  9 10  1  0  0  0  0
  5 10  1  0  0  0  0
 10 11  1  0  0  0  0
 10 12  1  0  0  0  0
  7 12  1  0  0  0  0
 12 13  1  0  0  0  0
 12 14  1  0  0  0  0
  1 15  1  0  0  0  0
  1 16  1  0  0  0  0
  1 17  1  0  0  0  0
  5 18  1  0  0  0  0
  6 19  1  0  0  0  0
  6 20  1  0  0  0  0
  7 21  1  0  0  0  0
  8 22  1  0  0  0  0
  8 23  1  0  0  0  0
  9 24  1  0  0  0  0
  9 25  1  0  0  0  0
 11 26  1  0  0  0  0
 11 27  1  0  0  0  0
 11 28  1  0  0  0  0
 13 29  1  0  0  0  0
 13 30  1  0  0  0  0
 13 31  1  0  0  0  0
 14 32  1  0  0  0  0
 14 33  1  0  0  0  0
 14 34  1  0  0  0  0
M  END
>  <InChIKey>
KGEKLUUHTZCSIP-JFGNBEQYSA-N

>  <UN GHS>
Non-irritant

>  <CASRN>
125-12-2

> <Outcome>
0

>  <Index>
379

>  <StandardizerResult>
Clear Stereo (ID: ClearStereo)
Wedge Clean (ID: WedgeClean)
Mesomerize (ID: Mesomerize)
Tautomerize (ID: Tautomerize)
Add Explicit Hydrogens (ID: AddExplicitH)
Neutralize (ID: Neutralize)
Clean 2D (ID: Clean2D)

> <knn Distance>
3.31662487983704

> <CpId>
379

$$$$
400
  Mrv1532301301811342D          

 21 20  0  0  0  0            999 V2000
   -0.1454   -2.4343    0.0000 O   0  0  0  0  0  0  0  0  0  0  0  0
    0.5690   -2.0218    0.0000 C   0  0  0  0  0  0  0  0  0  0  0  0
    1.2835   -2.4343    0.0000 O   0  0  0  0  0  0  0  0  0  0  0  0
    0.5690   -1.1968    0.0000 C   0  0  0  0  0  0  0  0  0  0  0  0
    1.2835   -0.7843    0.0000 C   0  0  0  0  0  0  0  0  0  0  0  0
    1.6960   -1.4988    0.0000 O   0  0  0  0  0  0  0  0  0  0  0  0
    1.9980   -0.3718    0.0000 C   0  0  0  0  0  0  0  0  0  0  0  0
    2.7124   -0.7843    0.0000 C   0  0  0  0  0  0  0  0  0  0  0  0
    3.4269   -0.3718    0.0000 O   0  0  0  0  0  0  0  0  0  0  0  0
    2.7124   -1.6093    0.0000 O   0  0  0  0  0  0  0  0  0  0  0  0
    0.8710   -0.0699    0.0000 C   0  0  0  0  0  0  0  0  0  0  0  0
    1.2835    0.6446    0.0000 O   0  0  0  0  0  0  0  0  0  0  0  0
    0.0460   -0.0699    0.0000 O   0  0  0  0  0  0  0  0  0  0  0  0
   -0.8599   -2.0218    0.0000 H   0  0  0  0  0  0  0  0  0  0  0  0
    0.1157   -0.5076    0.0000 H   0  0  0  0  0  0  0  0  0  0  0  0
   -0.2546   -1.1489    0.0000 H   0  0  0  0  0  0  0  0  0  0  0  0
    1.2835   -2.2133    0.0000 H   0  0  0  0  0  0  0  0  0  0  0  0
    2.3682    0.3654    0.0000 H   0  0  0  0  0  0  0  0  0  0  0  0
    1.6277    0.3654    0.0000 H   0  0  0  0  0  0  0  0  0  0  0  0
    4.1414   -0.7843    0.0000 H   0  0  0  0  0  0  0  0  0  0  0  0
    1.1335    1.4559    0.0000 H   0  0  0  0  0  0  0  0  0  0  0  0
  1  2  1  0  0  0  0
  2  3  2  0  0  0  0
  2  4  1  0  0  0  0
  4  5  1  0  0  0  0
  5  6  1  0  0  0  0
  5  7  1  0  0  0  0
  7  8  1  0  0  0  0
  8  9  1  0  0  0  0
  8 10  2  0  0  0  0
  5 11  1  0  0  0  0
 11 12  1  0  0  0  0
 11 13  2  0  0  0  0
  1 14  1  0  0  0  0
  4 15  1  0  0  0  0
  4 16  1  0  0  0  0
  6 17  1  0  0  0  0
  7 18  1  0  0  0  0
  7 19  1  0  0  0  0
  9 20  1  0  0  0  0
 12 21  1  0  0  0  0
M  END
>  <InChIKey>
KRKNYBCHXYNGOX-UHFFFAOYSA-N

>  <UN GHS>
Non-irritant

>  <CASRN>
77-92-9

> <Outcome>
0

>  <Index>
400

>  <StandardizerResult>
Clear Stereo (ID: ClearStereo)
Wedge Clean (ID: WedgeClean)
Mesomerize (ID: Mesomerize)
Tautomerize (ID: Tautomerize)
Add Explicit Hydrogens (ID: AddExplicitH)
Neutralize (ID: Neutralize)
Clean 2D (ID: Clean2D)

> <knn Distance>
3.31662487983704

> <CpId>
400

$$$$
403
  Mrv1532301301811342D          

 35 34  0  0  0  0            999 V2000
    3.9441    2.2870    0.0000 C   0  0  0  0  0  0  0  0  0  0  0  0
    3.9441    1.4620    0.0000 C   0  0  0  0  0  0  0  0  0  0  0  0
    4.6586    1.0495    0.0000 C   0  0  0  0  0  0  0  0  0  0  0  0
    5.3731    1.4620    0.0000 Cl  0  0  0  0  0  0  0  0  0  0  0  0
    3.2297    1.0495    0.0000 O   0  0  0  0  0  0  0  0  0  0  0  0
    2.5152    1.4620    0.0000 P   0  0  0  0  0  0  0  0  0  0  0  0
    2.9277    2.1765    0.0000 O   0  0  0  0  0  0  0  0  0  0  0  0
    1.8007    1.8745    0.0000 O   0  0  0  0  0  0  0  0  0  0  0  0
    1.8007    2.6995    0.0000 C   0  0  0  0  0  0  0  0  0  0  0  0
    1.0863    3.1120    0.0000 C   0  0  0  0  0  0  0  0  0  0  0  0
    2.5152    3.1120    0.0000 C   0  0  0  0  0  0  0  0  0  0  0  0
    2.5152    3.9370    0.0000 Cl  0  0  0  0  0  0  0  0  0  0  0  0
    2.1027    0.7475    0.0000 O   0  0  0  0  0  0  0  0  0  0  0  0
    1.2777    0.7475    0.0000 C   0  0  0  0  0  0  0  0  0  0  0  0
    0.8652    1.4620    0.0000 C   0  0  0  0  0  0  0  0  0  0  0  0
    0.8652    0.0331    0.0000 C   0  0  0  0  0  0  0  0  0  0  0  0
    0.0402    0.0331    0.0000 Cl  0  0  0  0  0  0  0  0  0  0  0  0
    4.7691    2.2870    0.0000 H   0  0  0  0  0  0  0  0  0  0  0  0
    3.9441    3.1120    0.0000 H   0  0  0  0  0  0  0  0  0  0  0  0
    3.1191    2.2870    0.0000 H   0  0  0  0  0  0  0  0  0  0  0  0
    4.6586    1.8745    0.0000 H   0  0  0  0  0  0  0  0  0  0  0  0
    4.2884    0.3122    0.0000 H   0  0  0  0  0  0  0  0  0  0  0  0
    5.0289    0.3122    0.0000 H   0  0  0  0  0  0  0  0  0  0  0  0
    1.0863    2.2870    0.0000 H   0  0  0  0  0  0  0  0  0  0  0  0
    1.6696    3.6954    0.0000 H   0  0  0  0  0  0  0  0  0  0  0  0
    0.6738    3.8265    0.0000 H   0  0  0  0  0  0  0  0  0  0  0  0
    0.2894    2.8985    0.0000 H   0  0  0  0  0  0  0  0  0  0  0  0
    2.9686    2.4227    0.0000 H   0  0  0  0  0  0  0  0  0  0  0  0
    3.3388    3.0640    0.0000 H   0  0  0  0  0  0  0  0  0  0  0  0
    1.6902    1.4620    0.0000 H   0  0  0  0  0  0  0  0  0  0  0  0
    0.3212    2.0823    0.0000 H   0  0  0  0  0  0  0  0  0  0  0  0
    0.0473    1.3543    0.0000 H   0  0  0  0  0  0  0  0  0  0  0  0
    0.5003    0.7221    0.0000 H   0  0  0  0  0  0  0  0  0  0  0  0
    0.9132   -0.7906    0.0000 H   0  0  0  0  0  0  0  0  0  0  0  0
    1.5545   -0.4203    0.0000 H   0  0  0  0  0  0  0  0  0  0  0  0
  1  2  1  0  0  0  0
  2  3  1  0  0  0  0
  3  4  1  0  0  0  0
  2  5  1  0  0  0  0
  5  6  1  0  0  0  0
  6  7  2  0  0  0  0
  6  8  1  0  0  0  0
  8  9  1  0  0  0  0
  9 10  1  0  0  0  0
  9 11  1  0  0  0  0
 11 12  1  0  0  0  0
  6 13  1  0  0  0  0
 13 14  1  0  0  0  0
 14 15  1  0  0  0  0
 14 16  1  0  0  0  0
 16 17  1  0  0  0  0
  1 18  1  0  0  0  0
  1 19  1  0  0  0  0
  1 20  1  0  0  0  0
  2 21  1  0  0  0  0
  3 22  1  0  0  0  0
  3 23  1  0  0  0  0
  9 24  1  0  0  0  0
 10 25  1  0  0  0  0
 10 26  1  0  0  0  0
 10 27  1  0  0  0  0
 11 28  1  0  0  0  0
 11 29  1  0  0  0  0
 14 30  1  0  0  0  0
 15 31  1  0  0  0  0
 15 32  1  0  0  0  0
 15 33  1  0  0  0  0
 16 34  1  0  0  0  0
 16 35  1  0  0  0  0
M  END
>  <InChIKey>
KVMPUXDNESXNOH-UHFFFAOYSA-N

>  <UN GHS>
Non-irritant

>  <CASRN>
13674-84-5

> <Outcome>
0

>  <Index>
403

>  <StandardizerResult>
Clear Stereo (ID: ClearStereo)
Wedge Clean (ID: WedgeClean)
Mesomerize (ID: Mesomerize)
Tautomerize (ID: Tautomerize)
Add Explicit Hydrogens (ID: AddExplicitH)
Neutralize (ID: Neutralize)
Clean 2D (ID: Clean2D)

> <knn Distance>
3.31662487983704

> <CpId>
403

$$$$
464
  Mrv1532301301811342D          

 36 36  0  0  0  0            999 V2000
    0.0318    3.2800    0.0000 C   0  0  0  0  0  0  0  0  0  0  0  0
    0.0318    2.4550    0.0000 C   0  0  0  0  0  0  0  0  0  0  0  0
   -0.6827    2.0425    0.0000 O   0  0  0  0  0  0  0  0  0  0  0  0
    0.7463    2.0425    0.0000 O   0  0  0  0  0  0  0  0  0  0  0  0
    0.7463    1.2175    0.0000 C   0  0  0  0  0  0  0  0  0  0  0  0
    1.4607    0.8050    0.0000 C   0  0  0  0  0  0  0  0  0  0  0  0
    1.4607   -0.0200    0.0000 C   0  0  0  0  0  0  0  0  0  0  0  0
    0.7463   -0.4325    0.0000 C   0  0  0  0  0  0  0  0  0  0  0  0
    0.0318   -0.0200    0.0000 C   0  0  0  0  0  0  0  0  0  0  0  0
    0.0318    0.8050    0.0000 C   0  0  0  0  0  0  0  0  0  0  0  0
    0.7463   -1.2575    0.0000 C   0  0  0  0  0  0  0  0  0  0  0  0
    0.7463   -2.0825    0.0000 C   0  0  0  0  0  0  0  0  0  0  0  0
   -0.0787   -1.2575    0.0000 C   0  0  0  0  0  0  0  0  0  0  0  0
    1.5713   -1.2575    0.0000 C   0  0  0  0  0  0  0  0  0  0  0  0
    0.8568    3.2800    0.0000 H   0  0  0  0  0  0  0  0  0  0  0  0
    0.0318    4.1050    0.0000 H   0  0  0  0  0  0  0  0  0  0  0  0
   -0.7932    3.2800    0.0000 H   0  0  0  0  0  0  0  0  0  0  0  0
    0.0318    1.6300    0.0000 H   0  0  0  0  0  0  0  0  0  0  0  0
    2.2843    0.8530    0.0000 H   0  0  0  0  0  0  0  0  0  0  0  0
    1.9141    1.4943    0.0000 H   0  0  0  0  0  0  0  0  0  0  0  0
    1.9141   -0.7093    0.0000 H   0  0  0  0  0  0  0  0  0  0  0  0
    2.2843   -0.0680    0.0000 H   0  0  0  0  0  0  0  0  0  0  0  0
    0.0318   -0.8450    0.0000 H   0  0  0  0  0  0  0  0  0  0  0  0
   -0.7435    0.2621    0.0000 H   0  0  0  0  0  0  0  0  0  0  0  0
   -0.7435   -0.3022    0.0000 H   0  0  0  0  0  0  0  0  0  0  0  0
   -0.7000    1.1859    0.0000 H   0  0  0  0  0  0  0  0  0  0  0  0
    0.7463    0.3925    0.0000 H   0  0  0  0  0  0  0  0  0  0  0  0
   -0.0787   -2.0825    0.0000 H   0  0  0  0  0  0  0  0  0  0  0  0
    0.7463   -2.9075    0.0000 H   0  0  0  0  0  0  0  0  0  0  0  0
    1.5713   -2.0825    0.0000 H   0  0  0  0  0  0  0  0  0  0  0  0
   -0.5371   -0.5716    0.0000 H   0  0  0  0  0  0  0  0  0  0  0  0
   -0.8967   -1.1498    0.0000 H   0  0  0  0  0  0  0  0  0  0  0  0
   -0.6990   -1.8015    0.0000 H   0  0  0  0  0  0  0  0  0  0  0  0
    2.1970   -1.7952    0.0000 H   0  0  0  0  0  0  0  0  0  0  0  0
    2.3869   -1.1334    0.0000 H   0  0  0  0  0  0  0  0  0  0  0  0
    1.1714   -0.5359    0.0000 H   0  0  0  0  0  0  0  0  0  0  0  0
  1  2  1  0  0  0  0
  2  3  2  0  0  0  0
  2  4  1  0  0  0  0
  4  5  1  0  0  0  0
  5  6  1  0  0  0  0
  6  7  1  0  0  0  0
  7  8  1  0  0  0  0
  8  9  1  0  0  0  0
  9 10  1  0  0  0  0
  5 10  1  0  0  0  0
  8 11  1  0  0  0  0
 11 12  1  0  0  0  0
 11 13  1  0  0  0  0
 11 14  1  0  0  0  0
  1 15  1  0  0  0  0
  1 16  1  0  0  0  0
  1 17  1  0  0  0  0
  5 18  1  0  0  0  0
  6 19  1  0  0  0  0
  6 20  1  0  0  0  0
  7 21  1  0  0  0  0
  7 22  1  0  0  0  0
  8 23  1  0  0  0  0
  9 24  1  0  0  0  0
  9 25  1  0  0  0  0
 10 26  1  0  0  0  0
 10 27  1  0  0  0  0
 12 28  1  0  0  0  0
 12 29  1  0  0  0  0
 12 30  1  0  0  0  0
 13 31  1  0  0  0  0
 13 32  1  0  0  0  0
 13 33  1  0  0  0  0
 14 34  1  0  0  0  0
 14 35  1  0  0  0  0
 14 36  1  0  0  0  0
M  END
>  <InChIKey>
MBZRJSQZCBXRGK-UHFFFAOYSA-N

>  <UN GHS>
Non-irritant

>  <CASRN>
32210-23-4

> <Outcome>
0

>  <Index>
464

>  <StandardizerResult>
Clear Stereo (ID: ClearStereo)
Wedge Clean (ID: WedgeClean)
Mesomerize (ID: Mesomerize)
Tautomerize (ID: Tautomerize)
Add Explicit Hydrogens (ID: AddExplicitH)
Neutralize (ID: Neutralize)
Clean 2D (ID: Clean2D)

> <knn Distance>
3.31662487983704

> <CpId>
464

$$$$
478
  Mrv1532301301811342D          

 29 30  0  0  0  0            999 V2000
    3.5734   -0.4131    0.0000 C   0  0  0  0  0  0  0  0  0  0  0  0
    3.5734   -1.2381    0.0000 O   0  0  0  0  0  0  0  0  0  0  0  0
    2.8590   -1.6506    0.0000 C   0  0  0  0  0  0  0  0  0  0  0  0
    2.8590   -2.4756    0.0000 C   0  0  0  0  0  0  0  0  0  0  0  0
    3.5734   -2.8881    0.0000 C   0  0  0  0  0  0  0  0  0  0  0  0
    3.5734   -3.7131    0.0000 C   0  0  0  0  0  0  0  0  0  0  0  0
    2.8590   -4.1256    0.0000 C   0  0  0  0  0  0  0  0  0  0  0  0
    2.1445   -3.7131    0.0000 C   0  0  0  0  0  0  0  0  0  0  0  0
    2.1445   -2.8881    0.0000 C   0  0  0  0  0  0  0  0  0  0  0  0
    4.2879   -0.0006    0.0000 C   0  0  0  0  0  0  0  0  0  0  0  0
    4.2879    0.8244    0.0000 C   0  0  0  0  0  0  0  0  0  0  0  0
    5.0024    1.2369    0.0000 C   0  0  0  0  0  0  0  0  0  0  0  0
    5.7168    0.8244    0.0000 C   0  0  0  0  0  0  0  0  0  0  0  0
    5.7168   -0.0006    0.0000 C   0  0  0  0  0  0  0  0  0  0  0  0
    5.0024   -0.4131    0.0000 C   0  0  0  0  0  0  0  0  0  0  0  0
    3.1201    0.2762    0.0000 H   0  0  0  0  0  0  0  0  0  0  0  0
    2.7498   -0.3651    0.0000 H   0  0  0  0  0  0  0  0  0  0  0  0
    2.4056   -0.9613    0.0000 H   0  0  0  0  0  0  0  0  0  0  0  0
    2.0353   -1.6026    0.0000 H   0  0  0  0  0  0  0  0  0  0  0  0
    4.2879   -2.4756    0.0000 H   0  0  0  0  0  0  0  0  0  0  0  0
    4.2879   -4.1256    0.0000 H   0  0  0  0  0  0  0  0  0  0  0  0
    2.8590   -4.9506    0.0000 H   0  0  0  0  0  0  0  0  0  0  0  0
    1.4300   -4.1256    0.0000 H   0  0  0  0  0  0  0  0  0  0  0  0
    1.4300   -2.4756    0.0000 H   0  0  0  0  0  0  0  0  0  0  0  0
    3.5734    1.2369    0.0000 H   0  0  0  0  0  0  0  0  0  0  0  0
    5.0024    2.0619    0.0000 H   0  0  0  0  0  0  0  0  0  0  0  0
    6.4313    1.2369    0.0000 H   0  0  0  0  0  0  0  0  0  0  0  0
    6.4313   -0.4131    0.0000 H   0  0  0  0  0  0  0  0  0  0  0  0
    5.0024   -1.2381    0.0000 H   0  0  0  0  0  0  0  0  0  0  0  0
  1  2  1  0  0  0  0
  2  3  1  0  0  0  0
  3  4  1  0  0  0  0
  4  5  4  0  0  0  0
  5  6  4  0  0  0  0
  6  7  4  0  0  0  0
  7  8  4  0  0  0  0
  8  9  4  0  0  0  0
  4  9  4  0  0  0  0
  1 10  1  0  0  0  0
 10 11  4  0  0  0  0
 11 12  4  0  0  0  0
 12 13  4  0  0  0  0
 13 14  4  0  0  0  0
 14 15  4  0  0  0  0
 10 15  4  0  0  0  0
  1 16  1  0  0  0  0
  1 17  1  0  0  0  0
  3 18  1  0  0  0  0
  3 19  1  0  0  0  0
  5 20  1  0  0  0  0
  6 21  1  0  0  0  0
  7 22  1  0  0  0  0
  8 23  1  0  0  0  0
  9 24  1  0  0  0  0
 11 25  1  0  0  0  0
 12 26  1  0  0  0  0
 13 27  1  0  0  0  0
 14 28  1  0  0  0  0
 15 29  1  0  0  0  0
M  END
>  <InChIKey>
MHDVGSVTJDSBDK-UHFFFAOYSA-N

>  <UN GHS>
Non-irritant

>  <CASRN>
103-50-4

> <Outcome>
0

>  <Index>
478

>  <StandardizerResult>
Dearomatize (ID: Dearomatize)
Clear Stereo (ID: ClearStereo)
Wedge Clean (ID: WedgeClean)
Mesomerize (ID: Mesomerize)
Tautomerize (ID: Tautomerize)
Aromatize (ID: Aromatize)
Add Explicit Hydrogens (ID: AddExplicitH)
Neutralize (ID: Neutralize)
Clean 2D (ID: Clean2D)

> <knn Distance>
3.31662487983704

> <CpId>
478

$$$$
495
  Mrv1532301301811342D          

 50 49  0  0  0  0            999 V2000
    1.7697    1.8107    0.0000 C   0  0  0  0  0  0  0  0  0  0  0  0
    2.4842    1.3982    0.0000 C   0  0  0  0  0  0  0  0  0  0  0  0
    3.1987    1.8107    0.0000 C   0  0  0  0  0  0  0  0  0  0  0  0
    3.9131    1.3982    0.0000 C   0  0  0  0  0  0  0  0  0  0  0  0
    4.6276    1.8107    0.0000 C   0  0  0  0  0  0  0  0  0  0  0  0
    5.3421    1.3982    0.0000 C   0  0  0  0  0  0  0  0  0  0  0  0
    6.0566    1.8107    0.0000 C   0  0  0  0  0  0  0  0  0  0  0  0
    6.7710    1.3982    0.0000 C   0  0  0  0  0  0  0  0  0  0  0  0
    7.4855    1.8107    0.0000 Si  0  0  0  0  0  0  0  0  0  0  0  0
    8.2000    2.2232    0.0000 O   0  0  0  0  0  0  0  0  0  0  0  0
    8.9144    1.8107    0.0000 C   0  0  0  0  0  0  0  0  0  0  0  0
    9.6289    2.2232    0.0000 C   0  0  0  0  0  0  0  0  0  0  0  0
    7.8980    1.0963    0.0000 O   0  0  0  0  0  0  0  0  0  0  0  0
    8.7230    1.0963    0.0000 C   0  0  0  0  0  0  0  0  0  0  0  0
    9.1355    0.3818    0.0000 C   0  0  0  0  0  0  0  0  0  0  0  0
    7.0730    2.5252    0.0000 O   0  0  0  0  0  0  0  0  0  0  0  0
    7.4855    3.2397    0.0000 C   0  0  0  0  0  0  0  0  0  0  0  0
    8.3105    3.2397    0.0000 C   0  0  0  0  0  0  0  0  0  0  0  0
    2.1822    2.5252    0.0000 H   0  0  0  0  0  0  0  0  0  0  0  0
    1.0553    2.2232    0.0000 H   0  0  0  0  0  0  0  0  0  0  0  0
    1.3572    1.0963    0.0000 H   0  0  0  0  0  0  0  0  0  0  0  0
    2.1139    0.6610    0.0000 H   0  0  0  0  0  0  0  0  0  0  0  0
    2.8545    0.6610    0.0000 H   0  0  0  0  0  0  0  0  0  0  0  0
    3.5689    2.5480    0.0000 H   0  0  0  0  0  0  0  0  0  0  0  0
    2.8284    2.5480    0.0000 H   0  0  0  0  0  0  0  0  0  0  0  0
    3.5429    0.6610    0.0000 H   0  0  0  0  0  0  0  0  0  0  0  0
    4.2834    0.6610    0.0000 H   0  0  0  0  0  0  0  0  0  0  0  0
    4.9979    2.5480    0.0000 H   0  0  0  0  0  0  0  0  0  0  0  0
    4.2574    2.5480    0.0000 H   0  0  0  0  0  0  0  0  0  0  0  0
    4.9718    0.6610    0.0000 H   0  0  0  0  0  0  0  0  0  0  0  0
    5.7123    0.6610    0.0000 H   0  0  0  0  0  0  0  0  0  0  0  0
    6.4268    2.5480    0.0000 H   0  0  0  0  0  0  0  0  0  0  0  0
    5.6863    2.5480    0.0000 H   0  0  0  0  0  0  0  0  0  0  0  0
    6.4008    0.6610    0.0000 H   0  0  0  0  0  0  0  0  0  0  0  0
    7.1413    0.6610    0.0000 H   0  0  0  0  0  0  0  0  0  0  0  0
    9.5690    1.3085    0.0000 H   0  0  0  0  0  0  0  0  0  0  0  0
    8.9144    2.6357    0.0000 H   0  0  0  0  0  0  0  0  0  0  0  0
   10.3223    1.7762    0.0000 H   0  0  0  0  0  0  0  0  0  0  0  0
   10.3565    2.6121    0.0000 H   0  0  0  0  0  0  0  0  0  0  0  0
    9.6424    3.0481    0.0000 H   0  0  0  0  0  0  0  0  0  0  0  0
    8.2208    1.7508    0.0000 H   0  0  0  0  0  0  0  0  0  0  0  0
    8.3105    0.3818    0.0000 H   0  0  0  0  0  0  0  0  0  0  0  0
    8.9220   -0.4151    0.0000 H   0  0  0  0  0  0  0  0  0  0  0  0
    9.8500   -0.0307    0.0000 H   0  0  0  0  0  0  0  0  0  0  0  0
    9.7189    0.9652    0.0000 H   0  0  0  0  0  0  0  0  0  0  0  0
    7.4375    4.0633    0.0000 H   0  0  0  0  0  0  0  0  0  0  0  0
    6.7962    3.6930    0.0000 H   0  0  0  0  0  0  0  0  0  0  0  0
    8.9187    3.7970    0.0000 H   0  0  0  0  0  0  0  0  0  0  0  0
    8.2745    4.0639    0.0000 H   0  0  0  0  0  0  0  0  0  0  0  0
    7.9948    2.4775    0.0000 H   0  0  0  0  0  0  0  0  0  0  0  0
  1  2  1  0  0  0  0
  2  3  1  0  0  0  0
  3  4  1  0  0  0  0
  4  5  1  0  0  0  0
  5  6  1  0  0  0  0
  6  7  1  0  0  0  0
  7  8  1  0  0  0  0
  8  9  1  0  0  0  0
  9 10  1  0  0  0  0
 10 11  1  0  0  0  0
 11 12  1  0  0  0  0
  9 13  1  0  0  0  0
 13 14  1  0  0  0  0
 14 15  1  0  0  0  0
  9 16  1  0  0  0  0
 16 17  1  0  0  0  0
 17 18  1  0  0  0  0
  1 19  1  0  0  0  0
  1 20  1  0  0  0  0
  1 21  1  0  0  0  0
  2 22  1  0  0  0  0
  2 23  1  0  0  0  0
  3 24  1  0  0  0  0
  3 25  1  0  0  0  0
  4 26  1  0  0  0  0
  4 27  1  0  0  0  0
  5 28  1  0  0  0  0
  5 29  1  0  0  0  0
  6 30  1  0  0  0  0
  6 31  1  0  0  0  0
  7 32  1  0  0  0  0
  7 33  1  0  0  0  0
  8 34  1  0  0  0  0
  8 35  1  0  0  0  0
 11 36  1  0  0  0  0
 11 37  1  0  0  0  0
 12 38  1  0  0  0  0
 12 39  1  0  0  0  0
 12 40  1  0  0  0  0
 14 41  1  0  0  0  0
 14 42  1  0  0  0  0
 15 43  1  0  0  0  0
 15 44  1  0  0  0  0
 15 45  1  0  0  0  0
 17 46  1  0  0  0  0
 17 47  1  0  0  0  0
 18 48  1  0  0  0  0
 18 49  1  0  0  0  0
 18 50  1  0  0  0  0
M  END
>  <InChIKey>
MSRJTTSHWYDFIU-UHFFFAOYSA-N

>  <UN GHS>
Non-irritant

>  <CASRN>
2943-75-1

> <Outcome>
0

>  <Index>
495

>  <StandardizerResult>
Clear Stereo (ID: ClearStereo)
Wedge Clean (ID: WedgeClean)
Mesomerize (ID: Mesomerize)
Tautomerize (ID: Tautomerize)
Add Explicit Hydrogens (ID: AddExplicitH)
Neutralize (ID: Neutralize)
Clean 2D (ID: Clean2D)

> <knn Distance>
3.31662487983704

> <CpId>
495

$$$$
555
  Mrv1532301301811342D          

 86 85  0  0  0  0            999 V2000
    5.9580    4.2200    0.0000 O   0  0  0  0  0  0  0  0  0  0  0  0
    6.6725    4.6325    0.0000 C   0  0  0  0  0  0  0  0  0  0  0  0
    7.3870    4.2200    0.0000 C   0  0  0  0  0  0  0  0  0  0  0  0
    8.1014    4.6325    0.0000 C   0  0  0  0  0  0  0  0  0  0  0  0
    8.8159    4.2200    0.0000 O   0  0  0  0  0  0  0  0  0  0  0  0
    9.5304    4.6325    0.0000 C   0  0  0  0  0  0  0  0  0  0  0  0
   10.2448    4.2200    0.0000 C   0  0  0  0  0  0  0  0  0  0  0  0
   10.2448    3.3950    0.0000 O   0  0  0  0  0  0  0  0  0  0  0  0
   10.9593    2.9825    0.0000 C   0  0  0  0  0  0  0  0  0  0  0  0
   10.9593    2.1575    0.0000 C   0  0  0  0  0  0  0  0  0  0  0  0
   11.6738    1.7450    0.0000 C   0  0  0  0  0  0  0  0  0  0  0  0
   11.6738    0.9200    0.0000 O   0  0  0  0  0  0  0  0  0  0  0  0
   10.9593    4.6325    0.0000 C   0  0  0  0  0  0  0  0  0  0  0  0
   10.9593    5.4575    0.0000 O   0  0  0  0  0  0  0  0  0  0  0  0
   10.2448    5.8700    0.0000 C   0  0  0  0  0  0  0  0  0  0  0  0
   10.2448    6.6950    0.0000 C   0  0  0  0  0  0  0  0  0  0  0  0
    9.5304    7.1075    0.0000 C   0  0  0  0  0  0  0  0  0  0  0  0
    9.5304    7.9325    0.0000 O   0  0  0  0  0  0  0  0  0  0  0  0
   11.6738    4.2200    0.0000 C   0  0  0  0  0  0  0  0  0  0  0  0
   11.6738    3.3950    0.0000 O   0  0  0  0  0  0  0  0  0  0  0  0
   12.3883    2.9825    0.0000 C   0  0  0  0  0  0  0  0  0  0  0  0
   12.3883    2.1575    0.0000 C   0  0  0  0  0  0  0  0  0  0  0  0
   13.1027    1.7450    0.0000 C   0  0  0  0  0  0  0  0  0  0  0  0
   13.1027    0.9200    0.0000 O   0  0  0  0  0  0  0  0  0  0  0  0
   12.3883    4.6325    0.0000 C   0  0  0  0  0  0  0  0  0  0  0  0
   13.1027    4.2200    0.0000 C   0  0  0  0  0  0  0  0  0  0  0  0
   13.8172    4.6325    0.0000 O   0  0  0  0  0  0  0  0  0  0  0  0
   14.5317    4.2200    0.0000 C   0  0  0  0  0  0  0  0  0  0  0  0
   15.2461    4.6325    0.0000 C   0  0  0  0  0  0  0  0  0  0  0  0
   15.9606    4.2200    0.0000 C   0  0  0  0  0  0  0  0  0  0  0  0
   16.6751    4.6325    0.0000 O   0  0  0  0  0  0  0  0  0  0  0  0
   12.3883    5.4575    0.0000 O   0  0  0  0  0  0  0  0  0  0  0  0
   11.6738    5.8700    0.0000 C   0  0  0  0  0  0  0  0  0  0  0  0
   11.6738    6.6950    0.0000 C   0  0  0  0  0  0  0  0  0  0  0  0
   10.9593    7.1075    0.0000 C   0  0  0  0  0  0  0  0  0  0  0  0
   10.9593    7.9325    0.0000 O   0  0  0  0  0  0  0  0  0  0  0  0
    5.2436    4.6325    0.0000 H   0  0  0  0  0  0  0  0  0  0  0  0
    7.0428    5.3698    0.0000 H   0  0  0  0  0  0  0  0  0  0  0  0
    6.3022    5.3698    0.0000 H   0  0  0  0  0  0  0  0  0  0  0  0
    7.0167    3.4828    0.0000 H   0  0  0  0  0  0  0  0  0  0  0  0
    7.7572    3.4828    0.0000 H   0  0  0  0  0  0  0  0  0  0  0  0
    8.4717    5.3698    0.0000 H   0  0  0  0  0  0  0  0  0  0  0  0
    7.7312    5.3698    0.0000 H   0  0  0  0  0  0  0  0  0  0  0  0
    9.9006    5.3698    0.0000 H   0  0  0  0  0  0  0  0  0  0  0  0
    9.1601    5.3698    0.0000 H   0  0  0  0  0  0  0  0  0  0  0  0
    9.5304    3.8075    0.0000 H   0  0  0  0  0  0  0  0  0  0  0  0
   10.9593    3.8075    0.0000 H   0  0  0  0  0  0  0  0  0  0  0  0
   11.6738    2.5700    0.0000 H   0  0  0  0  0  0  0  0  0  0  0  0
   10.1357    2.1096    0.0000 H   0  0  0  0  0  0  0  0  0  0  0  0
   10.5060    1.4683    0.0000 H   0  0  0  0  0  0  0  0  0  0  0  0
   12.3883    1.3325    0.0000 H   0  0  0  0  0  0  0  0  0  0  0  0
   10.9593    1.3325    0.0000 H   0  0  0  0  0  0  0  0  0  0  0  0
   11.6738    0.0950    0.0000 H   0  0  0  0  0  0  0  0  0  0  0  0
   10.2448    5.0450    0.0000 H   0  0  0  0  0  0  0  0  0  0  0  0
    9.4570    6.1149    0.0000 H   0  0  0  0  0  0  0  0  0  0  0  0
   10.9593    6.2825    0.0000 H   0  0  0  0  0  0  0  0  0  0  0  0
   10.2448    7.5200    0.0000 H   0  0  0  0  0  0  0  0  0  0  0  0
    9.5304    6.2825    0.0000 H   0  0  0  0  0  0  0  0  0  0  0  0
    8.7551    7.3897    0.0000 H   0  0  0  0  0  0  0  0  0  0  0  0
    8.7551    6.8254    0.0000 H   0  0  0  0  0  0  0  0  0  0  0  0
    9.4944    8.7568    0.0000 H   0  0  0  0  0  0  0  0  0  0  0  0
   12.3883    3.8075    0.0000 H   0  0  0  0  0  0  0  0  0  0  0  0
   13.1635    2.7004    0.0000 H   0  0  0  0  0  0  0  0  0  0  0  0
   13.1635    3.2647    0.0000 H   0  0  0  0  0  0  0  0  0  0  0  0
   11.9758    2.8720    0.0000 H   0  0  0  0  0  0  0  0  0  0  0  0
   11.5633    2.1575    0.0000 H   0  0  0  0  0  0  0  0  0  0  0  0
   13.8083    1.3175    0.0000 H   0  0  0  0  0  0  0  0  0  0  0  0
   13.8340    2.1269    0.0000 H   0  0  0  0  0  0  0  0  0  0  0  0
   13.0984    0.0950    0.0000 H   0  0  0  0  0  0  0  0  0  0  0  0
   11.6738    5.0450    0.0000 H   0  0  0  0  0  0  0  0  0  0  0  0
   13.1027    5.0450    0.0000 H   0  0  0  0  0  0  0  0  0  0  0  0
   13.8299    3.8304    0.0000 H   0  0  0  0  0  0  0  0  0  0  0  0
   14.6666    3.4061    0.0000 H   0  0  0  0  0  0  0  0  0  0  0  0
   15.1602    3.6856    0.0000 H   0  0  0  0  0  0  0  0  0  0  0  0
   15.6164    5.3698    0.0000 H   0  0  0  0  0  0  0  0  0  0  0  0
   14.8759    5.3698    0.0000 H   0  0  0  0  0  0  0  0  0  0  0  0
   15.9964    3.3958    0.0000 H   0  0  0  0  0  0  0  0  0  0  0  0
   16.6839    3.8231    0.0000 H   0  0  0  0  0  0  0  0  0  0  0  0
   17.0837    5.3492    0.0000 H   0  0  0  0  0  0  0  0  0  0  0  0
   12.4863    6.0133    0.0000 H   0  0  0  0  0  0  0  0  0  0  0  0
   12.2041    6.5020    0.0000 H   0  0  0  0  0  0  0  0  0  0  0  0
   12.3355    7.1877    0.0000 H   0  0  0  0  0  0  0  0  0  0  0  0
   11.6258    7.5186    0.0000 H   0  0  0  0  0  0  0  0  0  0  0  0
   11.3718    6.3931    0.0000 H   0  0  0  0  0  0  0  0  0  0  0  0
   10.5468    6.3931    0.0000 H   0  0  0  0  0  0  0  0  0  0  0  0
   10.9726    8.7574    0.0000 H   0  0  0  0  0  0  0  0  0  0  0  0
  1  2  1  0  0  0  0
  2  3  1  0  0  0  0
  3  4  1  0  0  0  0
  4  5  1  0  0  0  0
  5  6  1  0  0  0  0
  6  7  1  0  0  0  0
  7  8  1  0  0  0  0
  8  9  1  0  0  0  0
  9 10  1  0  0  0  0
 10 11  1  0  0  0  0
 11 12  1  0  0  0  0
  7 13  1  0  0  0  0
 13 14  1  0  0  0  0
 14 15  1  0  0  0  0
 15 16  1  0  0  0  0
 16 17  1  0  0  0  0
 17 18  1  0  0  0  0
 13 19  1  0  0  0  0
 19 20  1  0  0  0  0
 20 21  1  0  0  0  0
 21 22  1  0  0  0  0
 22 23  1  0  0  0  0
 23 24  1  0  0  0  0
 19 25  1  0  0  0  0
 25 26  1  0  0  0  0
 26 27  1  0  0  0  0
 27 28  1  0  0  0  0
 28 29  1  0  0  0  0
 29 30  1  0  0  0  0
 30 31  1  0  0  0  0
 25 32  1  0  0  0  0
 32 33  1  0  0  0  0
 33 34  1  0  0  0  0
 34 35  1  0  0  0  0
 35 36  1  0  0  0  0
  1 37  1  0  0  0  0
  2 38  1  0  0  0  0
  2 39  1  0  0  0  0
  3 40  1  0  0  0  0
  3 41  1  0  0  0  0
  4 42  1  0  0  0  0
  4 43  1  0  0  0  0
  6 44  1  0  0  0  0
  6 45  1  0  0  0  0
  7 46  1  0  0  0  0
  9 47  1  0  0  0  0
  9 48  1  0  0  0  0
 10 49  1  0  0  0  0
 10 50  1  0  0  0  0
 11 51  1  0  0  0  0
 11 52  1  0  0  0  0
 12 53  1  0  0  0  0
 13 54  1  0  0  0  0
 15 55  1  0  0  0  0
 15 56  1  0  0  0  0
 16 57  1  0  0  0  0
 16 58  1  0  0  0  0
 17 59  1  0  0  0  0
 17 60  1  0  0  0  0
 18 61  1  0  0  0  0
 19 62  1  0  0  0  0
 21 63  1  0  0  0  0
 21 64  1  0  0  0  0
 22 65  1  0  0  0  0
 22 66  1  0  0  0  0
 23 67  1  0  0  0  0
 23 68  1  0  0  0  0
 24 69  1  0  0  0  0
 25 70  1  0  0  0  0
 26 71  1  0  0  0  0
 26 72  1  0  0  0  0
 28 73  1  0  0  0  0
 28 74  1  0  0  0  0
 29 75  1  0  0  0  0
 29 76  1  0  0  0  0
 30 77  1  0  0  0  0
 30 78  1  0  0  0  0
 31 79  1  0  0  0  0
 33 80  1  0  0  0  0
 33 81  1  0  0  0  0
 34 82  1  0  0  0  0
 34 83  1  0  0  0  0
 35 84  1  0  0  0  0
 35 85  1  0  0  0  0
 36 86  1  0  0  0  0
M  END
>  <InChIKey>
OJZGCEDLMNSDNY-UHFFFAOYSA-N

>  <UN GHS>
Non-irritant

>  <CASRN>
52625-13-5

> <Outcome>
0

>  <Index>
555

>  <StandardizerResult>
Clear Stereo (ID: ClearStereo)
Wedge Clean (ID: WedgeClean)
Mesomerize (ID: Mesomerize)
Tautomerize (ID: Tautomerize)
Add Explicit Hydrogens (ID: AddExplicitH)
Neutralize (ID: Neutralize)
Clean 2D (ID: Clean2D)

> <knn Distance>
3.31662487983704

> <CpId>
555

$$$$
576
  Mrv1532301301811342D          

 19 18  0  0  0  0            999 V2000
   -0.2244    0.7018    0.0000 C   0  0  0  0  0  0  0  0  0  0  0  0
    0.4901    1.1143    0.0000 C   0  0  0  0  0  0  0  0  0  0  0  0
    0.4901    1.9393    0.0000 C   0  0  0  0  0  0  0  0  0  0  0  0
    1.2045    0.7018    0.0000 C   0  0  0  0  0  0  0  0  0  0  0  0
    1.9190    1.1143    0.0000 O   0  0  0  0  0  0  0  0  0  0  0  0
    2.6335    0.7018    0.0000 C   0  0  0  0  0  0  0  0  0  0  0  0
    3.3480    1.1143    0.0000 C   0  0  0  0  0  0  0  0  0  0  0  0
   -0.6369    1.4162    0.0000 H   0  0  0  0  0  0  0  0  0  0  0  0
   -0.9389    0.2893    0.0000 H   0  0  0  0  0  0  0  0  0  0  0  0
    0.1881   -0.0127    0.0000 H   0  0  0  0  0  0  0  0  0  0  0  0
   -0.2244    1.5268    0.0000 H   0  0  0  0  0  0  0  0  0  0  0  0
    1.2870    1.7258    0.0000 H   0  0  0  0  0  0  0  0  0  0  0  0
    0.9026    2.6537    0.0000 H   0  0  0  0  0  0  0  0  0  0  0  0
   -0.0933    2.5226    0.0000 H   0  0  0  0  0  0  0  0  0  0  0  0
    0.8343   -0.0355    0.0000 H   0  0  0  0  0  0  0  0  0  0  0  0
    1.5748   -0.0355    0.0000 H   0  0  0  0  0  0  0  0  0  0  0  0
    2.6335   -0.1232    0.0000 H   0  0  0  0  0  0  0  0  0  0  0  0
    4.0624    0.7018    0.0000 H   0  0  0  0  0  0  0  0  0  0  0  0
    3.3480    1.9393    0.0000 H   0  0  0  0  0  0  0  0  0  0  0  0
  1  2  1  0  0  0  0
  2  3  1  0  0  0  0
  2  4  1  0  0  0  0
  4  5  1  0  0  0  0
  5  6  1  0  0  0  0
  6  7  2  0  0  0  0
  1  8  1  0  0  0  0
  1  9  1  0  0  0  0
  1 10  1  0  0  0  0
  2 11  1  0  0  0  0
  3 12  1  0  0  0  0
  3 13  1  0  0  0  0
  3 14  1  0  0  0  0
  4 15  1  0  0  0  0
  4 16  1  0  0  0  0
  6 17  1  0  0  0  0
  7 18  1  0  0  0  0
  7 19  1  0  0  0  0
M  END
>  <InChIKey>
OZCMOJQQLBXBKI-UHFFFAOYSA-N

>  <UN GHS>
Non-irritant

>  <CASRN>
109-53-5

> <Outcome>
0

>  <Index>
576

>  <StandardizerResult>
Clear Stereo (ID: ClearStereo)
Wedge Clean (ID: WedgeClean)
Mesomerize (ID: Mesomerize)
Tautomerize (ID: Tautomerize)
Add Explicit Hydrogens (ID: AddExplicitH)
Neutralize (ID: Neutralize)
Clean 2D (ID: Clean2D)

> <knn Distance>
3.31662487983704

> <CpId>
576

$$$$
584
  Mrv1532301301811342D          

 14 13  0  0  0  0            999 V2000
    2.4658   -1.4017    0.0000 O   0  0  0  0  0  0  0  0  0  0  0  0
    2.0533   -0.6872    0.0000 C   0  0  0  0  0  0  0  0  0  0  0  0
    1.2283   -0.6872    0.0000 C   0  0  0  0  0  0  0  0  0  0  0  0
    0.8158   -1.4017    0.0000 O   0  0  0  0  0  0  0  0  0  0  0  0
    0.8158    0.0273    0.0000 C   0  0  0  0  0  0  0  0  0  0  0  0
   -0.0092    0.0273    0.0000 O   0  0  0  0  0  0  0  0  0  0  0  0
    2.0533   -2.1161    0.0000 H   0  0  0  0  0  0  0  0  0  0  0  0
    2.7426   -0.2338    0.0000 H   0  0  0  0  0  0  0  0  0  0  0  0
    2.1013    0.1364    0.0000 H   0  0  0  0  0  0  0  0  0  0  0  0
    1.6408   -1.4017    0.0000 H   0  0  0  0  0  0  0  0  0  0  0  0
    0.1014   -1.8142    0.0000 H   0  0  0  0  0  0  0  0  0  0  0  0
    1.5051    0.4806    0.0000 H   0  0  0  0  0  0  0  0  0  0  0  0
    0.8638    0.8509    0.0000 H   0  0  0  0  0  0  0  0  0  0  0  0
   -0.4217    0.7418    0.0000 H   0  0  0  0  0  0  0  0  0  0  0  0
  1  2  1  0  0  0  0
  2  3  1  0  0  0  0
  3  4  1  0  0  0  0
  3  5  1  0  0  0  0
  5  6  1  0  0  0  0
  1  7  1  0  0  0  0
  2  8  1  0  0  0  0
  2  9  1  0  0  0  0
  3 10  1  0  0  0  0
  4 11  1  0  0  0  0
  5 12  1  0  0  0  0
  5 13  1  0  0  0  0
  6 14  1  0  0  0  0
M  END
>  <InChIKey>
PEDCQBHIVMGVHV-UHFFFAOYSA-N

>  <UN GHS>
Non-irritant

>  <CASRN>
25618-55-7

> <Outcome>
0

>  <Index>
584

>  <StandardizerResult>
Clear Stereo (ID: ClearStereo)
Wedge Clean (ID: WedgeClean)
Mesomerize (ID: Mesomerize)
Tautomerize (ID: Tautomerize)
Add Explicit Hydrogens (ID: AddExplicitH)
Neutralize (ID: Neutralize)
Clean 2D (ID: Clean2D)

> <knn Distance>
3.31662487983704

> <CpId>
584

$$$$
595
  Mrv1532301301811342D          

 67 67  0  0  0  0            999 V2000
    1.4529   -4.9317    0.0000 C   0  0  0  0  0  0  0  0  0  0  0  0
    2.1673   -5.3442    0.0000 C   0  0  0  0  0  0  0  0  0  0  0  0
    2.8818   -4.9317    0.0000 C   0  0  0  0  0  0  0  0  0  0  0  0
    3.5963   -5.3442    0.0000 C   0  0  0  0  0  0  0  0  0  0  0  0
    3.5963   -6.1692    0.0000 C   0  0  0  0  0  0  0  0  0  0  0  0
    4.3108   -6.5817    0.0000 C   0  0  0  0  0  0  0  0  0  0  0  0
    4.3108   -4.9317    0.0000 C   0  0  0  0  0  0  0  0  0  0  0  0
    5.0252   -5.3442    0.0000 O   0  0  0  0  0  0  0  0  0  0  0  0
    5.7397   -4.9317    0.0000 C   0  0  0  0  0  0  0  0  0  0  0  0
    5.7397   -4.1067    0.0000 O   0  0  0  0  0  0  0  0  0  0  0  0
    6.4542   -5.3442    0.0000 C   0  0  0  0  0  0  0  0  0  0  0  0
    7.1686   -4.9317    0.0000 C   0  0  0  0  0  0  0  0  0  0  0  0
    7.8831   -5.3442    0.0000 C   0  0  0  0  0  0  0  0  0  0  0  0
    8.5976   -4.9317    0.0000 C   0  0  0  0  0  0  0  0  0  0  0  0
    9.3121   -5.3442    0.0000 C   0  0  0  0  0  0  0  0  0  0  0  0
    9.3121   -6.1692    0.0000 C   0  0  0  0  0  0  0  0  0  0  0  0
   10.0265   -6.5817    0.0000 O   0  0  0  0  0  0  0  0  0  0  0  0
    8.5976   -6.5817    0.0000 C   0  0  0  0  0  0  0  0  0  0  0  0
    7.8831   -6.1692    0.0000 C   0  0  0  0  0  0  0  0  0  0  0  0
    8.5976   -7.4067    0.0000 C   0  0  0  0  0  0  0  0  0  0  0  0
    8.5976   -8.2317    0.0000 C   0  0  0  0  0  0  0  0  0  0  0  0
    7.7726   -7.4067    0.0000 C   0  0  0  0  0  0  0  0  0  0  0  0
    9.4226   -7.4067    0.0000 C   0  0  0  0  0  0  0  0  0  0  0  0
   10.0265   -4.9317    0.0000 C   0  0  0  0  0  0  0  0  0  0  0  0
   10.7410   -4.5192    0.0000 C   0  0  0  0  0  0  0  0  0  0  0  0
   10.4390   -5.6462    0.0000 C   0  0  0  0  0  0  0  0  0  0  0  0
    9.6140   -4.2172    0.0000 C   0  0  0  0  0  0  0  0  0  0  0  0
    1.8654   -4.2172    0.0000 H   0  0  0  0  0  0  0  0  0  0  0  0
    0.7384   -4.5192    0.0000 H   0  0  0  0  0  0  0  0  0  0  0  0
    1.0404   -5.6462    0.0000 H   0  0  0  0  0  0  0  0  0  0  0  0
    1.7971   -6.0815    0.0000 H   0  0  0  0  0  0  0  0  0  0  0  0
    2.5376   -6.0815    0.0000 H   0  0  0  0  0  0  0  0  0  0  0  0
    3.2521   -4.1945    0.0000 H   0  0  0  0  0  0  0  0  0  0  0  0
    2.5116   -4.1945    0.0000 H   0  0  0  0  0  0  0  0  0  0  0  0
    2.8818   -5.7567    0.0000 H   0  0  0  0  0  0  0  0  0  0  0  0
    2.9643   -6.6995    0.0000 H   0  0  0  0  0  0  0  0  0  0  0  0
    3.4530   -6.9817    0.0000 H   0  0  0  0  0  0  0  0  0  0  0  0
    4.4717   -7.3909    0.0000 H   0  0  0  0  0  0  0  0  0  0  0  0
    5.1350   -6.6177    0.0000 H   0  0  0  0  0  0  0  0  0  0  0  0
    4.5416   -5.7897    0.0000 H   0  0  0  0  0  0  0  0  0  0  0  0
    4.6810   -4.1945    0.0000 H   0  0  0  0  0  0  0  0  0  0  0  0
    3.9405   -4.1945    0.0000 H   0  0  0  0  0  0  0  0  0  0  0  0
    6.0839   -6.0815    0.0000 H   0  0  0  0  0  0  0  0  0  0  0  0
    6.8244   -6.0815    0.0000 H   0  0  0  0  0  0  0  0  0  0  0  0
    7.5389   -4.1945    0.0000 H   0  0  0  0  0  0  0  0  0  0  0  0
    6.7984   -4.1945    0.0000 H   0  0  0  0  0  0  0  0  0  0  0  0
    8.5976   -4.1067    0.0000 H   0  0  0  0  0  0  0  0  0  0  0  0
   10.0265   -7.4067    0.0000 H   0  0  0  0  0  0  0  0  0  0  0  0
    7.1686   -6.5817    0.0000 H   0  0  0  0  0  0  0  0  0  0  0  0
    7.7726   -8.2317    0.0000 H   0  0  0  0  0  0  0  0  0  0  0  0
    8.5976   -9.0567    0.0000 H   0  0  0  0  0  0  0  0  0  0  0  0
    9.4226   -8.2317    0.0000 H   0  0  0  0  0  0  0  0  0  0  0  0
    8.0883   -6.6445    0.0000 H   0  0  0  0  0  0  0  0  0  0  0  0
    7.1892   -6.8233    0.0000 H   0  0  0  0  0  0  0  0  0  0  0  0
    7.0104   -7.7224    0.0000 H   0  0  0  0  0  0  0  0  0  0  0  0
    9.7047   -6.6315    0.0000 H   0  0  0  0  0  0  0  0  0  0  0  0
    9.1404   -6.6315    0.0000 H   0  0  0  0  0  0  0  0  0  0  0  0
   10.0059   -7.9901    0.0000 H   0  0  0  0  0  0  0  0  0  0  0  0
   11.1535   -5.2337    0.0000 H   0  0  0  0  0  0  0  0  0  0  0  0
   11.4555   -4.1067    0.0000 H   0  0  0  0  0  0  0  0  0  0  0  0
   10.3285   -3.8047    0.0000 H   0  0  0  0  0  0  0  0  0  0  0  0
    9.6211   -5.7539    0.0000 H   0  0  0  0  0  0  0  0  0  0  0  0
   10.2255   -6.4431    0.0000 H   0  0  0  0  0  0  0  0  0  0  0  0
   11.0935   -6.1484    0.0000 H   0  0  0  0  0  0  0  0  0  0  0  0
    9.5063   -3.3993    0.0000 H   0  0  0  0  0  0  0  0  0  0  0  0
    8.8171   -4.0037    0.0000 H   0  0  0  0  0  0  0  0  0  0  0  0
    9.1118   -4.8718    0.0000 H   0  0  0  0  0  0  0  0  0  0  0  0
  1  2  1  0  0  0  0
  2  3  1  0  0  0  0
  3  4  1  0  0  0  0
  4  5  1  0  0  0  0
  5  6  1  0  0  0  0
  4  7  1  0  0  0  0
  7  8  1  0  0  0  0
  8  9  1  0  0  0  0
  9 10  2  0  0  0  0
  9 11  1  0  0  0  0
 11 12  1  0  0  0  0
 12 13  1  0  0  0  0
 13 14  4  0  0  0  0
 14 15  4  0  0  0  0
 15 16  4  0  0  0  0
 16 17  1  0  0  0  0
 16 18  4  0  0  0  0
 18 19  4  0  0  0  0
 13 19  4  0  0  0  0
 18 20  1  0  0  0  0
 20 21  1  0  0  0  0
 20 22  1  0  0  0  0
 20 23  1  0  0  0  0
 15 24  1  0  0  0  0
 24 25  1  0  0  0  0
 24 26  1  0  0  0  0
 24 27  1  0  0  0  0
  1 28  1  0  0  0  0
  1 29  1  0  0  0  0
  1 30  1  0  0  0  0
  2 31  1  0  0  0  0
  2 32  1  0  0  0  0
  3 33  1  0  0  0  0
  3 34  1  0  0  0  0
  4 35  1  0  0  0  0
  5 36  1  0  0  0  0
  5 37  1  0  0  0  0
  6 38  1  0  0  0  0
  6 39  1  0  0  0  0
  6 40  1  0  0  0  0
  7 41  1  0  0  0  0
  7 42  1  0  0  0  0
 11 43  1  0  0  0  0
 11 44  1  0  0  0  0
 12 45  1  0  0  0  0
 12 46  1  0  0  0  0
 14 47  1  0  0  0  0
 17 48  1  0  0  0  0
 19 49  1  0  0  0  0
 21 50  1  0  0  0  0
 21 51  1  0  0  0  0
 21 52  1  0  0  0  0
 22 53  1  0  0  0  0
 22 54  1  0  0  0  0
 22 55  1  0  0  0  0
 23 56  1  0  0  0  0
 23 57  1  0  0  0  0
 23 58  1  0  0  0  0
 25 59  1  0  0  0  0
 25 60  1  0  0  0  0
 25 61  1  0  0  0  0
 26 62  1  0  0  0  0
 26 63  1  0  0  0  0
 26 64  1  0  0  0  0
 27 65  1  0  0  0  0
 27 66  1  0  0  0  0
 27 67  1  0  0  0  0
M  END
>  <InChIKey>
PJZFNEYJOZUEGS-UHFFFAOYSA-N

>  <UN GHS>
Non-irritant

>  <CASRN>
125643-61-0

> <Outcome>
0

>  <Index>
595

>  <StandardizerResult>
Dearomatize (ID: Dearomatize)
Clear Stereo (ID: ClearStereo)
Wedge Clean (ID: WedgeClean)
Mesomerize (ID: Mesomerize)
Tautomerize (ID: Tautomerize)
Aromatize (ID: Aromatize)
Add Explicit Hydrogens (ID: AddExplicitH)
Neutralize (ID: Neutralize)
Clean 2D (ID: Clean2D)

> <knn Distance>
3.31662487983704

> <CpId>
595

$$$$
659
  Mrv1532301301811342D          

 48 48  0  0  0  0            999 V2000
   -2.2197    1.2769    0.0000 C   0  0  0  0  0  0  0  0  0  0  0  0
   -1.5053    1.6894    0.0000 C   0  0  0  0  0  0  0  0  0  0  0  0
   -1.5053    2.5144    0.0000 C   0  0  0  0  0  0  0  0  0  0  0  0
   -0.7908    1.2769    0.0000 C   0  0  0  0  0  0  0  0  0  0  0  0
   -0.0763    1.6894    0.0000 O   0  0  0  0  0  0  0  0  0  0  0  0
    0.6382    1.2769    0.0000 C   0  0  0  0  0  0  0  0  0  0  0  0
    0.6382    0.4519    0.0000 O   0  0  0  0  0  0  0  0  0  0  0  0
    1.3526    1.6894    0.0000 C   0  0  0  0  0  0  0  0  0  0  0  0
    1.3526    2.5144    0.0000 C   0  0  0  0  0  0  0  0  0  0  0  0
    2.0671    2.9269    0.0000 C   0  0  0  0  0  0  0  0  0  0  0  0
    2.7816    2.5144    0.0000 C   0  0  0  0  0  0  0  0  0  0  0  0
    2.7816    1.6894    0.0000 C   0  0  0  0  0  0  0  0  0  0  0  0
    2.0671    1.2769    0.0000 C   0  0  0  0  0  0  0  0  0  0  0  0
    2.0671    0.4519    0.0000 C   0  0  0  0  0  0  0  0  0  0  0  0
    1.3526    0.0394    0.0000 O   0  0  0  0  0  0  0  0  0  0  0  0
    2.7816    0.0394    0.0000 O   0  0  0  0  0  0  0  0  0  0  0  0
    3.4960    0.4519    0.0000 C   0  0  0  0  0  0  0  0  0  0  0  0
    4.2105    0.0394    0.0000 C   0  0  0  0  0  0  0  0  0  0  0  0
    4.9250    0.4519    0.0000 C   0  0  0  0  0  0  0  0  0  0  0  0
    4.2105   -0.7856    0.0000 C   0  0  0  0  0  0  0  0  0  0  0  0
   -2.6322    1.9914    0.0000 H   0  0  0  0  0  0  0  0  0  0  0  0
   -2.9342    0.8644    0.0000 H   0  0  0  0  0  0  0  0  0  0  0  0
   -1.8072    0.5624    0.0000 H   0  0  0  0  0  0  0  0  0  0  0  0
   -2.2197    2.1019    0.0000 H   0  0  0  0  0  0  0  0  0  0  0  0
   -0.7084    2.3009    0.0000 H   0  0  0  0  0  0  0  0  0  0  0  0
   -1.0928    3.2289    0.0000 H   0  0  0  0  0  0  0  0  0  0  0  0
   -2.0886    3.0978    0.0000 H   0  0  0  0  0  0  0  0  0  0  0  0
   -1.1610    0.5397    0.0000 H   0  0  0  0  0  0  0  0  0  0  0  0
   -0.4205    0.5397    0.0000 H   0  0  0  0  0  0  0  0  0  0  0  0
    1.3526    0.8644    0.0000 H   0  0  0  0  0  0  0  0  0  0  0  0
    0.8993    3.2037    0.0000 H   0  0  0  0  0  0  0  0  0  0  0  0
    0.5290    2.5624    0.0000 H   0  0  0  0  0  0  0  0  0  0  0  0
    2.4374    3.6642    0.0000 H   0  0  0  0  0  0  0  0  0  0  0  0
    1.6968    3.6642    0.0000 H   0  0  0  0  0  0  0  0  0  0  0  0
    3.6052    2.5624    0.0000 H   0  0  0  0  0  0  0  0  0  0  0  0
    3.2349    3.2037    0.0000 H   0  0  0  0  0  0  0  0  0  0  0  0
    3.2349    1.0001    0.0000 H   0  0  0  0  0  0  0  0  0  0  0  0
    3.6052    1.6414    0.0000 H   0  0  0  0  0  0  0  0  0  0  0  0
    2.0671    2.1019    0.0000 H   0  0  0  0  0  0  0  0  0  0  0  0
    4.1020    1.0118    0.0000 H   0  0  0  0  0  0  0  0  0  0  0  0
    3.4960   -0.3731    0.0000 H   0  0  0  0  0  0  0  0  0  0  0  0
    4.2105    0.8644    0.0000 H   0  0  0  0  0  0  0  0  0  0  0  0
    5.1385   -0.3450    0.0000 H   0  0  0  0  0  0  0  0  0  0  0  0
    5.7500    0.4519    0.0000 H   0  0  0  0  0  0  0  0  0  0  0  0
    5.1385    1.2488    0.0000 H   0  0  0  0  0  0  0  0  0  0  0  0
    3.6271   -1.3690    0.0000 H   0  0  0  0  0  0  0  0  0  0  0  0
    4.6230   -1.5001    0.0000 H   0  0  0  0  0  0  0  0  0  0  0  0
    5.0074   -0.5721    0.0000 H   0  0  0  0  0  0  0  0  0  0  0  0
  1  2  1  0  0  0  0
  2  3  1  0  0  0  0
  2  4  1  0  0  0  0
  4  5  1  0  0  0  0
  5  6  1  0  0  0  0
  6  7  2  0  0  0  0
  6  8  1  0  0  0  0
  8  9  1  0  0  0  0
  9 10  1  0  0  0  0
 10 11  1  0  0  0  0
 11 12  1  0  0  0  0
 12 13  1  0  0  0  0
  8 13  1  0  0  0  0
 13 14  1  0  0  0  0
 14 15  2  0  0  0  0
 14 16  1  0  0  0  0
 16 17  1  0  0  0  0
 17 18  1  0  0  0  0
 18 19  1  0  0  0  0
 18 20  1  0  0  0  0
  1 21  1  0  0  0  0
  1 22  1  0  0  0  0
  1 23  1  0  0  0  0
  2 24  1  0  0  0  0
  3 25  1  0  0  0  0
  3 26  1  0  0  0  0
  3 27  1  0  0  0  0
  4 28  1  0  0  0  0
  4 29  1  0  0  0  0
  8 30  1  0  0  0  0
  9 31  1  0  0  0  0
  9 32  1  0  0  0  0
 10 33  1  0  0  0  0
 10 34  1  0  0  0  0
 11 35  1  0  0  0  0
 11 36  1  0  0  0  0
 12 37  1  0  0  0  0
 12 38  1  0  0  0  0
 13 39  1  0  0  0  0
 17 40  1  0  0  0  0
 17 41  1  0  0  0  0
 18 42  1  0  0  0  0
 19 43  1  0  0  0  0
 19 44  1  0  0  0  0
 19 45  1  0  0  0  0
 20 46  1  0  0  0  0
 20 47  1  0  0  0  0
 20 48  1  0  0  0  0
M  END
>  <InChIKey>
QUKHPBOCBWDYMW-UHFFFAOYSA-N

>  <UN GHS>
Non-irritant

>  <CASRN>
70969-58-3

> <Outcome>
0

>  <Index>
659

>  <StandardizerResult>
Clear Stereo (ID: ClearStereo)
Wedge Clean (ID: WedgeClean)
Mesomerize (ID: Mesomerize)
Tautomerize (ID: Tautomerize)
Add Explicit Hydrogens (ID: AddExplicitH)
Neutralize (ID: Neutralize)
Clean 2D (ID: Clean2D)

> <knn Distance>
3.31662487983704

> <CpId>
659

$$$$
703
  Mrv1532301301811342D          

 12 11  0  0  0  0            999 V2000
    2.4735   -1.4315    0.0000 O   0  0  0  0  0  0  0  0  0  0  0  0
    2.0610   -0.7170    0.0000 C   0  0  0  0  0  0  0  0  0  0  0  0
    1.2360   -0.7170    0.0000 C   0  0  0  0  0  0  0  0  0  0  0  0
    0.8235   -1.4315    0.0000 O   0  0  0  0  0  0  0  0  0  0  0  0
    0.8235   -0.0025    0.0000 C   0  0  0  0  0  0  0  0  0  0  0  0
   -0.0015   -0.0025    0.0000 O   0  0  0  0  0  0  0  0  0  0  0  0
    2.0610   -2.1460    0.0000 H   0  0  0  0  0  0  0  0  0  0  0  0
    2.7503   -0.2637    0.0000 H   0  0  0  0  0  0  0  0  0  0  0  0
    2.1090    0.1066    0.0000 H   0  0  0  0  0  0  0  0  0  0  0  0
    1.5128    0.4508    0.0000 H   0  0  0  0  0  0  0  0  0  0  0  0
    0.8715    0.8211    0.0000 H   0  0  0  0  0  0  0  0  0  0  0  0
   -0.4140    0.7119    0.0000 H   0  0  0  0  0  0  0  0  0  0  0  0
  1  2  1  0  0  0  0
  2  3  1  0  0  0  0
  3  4  2  0  0  0  0
  3  5  1  0  0  0  0
  5  6  1  0  0  0  0
  1  7  1  0  0  0  0
  2  8  1  0  0  0  0
  2  9  1  0  0  0  0
  5 10  1  0  0  0  0
  5 11  1  0  0  0  0
  6 12  1  0  0  0  0
M  END
>  <InChIKey>
RXKJFZQQPQGTFL-UHFFFAOYSA-N

>  <UN GHS>
Non-irritant

>  <CASRN>
96-26-4

> <Outcome>
0

>  <Index>
703

>  <StandardizerResult>
Clear Stereo (ID: ClearStereo)
Wedge Clean (ID: WedgeClean)
Mesomerize (ID: Mesomerize)
Tautomerize (ID: Tautomerize)
Add Explicit Hydrogens (ID: AddExplicitH)
Neutralize (ID: Neutralize)
Clean 2D (ID: Clean2D)

> <knn Distance>
3.31662487983704

> <CpId>
703

$$$$
728
  Mrv1532301301811342D          

 30 32  0  0  0  0            999 V2000
    0.7150   -3.7128    0.0000 C   0  0  0  0  0  0  0  0  0  0  0  0
    0.7150   -2.8878    0.0000 C   0  0  0  0  0  0  0  0  0  0  0  0
    1.4295   -2.4753    0.0000 C   0  0  0  0  0  0  0  0  0  0  0  0
    1.4295   -1.6503    0.0000 C   0  0  0  0  0  0  0  0  0  0  0  0
    2.1439   -1.2378    0.0000 C   0  0  0  0  0  0  0  0  0  0  0  0
    2.8584   -1.6503    0.0000 C   0  0  0  0  0  0  0  0  0  0  0  0
    3.5729   -1.2378    0.0000 C   0  0  0  0  0  0  0  0  0  0  0  0
    3.5729   -0.4128    0.0000 O   0  0  0  0  0  0  0  0  0  0  0  0
    4.2873   -1.6503    0.0000 C   0  0  0  0  0  0  0  0  0  0  0  0
    5.0018   -1.2378    0.0000 C   0  0  0  0  0  0  0  0  0  0  0  0
    5.7163   -1.6503    0.0000 C   0  0  0  0  0  0  0  0  0  0  0  0
    5.7163   -2.4753    0.0000 C   0  0  0  0  0  0  0  0  0  0  0  0
    5.0018   -2.8878    0.0000 C   0  0  0  0  0  0  0  0  0  0  0  0
    4.2873   -2.4753    0.0000 C   0  0  0  0  0  0  0  0  0  0  0  0
    3.5729   -2.8878    0.0000 C   0  0  0  0  0  0  0  0  0  0  0  0
    3.5729   -3.7128    0.0000 O   0  0  0  0  0  0  0  0  0  0  0  0
    2.8584   -2.4753    0.0000 C   0  0  0  0  0  0  0  0  0  0  0  0
    2.1439   -2.8878    0.0000 C   0  0  0  0  0  0  0  0  0  0  0  0
   -0.1100   -3.7128    0.0000 H   0  0  0  0  0  0  0  0  0  0  0  0
    0.7150   -4.5378    0.0000 H   0  0  0  0  0  0  0  0  0  0  0  0
    1.5400   -3.7128    0.0000 H   0  0  0  0  0  0  0  0  0  0  0  0
    0.2616   -2.1985    0.0000 H   0  0  0  0  0  0  0  0  0  0  0  0
   -0.1086   -2.8398    0.0000 H   0  0  0  0  0  0  0  0  0  0  0  0
    0.7150   -1.2378    0.0000 H   0  0  0  0  0  0  0  0  0  0  0  0
    2.1439   -0.4128    0.0000 H   0  0  0  0  0  0  0  0  0  0  0  0
    5.0018   -0.4128    0.0000 H   0  0  0  0  0  0  0  0  0  0  0  0
    6.4308   -1.2378    0.0000 H   0  0  0  0  0  0  0  0  0  0  0  0
    6.4308   -2.8878    0.0000 H   0  0  0  0  0  0  0  0  0  0  0  0
    5.0018   -3.7128    0.0000 H   0  0  0  0  0  0  0  0  0  0  0  0
    2.1439   -3.7128    0.0000 H   0  0  0  0  0  0  0  0  0  0  0  0
  1  2  1  0  0  0  0
  2  3  1  0  0  0  0
  3  4  4  0  0  0  0
  4  5  4  0  0  0  0
  5  6  4  0  0  0  0
  6  7  1  0  0  0  0
  7  8  2  0  0  0  0
  7  9  1  0  0  0  0
  9 10  4  0  0  0  0
 10 11  4  0  0  0  0
 11 12  4  0  0  0  0
 12 13  4  0  0  0  0
 13 14  4  0  0  0  0
  9 14  4  0  0  0  0
 14 15  1  0  0  0  0
 15 16  2  0  0  0  0
 15 17  1  0  0  0  0
  6 17  4  0  0  0  0
 17 18  4  0  0  0  0
  3 18  4  0  0  0  0
  1 19  1  0  0  0  0
  1 20  1  0  0  0  0
  1 21  1  0  0  0  0
  2 22  1  0  0  0  0
  2 23  1  0  0  0  0
  4 24  1  0  0  0  0
  5 25  1  0  0  0  0
 10 26  1  0  0  0  0
 11 27  1  0  0  0  0
 12 28  1  0  0  0  0
 13 29  1  0  0  0  0
 18 30  1  0  0  0  0
M  END
>  <InChIKey>
SJEBAWHUJDUKQK-UHFFFAOYSA-N

>  <UN GHS>
Non-irritant

>  <CASRN>
84-51-5

> <Outcome>
0

>  <Index>
728

>  <StandardizerResult>
Dearomatize (ID: Dearomatize)
Clear Stereo (ID: ClearStereo)
Wedge Clean (ID: WedgeClean)
Mesomerize (ID: Mesomerize)
Tautomerize (ID: Tautomerize)
Aromatize (ID: Aromatize)
Add Explicit Hydrogens (ID: AddExplicitH)
Neutralize (ID: Neutralize)
Clean 2D (ID: Clean2D)

> <knn Distance>
3.31662487983704

> <CpId>
728

$$$$
736
  Mrv1532301301811342D          

 56 55  0  0  0  0            999 V2000
   -2.1748   -4.9619    0.0000 C   0  0  0  0  0  0  0  0  0  0  0  0
   -1.4604   -5.3744    0.0000 C   0  0  0  0  0  0  0  0  0  0  0  0
   -0.7459   -4.9619    0.0000 C   0  0  0  0  0  0  0  0  0  0  0  0
   -0.0314   -5.3744    0.0000 C   0  0  0  0  0  0  0  0  0  0  0  0
    0.6830   -4.9619    0.0000 N   0  0  0  0  0  0  0  0  0  0  0  0
    0.6830   -4.1369    0.0000 C   0  0  0  0  0  0  0  0  0  0  0  0
   -0.0314   -3.7244    0.0000 C   0  0  0  0  0  0  0  0  0  0  0  0
   -0.0314   -2.8994    0.0000 C   0  0  0  0  0  0  0  0  0  0  0  0
   -0.7459   -2.4869    0.0000 C   0  0  0  0  0  0  0  0  0  0  0  0
    1.3975   -5.3744    0.0000 C   0  0  0  0  0  0  0  0  0  0  0  0
    1.3975   -6.1994    0.0000 O   0  0  0  0  0  0  0  0  0  0  0  0
    2.1120   -4.9619    0.0000 N   0  0  0  0  0  0  0  0  0  0  0  0
    2.8265   -5.3744    0.0000 C   0  0  0  0  0  0  0  0  0  0  0  0
    3.5409   -4.9619    0.0000 C   0  0  0  0  0  0  0  0  0  0  0  0
    4.2554   -5.3744    0.0000 C   0  0  0  0  0  0  0  0  0  0  0  0
    4.9699   -4.9619    0.0000 C   0  0  0  0  0  0  0  0  0  0  0  0
    2.1120   -4.1369    0.0000 C   0  0  0  0  0  0  0  0  0  0  0  0
    2.8265   -3.7244    0.0000 C   0  0  0  0  0  0  0  0  0  0  0  0
    2.8265   -2.8994    0.0000 C   0  0  0  0  0  0  0  0  0  0  0  0
    3.5409   -2.4869    0.0000 C   0  0  0  0  0  0  0  0  0  0  0  0
   -1.7623   -4.2475    0.0000 H   0  0  0  0  0  0  0  0  0  0  0  0
   -2.8893   -4.5494    0.0000 H   0  0  0  0  0  0  0  0  0  0  0  0
   -2.5873   -5.6764    0.0000 H   0  0  0  0  0  0  0  0  0  0  0  0
   -1.8306   -6.1117    0.0000 H   0  0  0  0  0  0  0  0  0  0  0  0
   -1.0901   -6.1117    0.0000 H   0  0  0  0  0  0  0  0  0  0  0  0
   -0.3756   -4.2247    0.0000 H   0  0  0  0  0  0  0  0  0  0  0  0
   -1.1162   -4.2247    0.0000 H   0  0  0  0  0  0  0  0  0  0  0  0
   -0.4017   -6.1117    0.0000 H   0  0  0  0  0  0  0  0  0  0  0  0
    0.3388   -6.1117    0.0000 H   0  0  0  0  0  0  0  0  0  0  0  0
    1.5066   -4.0890    0.0000 H   0  0  0  0  0  0  0  0  0  0  0  0
    1.1364   -3.4477    0.0000 H   0  0  0  0  0  0  0  0  0  0  0  0
   -0.8193   -3.4796    0.0000 H   0  0  0  0  0  0  0  0  0  0  0  0
    0.6830   -3.3119    0.0000 H   0  0  0  0  0  0  0  0  0  0  0  0
    0.6006   -2.3691    0.0000 H   0  0  0  0  0  0  0  0  0  0  0  0
    0.1118   -2.0870    0.0000 H   0  0  0  0  0  0  0  0  0  0  0  0
   -0.9068   -1.6778    0.0000 H   0  0  0  0  0  0  0  0  0  0  0  0
   -1.5701   -2.4510    0.0000 H   0  0  0  0  0  0  0  0  0  0  0  0
   -0.9768   -3.2790    0.0000 H   0  0  0  0  0  0  0  0  0  0  0  0
    2.4562   -6.1117    0.0000 H   0  0  0  0  0  0  0  0  0  0  0  0
    3.1967   -6.1117    0.0000 H   0  0  0  0  0  0  0  0  0  0  0  0
    3.9112   -4.2247    0.0000 H   0  0  0  0  0  0  0  0  0  0  0  0
    3.1707   -4.2247    0.0000 H   0  0  0  0  0  0  0  0  0  0  0  0
    3.8851   -6.1117    0.0000 H   0  0  0  0  0  0  0  0  0  0  0  0
    4.6257   -6.1117    0.0000 H   0  0  0  0  0  0  0  0  0  0  0  0
    5.3824   -5.6764    0.0000 H   0  0  0  0  0  0  0  0  0  0  0  0
    5.6843   -4.5494    0.0000 H   0  0  0  0  0  0  0  0  0  0  0  0
    4.5574   -4.2475    0.0000 H   0  0  0  0  0  0  0  0  0  0  0  0
    1.9301   -3.3322    0.0000 H   0  0  0  0  0  0  0  0  0  0  0  0
    2.8265   -4.5494    0.0000 H   0  0  0  0  0  0  0  0  0  0  0  0
    3.6143   -3.4796    0.0000 H   0  0  0  0  0  0  0  0  0  0  0  0
    2.1120   -3.3119    0.0000 H   0  0  0  0  0  0  0  0  0  0  0  0
    2.6832   -2.0870    0.0000 H   0  0  0  0  0  0  0  0  0  0  0  0
    2.1945   -2.3691    0.0000 H   0  0  0  0  0  0  0  0  0  0  0  0
    3.7718   -3.2790    0.0000 H   0  0  0  0  0  0  0  0  0  0  0  0
    4.3651   -2.4510    0.0000 H   0  0  0  0  0  0  0  0  0  0  0  0
    3.7019   -1.6778    0.0000 H   0  0  0  0  0  0  0  0  0  0  0  0
  1  2  1  0  0  0  0
  2  3  1  0  0  0  0
  3  4  1  0  0  0  0
  4  5  1  0  0  0  0
  5  6  1  0  0  0  0
  6  7  1  0  0  0  0
  7  8  1  0  0  0  0
  8  9  1  0  0  0  0
  5 10  1  0  0  0  0
 10 11  2  0  0  0  0
 10 12  1  0  0  0  0
 12 13  1  0  0  0  0
 13 14  1  0  0  0  0
 14 15  1  0  0  0  0
 15 16  1  0  0  0  0
 12 17  1  0  0  0  0
 17 18  1  0  0  0  0
 18 19  1  0  0  0  0
 19 20  1  0  0  0  0
  1 21  1  0  0  0  0
  1 22  1  0  0  0  0
  1 23  1  0  0  0  0
  2 24  1  0  0  0  0
  2 25  1  0  0  0  0
  3 26  1  0  0  0  0
  3 27  1  0  0  0  0
  4 28  1  0  0  0  0
  4 29  1  0  0  0  0
  6 30  1  0  0  0  0
  6 31  1  0  0  0  0
  7 32  1  0  0  0  0
  7 33  1  0  0  0  0
  8 34  1  0  0  0  0
  8 35  1  0  0  0  0
  9 36  1  0  0  0  0
  9 37  1  0  0  0  0
  9 38  1  0  0  0  0
 13 39  1  0  0  0  0
 13 40  1  0  0  0  0
 14 41  1  0  0  0  0
 14 42  1  0  0  0  0
 15 43  1  0  0  0  0
 15 44  1  0  0  0  0
 16 45  1  0  0  0  0
 16 46  1  0  0  0  0
 16 47  1  0  0  0  0
 17 48  1  0  0  0  0
 17 49  1  0  0  0  0
 18 50  1  0  0  0  0
 18 51  1  0  0  0  0
 19 52  1  0  0  0  0
 19 53  1  0  0  0  0
 20 54  1  0  0  0  0
 20 55  1  0  0  0  0
 20 56  1  0  0  0  0
M  END
>  <InChIKey>
SNDGLCYYBKJSOT-UHFFFAOYSA-N

>  <UN GHS>
Non-irritant

>  <CASRN>
4559-86-8

> <Outcome>
0

>  <Index>
736

>  <StandardizerResult>
Clear Stereo (ID: ClearStereo)
Wedge Clean (ID: WedgeClean)
Mesomerize (ID: Mesomerize)
Tautomerize (ID: Tautomerize)
Add Explicit Hydrogens (ID: AddExplicitH)
Neutralize (ID: Neutralize)
Clean 2D (ID: Clean2D)

> <knn Distance>
3.31662487983704

> <CpId>
736

$$$$
744
  Mrv1532301301811342D          

100100  0  0  0  0            999 V2000
    7.1563  -14.0288    0.0000 C   0  0  0  0  0  0  0  0  0  0  0  0
    7.8708  -13.6163    0.0000 C   0  0  0  0  0  0  0  0  0  0  0  0
    8.5853  -14.0288    0.0000 C   0  0  0  0  0  0  0  0  0  0  0  0
    9.2998  -13.6163    0.0000 C   0  0  0  0  0  0  0  0  0  0  0  0
   10.0142  -14.0288    0.0000 C   0  0  0  0  0  0  0  0  0  0  0  0
   10.7287  -13.6163    0.0000 C   0  0  0  0  0  0  0  0  0  0  0  0
   11.4432  -14.0288    0.0000 C   0  0  0  0  0  0  0  0  0  0  0  0
   12.1576  -13.6163    0.0000 C   0  0  0  0  0  0  0  0  0  0  0  0
   12.8721  -14.0288    0.0000 C   0  0  0  0  0  0  0  0  0  0  0  0
   13.5866  -13.6163    0.0000 C   0  0  0  0  0  0  0  0  0  0  0  0
   14.3011  -14.0288    0.0000 C   0  0  0  0  0  0  0  0  0  0  0  0
   15.0155  -13.6163    0.0000 C   0  0  0  0  0  0  0  0  0  0  0  0
   15.7300  -14.0288    0.0000 C   0  0  0  0  0  0  0  0  0  0  0  0
   16.4445  -13.6163    0.0000 C   0  0  0  0  0  0  0  0  0  0  0  0
   17.1589  -14.0288    0.0000 C   0  0  0  0  0  0  0  0  0  0  0  0
   17.8734  -13.6163    0.0000 C   0  0  0  0  0  0  0  0  0  0  0  0
   18.5879  -14.0288    0.0000 C   0  0  0  0  0  0  0  0  0  0  0  0
   19.3024  -13.6163    0.0000 C   0  0  0  0  0  0  0  0  0  0  0  0
   20.0168  -14.0288    0.0000 O   0  0  0  0  0  0  0  0  0  0  0  0
   20.7313  -13.6163    0.0000 C   0  0  0  0  0  0  0  0  0  0  0  0
   20.7313  -12.7913    0.0000 O   0  0  0  0  0  0  0  0  0  0  0  0
   21.4458  -14.0288    0.0000 C   0  0  0  0  0  0  0  0  0  0  0  0
   22.1602  -13.6163    0.0000 C   0  0  0  0  0  0  0  0  0  0  0  0
   22.8747  -14.0288    0.0000 C   0  0  0  0  0  0  0  0  0  0  0  0
   23.5892  -13.6163    0.0000 C   0  0  0  0  0  0  0  0  0  0  0  0
   24.3036  -14.0288    0.0000 C   0  0  0  0  0  0  0  0  0  0  0  0
   24.3036  -14.8538    0.0000 C   0  0  0  0  0  0  0  0  0  0  0  0
   25.0181  -15.2663    0.0000 O   0  0  0  0  0  0  0  0  0  0  0  0
   23.5892  -15.2663    0.0000 C   0  0  0  0  0  0  0  0  0  0  0  0
   22.8747  -14.8538    0.0000 C   0  0  0  0  0  0  0  0  0  0  0  0
   23.5892  -16.0913    0.0000 C   0  0  0  0  0  0  0  0  0  0  0  0
   23.5892  -16.9163    0.0000 C   0  0  0  0  0  0  0  0  0  0  0  0
   22.7642  -16.0913    0.0000 C   0  0  0  0  0  0  0  0  0  0  0  0
   24.4142  -16.0913    0.0000 C   0  0  0  0  0  0  0  0  0  0  0  0
   25.0181  -13.6163    0.0000 C   0  0  0  0  0  0  0  0  0  0  0  0
   25.7326  -13.2038    0.0000 C   0  0  0  0  0  0  0  0  0  0  0  0
   25.4306  -14.3308    0.0000 C   0  0  0  0  0  0  0  0  0  0  0  0
   24.6056  -12.9019    0.0000 C   0  0  0  0  0  0  0  0  0  0  0  0
    6.7438  -13.3144    0.0000 H   0  0  0  0  0  0  0  0  0  0  0  0
    6.4419  -14.4413    0.0000 H   0  0  0  0  0  0  0  0  0  0  0  0
    7.5688  -14.7433    0.0000 H   0  0  0  0  0  0  0  0  0  0  0  0
    8.2411  -12.8791    0.0000 H   0  0  0  0  0  0  0  0  0  0  0  0
    7.5006  -12.8791    0.0000 H   0  0  0  0  0  0  0  0  0  0  0  0
    8.2150  -14.7661    0.0000 H   0  0  0  0  0  0  0  0  0  0  0  0
    8.9555  -14.7661    0.0000 H   0  0  0  0  0  0  0  0  0  0  0  0
    9.6700  -12.8791    0.0000 H   0  0  0  0  0  0  0  0  0  0  0  0
    8.9295  -12.8791    0.0000 H   0  0  0  0  0  0  0  0  0  0  0  0
    9.6440  -14.7661    0.0000 H   0  0  0  0  0  0  0  0  0  0  0  0
   10.3845  -14.7661    0.0000 H   0  0  0  0  0  0  0  0  0  0  0  0
   11.0990  -12.8791    0.0000 H   0  0  0  0  0  0  0  0  0  0  0  0
   10.3584  -12.8791    0.0000 H   0  0  0  0  0  0  0  0  0  0  0  0
   11.0729  -14.7661    0.0000 H   0  0  0  0  0  0  0  0  0  0  0  0
   11.8134  -14.7661    0.0000 H   0  0  0  0  0  0  0  0  0  0  0  0
   12.5279  -12.8791    0.0000 H   0  0  0  0  0  0  0  0  0  0  0  0
   11.7874  -12.8791    0.0000 H   0  0  0  0  0  0  0  0  0  0  0  0
   12.5019  -14.7661    0.0000 H   0  0  0  0  0  0  0  0  0  0  0  0
   13.2424  -14.7661    0.0000 H   0  0  0  0  0  0  0  0  0  0  0  0
   13.9568  -12.8791    0.0000 H   0  0  0  0  0  0  0  0  0  0  0  0
   13.2163  -12.8791    0.0000 H   0  0  0  0  0  0  0  0  0  0  0  0
   13.9308  -14.7661    0.0000 H   0  0  0  0  0  0  0  0  0  0  0  0
   14.6713  -14.7661    0.0000 H   0  0  0  0  0  0  0  0  0  0  0  0
   15.3858  -12.8791    0.0000 H   0  0  0  0  0  0  0  0  0  0  0  0
   14.6453  -12.8791    0.0000 H   0  0  0  0  0  0  0  0  0  0  0  0
   15.3597  -14.7661    0.0000 H   0  0  0  0  0  0  0  0  0  0  0  0
   16.1003  -14.7661    0.0000 H   0  0  0  0  0  0  0  0  0  0  0  0
   16.8147  -12.8791    0.0000 H   0  0  0  0  0  0  0  0  0  0  0  0
   16.0742  -12.8791    0.0000 H   0  0  0  0  0  0  0  0  0  0  0  0
   16.7887  -14.7661    0.0000 H   0  0  0  0  0  0  0  0  0  0  0  0
   17.5292  -14.7661    0.0000 H   0  0  0  0  0  0  0  0  0  0  0  0
   18.2437  -12.8791    0.0000 H   0  0  0  0  0  0  0  0  0  0  0  0
   17.5032  -12.8791    0.0000 H   0  0  0  0  0  0  0  0  0  0  0  0
   18.2176  -14.7661    0.0000 H   0  0  0  0  0  0  0  0  0  0  0  0
   18.9581  -14.7661    0.0000 H   0  0  0  0  0  0  0  0  0  0  0  0
   19.6726  -12.8791    0.0000 H   0  0  0  0  0  0  0  0  0  0  0  0
   18.9321  -12.8791    0.0000 H   0  0  0  0  0  0  0  0  0  0  0  0
   21.0755  -14.7661    0.0000 H   0  0  0  0  0  0  0  0  0  0  0  0
   21.8160  -14.7661    0.0000 H   0  0  0  0  0  0  0  0  0  0  0  0
   22.5305  -12.8791    0.0000 H   0  0  0  0  0  0  0  0  0  0  0  0
   21.7900  -12.8791    0.0000 H   0  0  0  0  0  0  0  0  0  0  0  0
   23.5892  -12.7913    0.0000 H   0  0  0  0  0  0  0  0  0  0  0  0
   25.0181  -16.0913    0.0000 H   0  0  0  0  0  0  0  0  0  0  0  0
   22.1602  -15.2663    0.0000 H   0  0  0  0  0  0  0  0  0  0  0  0
   22.7642  -16.9163    0.0000 H   0  0  0  0  0  0  0  0  0  0  0  0
   23.5892  -17.7413    0.0000 H   0  0  0  0  0  0  0  0  0  0  0  0
   24.4142  -16.9163    0.0000 H   0  0  0  0  0  0  0  0  0  0  0  0
   23.0799  -15.3291    0.0000 H   0  0  0  0  0  0  0  0  0  0  0  0
   22.1808  -15.5080    0.0000 H   0  0  0  0  0  0  0  0  0  0  0  0
   22.0020  -16.4070    0.0000 H   0  0  0  0  0  0  0  0  0  0  0  0
   24.6963  -15.3161    0.0000 H   0  0  0  0  0  0  0  0  0  0  0  0
   24.1320  -15.3161    0.0000 H   0  0  0  0  0  0  0  0  0  0  0  0
   24.9975  -16.6747    0.0000 H   0  0  0  0  0  0  0  0  0  0  0  0
   26.1451  -13.9183    0.0000 H   0  0  0  0  0  0  0  0  0  0  0  0
   26.4471  -12.7913    0.0000 H   0  0  0  0  0  0  0  0  0  0  0  0
   25.3201  -12.4894    0.0000 H   0  0  0  0  0  0  0  0  0  0  0  0
   24.6127  -14.4385    0.0000 H   0  0  0  0  0  0  0  0  0  0  0  0
   25.2171  -15.1277    0.0000 H   0  0  0  0  0  0  0  0  0  0  0  0
   26.0851  -14.8330    0.0000 H   0  0  0  0  0  0  0  0  0  0  0  0
   24.4979  -12.0839    0.0000 H   0  0  0  0  0  0  0  0  0  0  0  0
   23.8087  -12.6883    0.0000 H   0  0  0  0  0  0  0  0  0  0  0  0
   24.1034  -13.5564    0.0000 H   0  0  0  0  0  0  0  0  0  0  0  0
  1  2  1  0  0  0  0
  2  3  1  0  0  0  0
  3  4  1  0  0  0  0
  4  5  1  0  0  0  0
  5  6  1  0  0  0  0
  6  7  1  0  0  0  0
  7  8  1  0  0  0  0
  8  9  1  0  0  0  0
  9 10  1  0  0  0  0
 10 11  1  0  0  0  0
 11 12  1  0  0  0  0
 12 13  1  0  0  0  0
 13 14  1  0  0  0  0
 14 15  1  0  0  0  0
 15 16  1  0  0  0  0
 16 17  1  0  0  0  0
 17 18  1  0  0  0  0
 18 19  1  0  0  0  0
 19 20  1  0  0  0  0
 20 21  2  0  0  0  0
 20 22  1  0  0  0  0
 22 23  1  0  0  0  0
 23 24  1  0  0  0  0
 24 25  4  0  0  0  0
 25 26  4  0  0  0  0
 26 27  4  0  0  0  0
 27 28  1  0  0  0  0
 27 29  4  0  0  0  0
 29 30  4  0  0  0  0
 24 30  4  0  0  0  0
 29 31  1  0  0  0  0
 31 32  1  0  0  0  0
 31 33  1  0  0  0  0
 31 34  1  0  0  0  0
 26 35  1  0  0  0  0
 35 36  1  0  0  0  0
 35 37  1  0  0  0  0
 35 38  1  0  0  0  0
  1 39  1  0  0  0  0
  1 40  1  0  0  0  0
  1 41  1  0  0  0  0
  2 42  1  0  0  0  0
  2 43  1  0  0  0  0
  3 44  1  0  0  0  0
  3 45  1  0  0  0  0
  4 46  1  0  0  0  0
  4 47  1  0  0  0  0
  5 48  1  0  0  0  0
  5 49  1  0  0  0  0
  6 50  1  0  0  0  0
  6 51  1  0  0  0  0
  7 52  1  0  0  0  0
  7 53  1  0  0  0  0
  8 54  1  0  0  0  0
  8 55  1  0  0  0  0
  9 56  1  0  0  0  0
  9 57  1  0  0  0  0
 10 58  1  0  0  0  0
 10 59  1  0  0  0  0
 11 60  1  0  0  0  0
 11 61  1  0  0  0  0
 12 62  1  0  0  0  0
 12 63  1  0  0  0  0
 13 64  1  0  0  0  0
 13 65  1  0  0  0  0
 14 66  1  0  0  0  0
 14 67  1  0  0  0  0
 15 68  1  0  0  0  0
 15 69  1  0  0  0  0
 16 70  1  0  0  0  0
 16 71  1  0  0  0  0
 17 72  1  0  0  0  0
 17 73  1  0  0  0  0
 18 74  1  0  0  0  0
 18 75  1  0  0  0  0
 22 76  1  0  0  0  0
 22 77  1  0  0  0  0
 23 78  1  0  0  0  0
 23 79  1  0  0  0  0
 25 80  1  0  0  0  0
 28 81  1  0  0  0  0
 30 82  1  0  0  0  0
 32 83  1  0  0  0  0
 32 84  1  0  0  0  0
 32 85  1  0  0  0  0
 33 86  1  0  0  0  0
 33 87  1  0  0  0  0
 33 88  1  0  0  0  0
 34 89  1  0  0  0  0
 34 90  1  0  0  0  0
 34 91  1  0  0  0  0
 36 92  1  0  0  0  0
 36 93  1  0  0  0  0
 36 94  1  0  0  0  0
 37 95  1  0  0  0  0
 37 96  1  0  0  0  0
 37 97  1  0  0  0  0
 38 98  1  0  0  0  0
 38 99  1  0  0  0  0
 38100  1  0  0  0  0
M  END
>  <InChIKey>
SSDSCDGVMJFTEQ-UHFFFAOYSA-N

>  <UN GHS>
Non-irritant

>  <CASRN>
2082-79-3

> <Outcome>
0

>  <Index>
744

>  <StandardizerResult>
Dearomatize (ID: Dearomatize)
Clear Stereo (ID: ClearStereo)
Wedge Clean (ID: WedgeClean)
Mesomerize (ID: Mesomerize)
Tautomerize (ID: Tautomerize)
Aromatize (ID: Aromatize)
Add Explicit Hydrogens (ID: AddExplicitH)
Neutralize (ID: Neutralize)
Clean 2D (ID: Clean2D)

> <knn Distance>
3.31662487983704

> <CpId>
744

$$$$
762
  Mrv1532301301811342D          

 26 25  0  0  0  0            999 V2000
    1.3884   -2.7574    0.0000 C   0  0  0  0  0  0  0  0  0  0  0  0
    1.3884   -1.9324    0.0000 C   0  0  0  0  0  0  0  0  0  0  0  0
    0.6740   -1.5199    0.0000 O   0  0  0  0  0  0  0  0  0  0  0  0
    2.1029   -1.5199    0.0000 O   0  0  0  0  0  0  0  0  0  0  0  0
    2.1029   -0.6949    0.0000 Si  0  0  0  0  0  0  0  0  0  0  0  0
    2.9279   -0.6949    0.0000 C   0  0  0  0  0  0  0  0  0  0  0  0
    2.1029    0.1301    0.0000 O   0  0  0  0  0  0  0  0  0  0  0  0
    2.8174    0.5426    0.0000 C   0  0  0  0  0  0  0  0  0  0  0  0
    2.8174    1.3676    0.0000 C   0  0  0  0  0  0  0  0  0  0  0  0
    3.5319    0.1301    0.0000 O   0  0  0  0  0  0  0  0  0  0  0  0
    1.2779   -0.6949    0.0000 O   0  0  0  0  0  0  0  0  0  0  0  0
    0.8654    0.0196    0.0000 C   0  0  0  0  0  0  0  0  0  0  0  0
    1.2779    0.7341    0.0000 C   0  0  0  0  0  0  0  0  0  0  0  0
    0.0404    0.0196    0.0000 O   0  0  0  0  0  0  0  0  0  0  0  0
    0.5634   -2.7574    0.0000 H   0  0  0  0  0  0  0  0  0  0  0  0
    1.3884   -3.5824    0.0000 H   0  0  0  0  0  0  0  0  0  0  0  0
    2.2134   -2.7574    0.0000 H   0  0  0  0  0  0  0  0  0  0  0  0
    2.9279   -1.5199    0.0000 H   0  0  0  0  0  0  0  0  0  0  0  0
    3.7529   -0.6949    0.0000 H   0  0  0  0  0  0  0  0  0  0  0  0
    2.9279    0.1301    0.0000 H   0  0  0  0  0  0  0  0  0  0  0  0
    3.6424    1.3676    0.0000 H   0  0  0  0  0  0  0  0  0  0  0  0
    2.8174    2.1926    0.0000 H   0  0  0  0  0  0  0  0  0  0  0  0
    1.9924    1.3676    0.0000 H   0  0  0  0  0  0  0  0  0  0  0  0
    0.8813    1.4575    0.0000 H   0  0  0  0  0  0  0  0  0  0  0  0
    0.4897    0.9776    0.0000 H   0  0  0  0  0  0  0  0  0  0  0  0
    1.9171    0.2125    0.0000 H   0  0  0  0  0  0  0  0  0  0  0  0
  1  2  1  0  0  0  0
  2  3  2  0  0  0  0
  2  4  1  0  0  0  0
  4  5  1  0  0  0  0
  5  6  1  0  0  0  0
  5  7  1  0  0  0  0
  7  8  1  0  0  0  0
  8  9  1  0  0  0  0
  8 10  2  0  0  0  0
  5 11  1  0  0  0  0
 11 12  1  0  0  0  0
 12 13  1  0  0  0  0
 12 14  2  0  0  0  0
  1 15  1  0  0  0  0
  1 16  1  0  0  0  0
  1 17  1  0  0  0  0
  6 18  1  0  0  0  0
  6 19  1  0  0  0  0
  6 20  1  0  0  0  0
  9 21  1  0  0  0  0
  9 22  1  0  0  0  0
  9 23  1  0  0  0  0
 13 24  1  0  0  0  0
 13 25  1  0  0  0  0
 13 26  1  0  0  0  0
M  END
>  <InChIKey>
TVJPBVNWVPUZBM-UHFFFAOYSA-N

>  <UN GHS>
Non-irritant

>  <CASRN>
4253-34-3

> <Outcome>
0

>  <Index>
762

>  <StandardizerResult>
Clear Stereo (ID: ClearStereo)
Wedge Clean (ID: WedgeClean)
Mesomerize (ID: Mesomerize)
Tautomerize (ID: Tautomerize)
Add Explicit Hydrogens (ID: AddExplicitH)
Neutralize (ID: Neutralize)
Clean 2D (ID: Clean2D)

> <knn Distance>
3.31662487983704

> <CpId>
762

$$$$
763
  Mrv1532301301811342D          

 67 67  0  0  0  0            999 V2000
    3.5589   -8.6601    0.0000 C   0  0  0  0  0  0  0  0  0  0  0  0
    4.2734   -9.0726    0.0000 C   0  0  0  0  0  0  0  0  0  0  0  0
    4.9879   -8.6601    0.0000 C   0  0  0  0  0  0  0  0  0  0  0  0
    5.7023   -9.0726    0.0000 C   0  0  0  0  0  0  0  0  0  0  0  0
    6.4168   -8.6601    0.0000 C   0  0  0  0  0  0  0  0  0  0  0  0
    7.1313   -9.0726    0.0000 C   0  0  0  0  0  0  0  0  0  0  0  0
    7.8457   -8.6601    0.0000 C   0  0  0  0  0  0  0  0  0  0  0  0
    8.5602   -9.0726    0.0000 C   0  0  0  0  0  0  0  0  0  0  0  0
    9.2747   -8.6601    0.0000 C   0  0  0  0  0  0  0  0  0  0  0  0
    9.9892   -9.0726    0.0000 C   0  0  0  0  0  0  0  0  0  0  0  0
   10.7036   -8.6601    0.0000 C   0  0  0  0  0  0  0  0  0  0  0  0
   11.4181   -9.0726    0.0000 C   0  0  0  0  0  0  0  0  0  0  0  0
   12.1326   -8.6601    0.0000 C   0  0  0  0  0  0  0  0  0  0  0  0
   12.8470   -9.0726    0.0000 C   0  0  0  0  0  0  0  0  0  0  0  0
   13.5615   -8.6601    0.0000 C   0  0  0  0  0  0  0  0  0  0  0  0
   13.5615   -7.8351    0.0000 C   0  0  0  0  0  0  0  0  0  0  0  0
   14.2760   -9.0726    0.0000 C   0  0  0  0  0  0  0  0  0  0  0  0
   14.9904   -8.6601    0.0000 C   0  0  0  0  0  0  0  0  0  0  0  0
   15.7049   -9.0726    0.0000 C   0  0  0  0  0  0  0  0  0  0  0  0
   16.4194   -8.6601    0.0000 C   0  0  0  0  0  0  0  0  0  0  0  0
   15.7049   -9.8976    0.0000 C   0  0  0  0  0  0  0  0  0  0  0  0
   14.9904  -10.3101    0.0000 C   0  0  0  0  0  0  0  0  0  0  0  0
   14.9904  -11.1351    0.0000 C   0  0  0  0  0  0  0  0  0  0  0  0
   14.2760   -9.8976    0.0000 C   0  0  0  0  0  0  0  0  0  0  0  0
   13.5615  -10.3101    0.0000 O   0  0  0  0  0  0  0  0  0  0  0  0
    3.9714   -7.9457    0.0000 H   0  0  0  0  0  0  0  0  0  0  0  0
    2.8444   -8.2476    0.0000 H   0  0  0  0  0  0  0  0  0  0  0  0
    3.1464   -9.3746    0.0000 H   0  0  0  0  0  0  0  0  0  0  0  0
    3.9031   -9.8099    0.0000 H   0  0  0  0  0  0  0  0  0  0  0  0
    4.6436   -9.8099    0.0000 H   0  0  0  0  0  0  0  0  0  0  0  0
    5.3581   -7.9229    0.0000 H   0  0  0  0  0  0  0  0  0  0  0  0
    4.6176   -7.9229    0.0000 H   0  0  0  0  0  0  0  0  0  0  0  0
    5.3321   -9.8099    0.0000 H   0  0  0  0  0  0  0  0  0  0  0  0
    6.0726   -9.8099    0.0000 H   0  0  0  0  0  0  0  0  0  0  0  0
    6.7871   -7.9229    0.0000 H   0  0  0  0  0  0  0  0  0  0  0  0
    6.0465   -7.9229    0.0000 H   0  0  0  0  0  0  0  0  0  0  0  0
    6.7610   -9.8099    0.0000 H   0  0  0  0  0  0  0  0  0  0  0  0
    7.5015   -9.8099    0.0000 H   0  0  0  0  0  0  0  0  0  0  0  0
    8.2160   -7.9229    0.0000 H   0  0  0  0  0  0  0  0  0  0  0  0
    7.4755   -7.9229    0.0000 H   0  0  0  0  0  0  0  0  0  0  0  0
    8.1899   -9.8099    0.0000 H   0  0  0  0  0  0  0  0  0  0  0  0
    8.9305   -9.8099    0.0000 H   0  0  0  0  0  0  0  0  0  0  0  0
    9.6449   -7.9229    0.0000 H   0  0  0  0  0  0  0  0  0  0  0  0
    8.9044   -7.9229    0.0000 H   0  0  0  0  0  0  0  0  0  0  0  0
    9.6189   -9.8099    0.0000 H   0  0  0  0  0  0  0  0  0  0  0  0
   10.3594   -9.8099    0.0000 H   0  0  0  0  0  0  0  0  0  0  0  0
   11.0739   -7.9229    0.0000 H   0  0  0  0  0  0  0  0  0  0  0  0
   10.3334   -7.9229    0.0000 H   0  0  0  0  0  0  0  0  0  0  0  0
   11.0478   -9.8099    0.0000 H   0  0  0  0  0  0  0  0  0  0  0  0
   11.7884   -9.8099    0.0000 H   0  0  0  0  0  0  0  0  0  0  0  0
   12.5028   -7.9229    0.0000 H   0  0  0  0  0  0  0  0  0  0  0  0
   11.7623   -7.9229    0.0000 H   0  0  0  0  0  0  0  0  0  0  0  0
   12.4768   -9.8099    0.0000 H   0  0  0  0  0  0  0  0  0  0  0  0
   13.2173   -9.8099    0.0000 H   0  0  0  0  0  0  0  0  0  0  0  0
   12.8470   -8.2476    0.0000 H   0  0  0  0  0  0  0  0  0  0  0  0
   14.3584   -8.0486    0.0000 H   0  0  0  0  0  0  0  0  0  0  0  0
   13.9740   -7.1207    0.0000 H   0  0  0  0  0  0  0  0  0  0  0  0
   12.9781   -7.2518    0.0000 H   0  0  0  0  0  0  0  0  0  0  0  0
   15.4872   -8.0015    0.0000 H   0  0  0  0  0  0  0  0  0  0  0  0
   16.8319   -9.3746    0.0000 H   0  0  0  0  0  0  0  0  0  0  0  0
   17.1339   -8.2476    0.0000 H   0  0  0  0  0  0  0  0  0  0  0  0
   16.0069   -7.9457    0.0000 H   0  0  0  0  0  0  0  0  0  0  0  0
   16.4194  -10.3101    0.0000 H   0  0  0  0  0  0  0  0  0  0  0  0
   14.1654  -11.1351    0.0000 H   0  0  0  0  0  0  0  0  0  0  0  0
   14.9904  -11.9601    0.0000 H   0  0  0  0  0  0  0  0  0  0  0  0
   15.8154  -11.1351    0.0000 H   0  0  0  0  0  0  0  0  0  0  0  0
   13.3796  -11.1148    0.0000 H   0  0  0  0  0  0  0  0  0  0  0  0
  1  2  1  0  0  0  0
  2  3  1  0  0  0  0
  3  4  1  0  0  0  0
  4  5  1  0  0  0  0
  5  6  1  0  0  0  0
  6  7  1  0  0  0  0
  7  8  1  0  0  0  0
  8  9  1  0  0  0  0
  9 10  1  0  0  0  0
 10 11  1  0  0  0  0
 11 12  1  0  0  0  0
 12 13  1  0  0  0  0
 13 14  1  0  0  0  0
 14 15  1  0  0  0  0
 15 16  1  0  0  0  0
 15 17  1  0  0  0  0
 17 18  4  0  0  0  0
 18 19  4  0  0  0  0
 19 20  1  0  0  0  0
 19 21  4  0  0  0  0
 21 22  4  0  0  0  0
 22 23  1  0  0  0  0
 22 24  4  0  0  0  0
 17 24  4  0  0  0  0
 24 25  1  0  0  0  0
  1 26  1  0  0  0  0
  1 27  1  0  0  0  0
  1 28  1  0  0  0  0
  2 29  1  0  0  0  0
  2 30  1  0  0  0  0
  3 31  1  0  0  0  0
  3 32  1  0  0  0  0
  4 33  1  0  0  0  0
  4 34  1  0  0  0  0
  5 35  1  0  0  0  0
  5 36  1  0  0  0  0
  6 37  1  0  0  0  0
  6 38  1  0  0  0  0
  7 39  1  0  0  0  0
  7 40  1  0  0  0  0
  8 41  1  0  0  0  0
  8 42  1  0  0  0  0
  9 43  1  0  0  0  0
  9 44  1  0  0  0  0
 10 45  1  0  0  0  0
 10 46  1  0  0  0  0
 11 47  1  0  0  0  0
 11 48  1  0  0  0  0
 12 49  1  0  0  0  0
 12 50  1  0  0  0  0
 13 51  1  0  0  0  0
 13 52  1  0  0  0  0
 14 53  1  0  0  0  0
 14 54  1  0  0  0  0
 15 55  1  0  0  0  0
 16 56  1  0  0  0  0
 16 57  1  0  0  0  0
 16 58  1  0  0  0  0
 18 59  1  0  0  0  0
 20 60  1  0  0  0  0
 20 61  1  0  0  0  0
 20 62  1  0  0  0  0
 21 63  1  0  0  0  0
 23 64  1  0  0  0  0
 23 65  1  0  0  0  0
 23 66  1  0  0  0  0
 25 67  1  0  0  0  0
M  END
>  <InChIKey>
TVWGHFVGFWIHFN-UHFFFAOYSA-N

>  <UN GHS>
Non-irritant

>  <CASRN>
134701-20-5

> <Outcome>
0

>  <Index>
763

>  <StandardizerResult>
Dearomatize (ID: Dearomatize)
Clear Stereo (ID: ClearStereo)
Wedge Clean (ID: WedgeClean)
Mesomerize (ID: Mesomerize)
Tautomerize (ID: Tautomerize)
Aromatize (ID: Aromatize)
Add Explicit Hydrogens (ID: AddExplicitH)
Neutralize (ID: Neutralize)
Clean 2D (ID: Clean2D)

> <knn Distance>
3.31662487983704

> <CpId>
763

$$$$
802
  Mrv1532301301811342D          

 27 26  0  0  0  0            999 V2000
   -0.6423   -1.6875    0.0000 C   0  0  0  0  0  0  0  0  0  0  0  0
    0.0721   -1.2750    0.0000 Si  0  0  0  0  0  0  0  0  0  0  0  0
    0.4846   -1.9895    0.0000 C   0  0  0  0  0  0  0  0  0  0  0  0
   -0.3404   -0.5605    0.0000 C   0  0  0  0  0  0  0  0  0  0  0  0
    0.7866   -0.8625    0.0000 O   0  0  0  0  0  0  0  0  0  0  0  0
    0.7866   -0.0375    0.0000 Si  0  0  0  0  0  0  0  0  0  0  0  0
    0.7866    0.7875    0.0000 C   0  0  0  0  0  0  0  0  0  0  0  0
    1.6116   -0.0375    0.0000 C   0  0  0  0  0  0  0  0  0  0  0  0
   -0.0384   -0.0375    0.0000 C   0  0  0  0  0  0  0  0  0  0  0  0
   -1.0548   -0.9730    0.0000 H   0  0  0  0  0  0  0  0  0  0  0  0
   -1.3568   -2.1000    0.0000 H   0  0  0  0  0  0  0  0  0  0  0  0
   -0.2298   -2.4020    0.0000 H   0  0  0  0  0  0  0  0  0  0  0  0
    0.5923   -2.8074    0.0000 H   0  0  0  0  0  0  0  0  0  0  0  0
    1.2815   -2.2030    0.0000 H   0  0  0  0  0  0  0  0  0  0  0  0
    0.9869   -1.3350    0.0000 H   0  0  0  0  0  0  0  0  0  0  0  0
   -0.6225    0.2147    0.0000 H   0  0  0  0  0  0  0  0  0  0  0  0
   -1.1156   -0.2784    0.0000 H   0  0  0  0  0  0  0  0  0  0  0  0
    0.4846   -0.5605    0.0000 H   0  0  0  0  0  0  0  0  0  0  0  0
    1.6116    0.7875    0.0000 H   0  0  0  0  0  0  0  0  0  0  0  0
    0.7866    1.6125    0.0000 H   0  0  0  0  0  0  0  0  0  0  0  0
   -0.0384    0.7875    0.0000 H   0  0  0  0  0  0  0  0  0  0  0  0
    1.2959   -0.7997    0.0000 H   0  0  0  0  0  0  0  0  0  0  0  0
    2.1950   -0.6209    0.0000 H   0  0  0  0  0  0  0  0  0  0  0  0
    2.3738    0.2782    0.0000 H   0  0  0  0  0  0  0  0  0  0  0  0
    0.6761    0.3750    0.0000 H   0  0  0  0  0  0  0  0  0  0  0  0
    0.3741    0.6770    0.0000 H   0  0  0  0  0  0  0  0  0  0  0  0
   -0.4916    0.6518    0.0000 H   0  0  0  0  0  0  0  0  0  0  0  0
  1  2  1  0  0  0  0
  2  3  1  0  0  0  0
  2  4  1  0  0  0  0
  2  5  1  0  0  0  0
  5  6  1  0  0  0  0
  6  7  1  0  0  0  0
  6  8  1  0  0  0  0
  6  9  1  0  0  0  0
  1 10  1  0  0  0  0
  1 11  1  0  0  0  0
  1 12  1  0  0  0  0
  3 13  1  0  0  0  0
  3 14  1  0  0  0  0
  3 15  1  0  0  0  0
  4 16  1  0  0  0  0
  4 17  1  0  0  0  0
  4 18  1  0  0  0  0
  7 19  1  0  0  0  0
  7 20  1  0  0  0  0
  7 21  1  0  0  0  0
  8 22  1  0  0  0  0
  8 23  1  0  0  0  0
  8 24  1  0  0  0  0
  9 25  1  0  0  0  0
  9 26  1  0  0  0  0
  9 27  1  0  0  0  0
M  END
>  <InChIKey>
UQEAIHBTYFGYIE-UHFFFAOYSA-N

>  <UN GHS>
Non-irritant

>  <CASRN>
107-46-0

> <Outcome>
0

>  <Index>
802

>  <StandardizerResult>
Clear Stereo (ID: ClearStereo)
Wedge Clean (ID: WedgeClean)
Mesomerize (ID: Mesomerize)
Tautomerize (ID: Tautomerize)
Add Explicit Hydrogens (ID: AddExplicitH)
Neutralize (ID: Neutralize)
Clean 2D (ID: Clean2D)

> <knn Distance>
3.31662487983704

> <CpId>
802

$$$$
835
  Mrv1532301301811342D          

103102  0  0  0  0            999 V2000
   12.1834    7.8593    0.0000 C   0  0  0  0  0  0  0  0  0  0  0  0
   12.8979    8.2718    0.0000 C   0  0  0  0  0  0  0  0  0  0  0  0
   13.6124    7.8593    0.0000 C   0  0  0  0  0  0  0  0  0  0  0  0
   14.3268    8.2718    0.0000 C   0  0  0  0  0  0  0  0  0  0  0  0
   15.0413    7.8593    0.0000 C   0  0  0  0  0  0  0  0  0  0  0  0
   15.7558    8.2718    0.0000 C   0  0  0  0  0  0  0  0  0  0  0  0
   16.4702    7.8593    0.0000 C   0  0  0  0  0  0  0  0  0  0  0  0
   17.1847    8.2718    0.0000 C   0  0  0  0  0  0  0  0  0  0  0  0
   17.8992    7.8593    0.0000 C   0  0  0  0  0  0  0  0  0  0  0  0
   18.6136    8.2718    0.0000 C   0  0  0  0  0  0  0  0  0  0  0  0
   19.3281    7.8593    0.0000 C   0  0  0  0  0  0  0  0  0  0  0  0
   20.0426    8.2718    0.0000 C   0  0  0  0  0  0  0  0  0  0  0  0
   20.7571    7.8593    0.0000 C   0  0  0  0  0  0  0  0  0  0  0  0
   21.4715    8.2718    0.0000 C   0  0  0  0  0  0  0  0  0  0  0  0
   22.1860    7.8593    0.0000 C   0  0  0  0  0  0  0  0  0  0  0  0
   22.9005    8.2718    0.0000 C   0  0  0  0  0  0  0  0  0  0  0  0
   22.9005    9.0968    0.0000 O   0  0  0  0  0  0  0  0  0  0  0  0
   23.6149    7.8593    0.0000 N   0  0  0  0  0  0  0  0  0  0  0  0
   24.3294    8.2718    0.0000 C   0  0  0  0  0  0  0  0  0  0  0  0
   25.0439    7.8593    0.0000 C   0  0  0  0  0  0  0  0  0  0  0  0
   25.7584    8.2718    0.0000 C   0  0  0  0  0  0  0  0  0  0  0  0
   26.4728    7.8593    0.0000 C   0  0  0  0  0  0  0  0  0  0  0  0
   27.1873    8.2718    0.0000 C   0  0  0  0  0  0  0  0  0  0  0  0
   27.9018    7.8593    0.0000 C   0  0  0  0  0  0  0  0  0  0  0  0
   28.6162    8.2718    0.0000 C   0  0  0  0  0  0  0  0  0  0  0  0
   29.3307    7.8593    0.0000 C   0  0  0  0  0  0  0  0  0  0  0  0
   30.0452    8.2718    0.0000 C   0  0  0  0  0  0  0  0  0  0  0  0
   30.7597    7.8593    0.0000 C   0  0  0  0  0  0  0  0  0  0  0  0
   31.4741    8.2718    0.0000 C   0  0  0  0  0  0  0  0  0  0  0  0
   31.4741    9.0968    0.0000 C   0  0  0  0  0  0  0  0  0  0  0  0
   32.1886    9.5093    0.0000 C   0  0  0  0  0  0  0  0  0  0  0  0
   32.1886   10.3343    0.0000 C   0  0  0  0  0  0  0  0  0  0  0  0
   32.9031   10.7468    0.0000 C   0  0  0  0  0  0  0  0  0  0  0  0
   32.9031   11.5718    0.0000 C   0  0  0  0  0  0  0  0  0  0  0  0
   33.6175   11.9843    0.0000 C   0  0  0  0  0  0  0  0  0  0  0  0
   33.6175   12.8093    0.0000 C   0  0  0  0  0  0  0  0  0  0  0  0
   11.7709    8.5738    0.0000 H   0  0  0  0  0  0  0  0  0  0  0  0
   11.4689    7.4468    0.0000 H   0  0  0  0  0  0  0  0  0  0  0  0
   12.5959    7.1448    0.0000 H   0  0  0  0  0  0  0  0  0  0  0  0
   13.2681    9.0090    0.0000 H   0  0  0  0  0  0  0  0  0  0  0  0
   12.5276    9.0090    0.0000 H   0  0  0  0  0  0  0  0  0  0  0  0
   13.2421    7.1220    0.0000 H   0  0  0  0  0  0  0  0  0  0  0  0
   13.9826    7.1220    0.0000 H   0  0  0  0  0  0  0  0  0  0  0  0
   14.6971    9.0090    0.0000 H   0  0  0  0  0  0  0  0  0  0  0  0
   13.9566    9.0090    0.0000 H   0  0  0  0  0  0  0  0  0  0  0  0
   14.6710    7.1220    0.0000 H   0  0  0  0  0  0  0  0  0  0  0  0
   15.4116    7.1220    0.0000 H   0  0  0  0  0  0  0  0  0  0  0  0
   16.1260    9.0090    0.0000 H   0  0  0  0  0  0  0  0  0  0  0  0
   15.3855    9.0090    0.0000 H   0  0  0  0  0  0  0  0  0  0  0  0
   16.1000    7.1220    0.0000 H   0  0  0  0  0  0  0  0  0  0  0  0
   16.8405    7.1220    0.0000 H   0  0  0  0  0  0  0  0  0  0  0  0
   17.5550    9.0090    0.0000 H   0  0  0  0  0  0  0  0  0  0  0  0
   16.8144    9.0090    0.0000 H   0  0  0  0  0  0  0  0  0  0  0  0
   17.5289    7.1220    0.0000 H   0  0  0  0  0  0  0  0  0  0  0  0
   18.2694    7.1220    0.0000 H   0  0  0  0  0  0  0  0  0  0  0  0
   18.9839    9.0090    0.0000 H   0  0  0  0  0  0  0  0  0  0  0  0
   18.2434    9.0090    0.0000 H   0  0  0  0  0  0  0  0  0  0  0  0
   18.9579    7.1220    0.0000 H   0  0  0  0  0  0  0  0  0  0  0  0
   19.6984    7.1220    0.0000 H   0  0  0  0  0  0  0  0  0  0  0  0
   20.4129    9.0090    0.0000 H   0  0  0  0  0  0  0  0  0  0  0  0
   19.6723    9.0090    0.0000 H   0  0  0  0  0  0  0  0  0  0  0  0
   20.3868    7.1220    0.0000 H   0  0  0  0  0  0  0  0  0  0  0  0
   21.1273    7.1220    0.0000 H   0  0  0  0  0  0  0  0  0  0  0  0
   21.8418    9.0090    0.0000 H   0  0  0  0  0  0  0  0  0  0  0  0
   21.1013    9.0090    0.0000 H   0  0  0  0  0  0  0  0  0  0  0  0
   21.8157    7.1220    0.0000 H   0  0  0  0  0  0  0  0  0  0  0  0
   22.5563    7.1220    0.0000 H   0  0  0  0  0  0  0  0  0  0  0  0
   23.6149    7.0343    0.0000 H   0  0  0  0  0  0  0  0  0  0  0  0
   24.6997    9.0090    0.0000 H   0  0  0  0  0  0  0  0  0  0  0  0
   23.9592    9.0090    0.0000 H   0  0  0  0  0  0  0  0  0  0  0  0
   24.6736    7.1220    0.0000 H   0  0  0  0  0  0  0  0  0  0  0  0
   25.4141    7.1220    0.0000 H   0  0  0  0  0  0  0  0  0  0  0  0
   26.1286    9.0090    0.0000 H   0  0  0  0  0  0  0  0  0  0  0  0
   25.3881    9.0090    0.0000 H   0  0  0  0  0  0  0  0  0  0  0  0
   26.1026    7.1220    0.0000 H   0  0  0  0  0  0  0  0  0  0  0  0
   26.8431    7.1220    0.0000 H   0  0  0  0  0  0  0  0  0  0  0  0
   27.5576    9.0090    0.0000 H   0  0  0  0  0  0  0  0  0  0  0  0
   26.8170    9.0090    0.0000 H   0  0  0  0  0  0  0  0  0  0  0  0
   27.5315    7.1220    0.0000 H   0  0  0  0  0  0  0  0  0  0  0  0
   28.2720    7.1220    0.0000 H   0  0  0  0  0  0  0  0  0  0  0  0
   28.9865    9.0090    0.0000 H   0  0  0  0  0  0  0  0  0  0  0  0
   28.2460    9.0090    0.0000 H   0  0  0  0  0  0  0  0  0  0  0  0
   28.9605    7.1220    0.0000 H   0  0  0  0  0  0  0  0  0  0  0  0
   29.7010    7.1220    0.0000 H   0  0  0  0  0  0  0  0  0  0  0  0
   30.0452    9.0968    0.0000 H   0  0  0  0  0  0  0  0  0  0  0  0
   30.7597    7.0343    0.0000 H   0  0  0  0  0  0  0  0  0  0  0  0
   31.9275    7.5825    0.0000 H   0  0  0  0  0  0  0  0  0  0  0  0
   32.2977    8.2238    0.0000 H   0  0  0  0  0  0  0  0  0  0  0  0
   31.0208    9.7861    0.0000 H   0  0  0  0  0  0  0  0  0  0  0  0
   30.6505    9.1448    0.0000 H   0  0  0  0  0  0  0  0  0  0  0  0
   32.6419    8.8200    0.0000 H   0  0  0  0  0  0  0  0  0  0  0  0
   33.0122    9.4613    0.0000 H   0  0  0  0  0  0  0  0  0  0  0  0
   31.7353   11.0236    0.0000 H   0  0  0  0  0  0  0  0  0  0  0  0
   31.3650   10.3823    0.0000 H   0  0  0  0  0  0  0  0  0  0  0  0
   33.3564   10.0575    0.0000 H   0  0  0  0  0  0  0  0  0  0  0  0
   33.7267   10.6988    0.0000 H   0  0  0  0  0  0  0  0  0  0  0  0
   32.4497   12.2611    0.0000 H   0  0  0  0  0  0  0  0  0  0  0  0
   32.0795   11.6198    0.0000 H   0  0  0  0  0  0  0  0  0  0  0  0
   34.0709   11.2950    0.0000 H   0  0  0  0  0  0  0  0  0  0  0  0
   34.4411   11.9363    0.0000 H   0  0  0  0  0  0  0  0  0  0  0  0
   34.4425   12.8093    0.0000 H   0  0  0  0  0  0  0  0  0  0  0  0
   33.6175   13.6343    0.0000 H   0  0  0  0  0  0  0  0  0  0  0  0
   32.7925   12.8093    0.0000 H   0  0  0  0  0  0  0  0  0  0  0  0
  1  2  1  0  0  0  0
  2  3  1  0  0  0  0
  3  4  1  0  0  0  0
  4  5  1  0  0  0  0
  5  6  1  0  0  0  0
  6  7  1  0  0  0  0
  7  8  1  0  0  0  0
  8  9  1  0  0  0  0
  9 10  1  0  0  0  0
 10 11  1  0  0  0  0
 11 12  1  0  0  0  0
 12 13  1  0  0  0  0
 13 14  1  0  0  0  0
 14 15  1  0  0  0  0
 15 16  1  0  0  0  0
 16 17  2  0  0  0  0
 16 18  1  0  0  0  0
 18 19  1  0  0  0  0
 19 20  1  0  0  0  0
 20 21  1  0  0  0  0
 21 22  1  0  0  0  0
 22 23  1  0  0  0  0
 23 24  1  0  0  0  0
 24 25  1  0  0  0  0
 25 26  1  0  0  0  0
 27 26  1  0  0  0  0
 27 28  2  0  0  0  0
 28 29  1  0  0  0  0
 29 30  1  0  0  0  0
 30 31  1  0  0  0  0
 31 32  1  0  0  0  0
 32 33  1  0  0  0  0
 33 34  1  0  0  0  0
 34 35  1  0  0  0  0
 35 36  1  0  0  0  0
  1 37  1  0  0  0  0
  1 38  1  0  0  0  0
  1 39  1  0  0  0  0
  2 40  1  0  0  0  0
  2 41  1  0  0  0  0
  3 42  1  0  0  0  0
  3 43  1  0  0  0  0
  4 44  1  0  0  0  0
  4 45  1  0  0  0  0
  5 46  1  0  0  0  0
  5 47  1  0  0  0  0
  6 48  1  0  0  0  0
  6 49  1  0  0  0  0
  7 50  1  0  0  0  0
  7 51  1  0  0  0  0
  8 52  1  0  0  0  0
  8 53  1  0  0  0  0
  9 54  1  0  0  0  0
  9 55  1  0  0  0  0
 10 56  1  0  0  0  0
 10 57  1  0  0  0  0
 11 58  1  0  0  0  0
 11 59  1  0  0  0  0
 12 60  1  0  0  0  0
 12 61  1  0  0  0  0
 13 62  1  0  0  0  0
 13 63  1  0  0  0  0
 14 64  1  0  0  0  0
 14 65  1  0  0  0  0
 15 66  1  0  0  0  0
 15 67  1  0  0  0  0
 18 68  1  0  0  0  0
 19 69  1  0  0  0  0
 19 70  1  0  0  0  0
 20 71  1  0  0  0  0
 20 72  1  0  0  0  0
 21 73  1  0  0  0  0
 21 74  1  0  0  0  0
 22 75  1  0  0  0  0
 22 76  1  0  0  0  0
 23 77  1  0  0  0  0
 23 78  1  0  0  0  0
 24 79  1  0  0  0  0
 24 80  1  0  0  0  0
 25 81  1  0  0  0  0
 25 82  1  0  0  0  0
 26 83  1  0  0  0  0
 26 84  1  0  0  0  0
 27 85  1  4  0  0  0
 28 86  1  0  0  0  0
 29 87  1  0  0  0  0
 29 88  1  0  0  0  0
 30 89  1  0  0  0  0
 30 90  1  0  0  0  0
 31 91  1  0  0  0  0
 31 92  1  0  0  0  0
 32 93  1  0  0  0  0
 32 94  1  0  0  0  0
 33 95  1  0  0  0  0
 33 96  1  0  0  0  0
 34 97  1  0  0  0  0
 34 98  1  0  0  0  0
 35 99  1  0  0  0  0
 35100  1  0  0  0  0
 36101  1  0  0  0  0
 36102  1  0  0  0  0
 36103  1  0  0  0  0
M  END
>  <InChIKey>
VMRGZRVLZQSNHC-UHFFFAOYSA-N

>  <UN GHS>
Non-irritant

>  <CASRN>
16260-09-6

> <Outcome>
0

>  <Index>
835

>  <StandardizerResult>
Clear Stereo (ID: ClearStereo)
Wedge Clean (ID: WedgeClean)
Mesomerize (ID: Mesomerize)
Tautomerize (ID: Tautomerize)
Add Explicit Hydrogens (ID: AddExplicitH)
Neutralize (ID: Neutralize)
Clean 2D (ID: Clean2D)

> <knn Distance>
3.31662487983704

> <CpId>
835

$$$$
893
  Mrv1532301301811342D          

 39 38  0  0  0  0            999 V2000
    1.7752    1.8642    0.0000 C   0  0  0  0  0  0  0  0  0  0  0  0
    2.4897    1.4517    0.0000 C   0  0  0  0  0  0  0  0  0  0  0  0
    3.2041    1.8642    0.0000 C   0  0  0  0  0  0  0  0  0  0  0  0
    3.9186    1.4517    0.0000 C   0  0  0  0  0  0  0  0  0  0  0  0
    4.6331    1.8642    0.0000 C   0  0  0  0  0  0  0  0  0  0  0  0
    4.6331    2.6892    0.0000 C   0  0  0  0  0  0  0  0  0  0  0  0
    5.3476    3.1017    0.0000 C   0  0  0  0  0  0  0  0  0  0  0  0
    5.3476    1.4517    0.0000 C   0  0  0  0  0  0  0  0  0  0  0  0
    5.3476    0.6267    0.0000 O   0  0  0  0  0  0  0  0  0  0  0  0
    6.0620    1.8642    0.0000 O   0  0  0  0  0  0  0  0  0  0  0  0
    6.7765    1.4517    0.0000 O   0  0  0  0  0  0  0  0  0  0  0  0
    7.4910    1.8642    0.0000 C   0  0  0  0  0  0  0  0  0  0  0  0
    8.2054    2.2767    0.0000 C   0  0  0  0  0  0  0  0  0  0  0  0
    7.9035    1.1497    0.0000 C   0  0  0  0  0  0  0  0  0  0  0  0
    7.0785    2.5787    0.0000 C   0  0  0  0  0  0  0  0  0  0  0  0
    2.1877    2.5787    0.0000 H   0  0  0  0  0  0  0  0  0  0  0  0
    1.0607    2.2767    0.0000 H   0  0  0  0  0  0  0  0  0  0  0  0
    1.3627    1.1497    0.0000 H   0  0  0  0  0  0  0  0  0  0  0  0
    2.1194    0.7144    0.0000 H   0  0  0  0  0  0  0  0  0  0  0  0
    2.8599    0.7144    0.0000 H   0  0  0  0  0  0  0  0  0  0  0  0
    3.5744    2.6014    0.0000 H   0  0  0  0  0  0  0  0  0  0  0  0
    2.8339    2.6014    0.0000 H   0  0  0  0  0  0  0  0  0  0  0  0
    3.5484    0.7144    0.0000 H   0  0  0  0  0  0  0  0  0  0  0  0
    4.2889    0.7144    0.0000 H   0  0  0  0  0  0  0  0  0  0  0  0
    3.9186    2.2767    0.0000 H   0  0  0  0  0  0  0  0  0  0  0  0
    4.4898    3.5017    0.0000 H   0  0  0  0  0  0  0  0  0  0  0  0
    4.0011    3.2195    0.0000 H   0  0  0  0  0  0  0  0  0  0  0  0
    5.5784    2.3096    0.0000 H   0  0  0  0  0  0  0  0  0  0  0  0
    6.1718    3.1377    0.0000 H   0  0  0  0  0  0  0  0  0  0  0  0
    5.5085    3.9108    0.0000 H   0  0  0  0  0  0  0  0  0  0  0  0
    8.6179    1.5622    0.0000 H   0  0  0  0  0  0  0  0  0  0  0  0
    8.9199    2.6892    0.0000 H   0  0  0  0  0  0  0  0  0  0  0  0
    7.7929    2.9912    0.0000 H   0  0  0  0  0  0  0  0  0  0  0  0
    7.0855    1.0420    0.0000 H   0  0  0  0  0  0  0  0  0  0  0  0
    7.6899    0.3528    0.0000 H   0  0  0  0  0  0  0  0  0  0  0  0
    8.5580    0.6475    0.0000 H   0  0  0  0  0  0  0  0  0  0  0  0
    6.9708    3.3966    0.0000 H   0  0  0  0  0  0  0  0  0  0  0  0
    6.2816    2.7922    0.0000 H   0  0  0  0  0  0  0  0  0  0  0  0
    6.5762    1.9241    0.0000 H   0  0  0  0  0  0  0  0  0  0  0  0
  1  2  1  0  0  0  0
  2  3  1  0  0  0  0
  3  4  1  0  0  0  0
  4  5  1  0  0  0  0
  5  6  1  0  0  0  0
  6  7  1  0  0  0  0
  5  8  1  0  0  0  0
  8  9  2  0  0  0  0
  8 10  1  0  0  0  0
 10 11  1  0  0  0  0
 11 12  1  0  0  0  0
 12 13  1  0  0  0  0
 12 14  1  0  0  0  0
 12 15  1  0  0  0  0
  1 16  1  0  0  0  0
  1 17  1  0  0  0  0
  1 18  1  0  0  0  0
  2 19  1  0  0  0  0
  2 20  1  0  0  0  0
  3 21  1  0  0  0  0
  3 22  1  0  0  0  0
  4 23  1  0  0  0  0
  4 24  1  0  0  0  0
  5 25  1  0  0  0  0
  6 26  1  0  0  0  0
  6 27  1  0  0  0  0
  7 28  1  0  0  0  0
  7 29  1  0  0  0  0
  7 30  1  0  0  0  0
 13 31  1  0  0  0  0
 13 32  1  0  0  0  0
 13 33  1  0  0  0  0
 14 34  1  0  0  0  0
 14 35  1  0  0  0  0
 14 36  1  0  0  0  0
 15 37  1  0  0  0  0
 15 38  1  0  0  0  0
 15 39  1  0  0  0  0
M  END
>  <InChIKey>
WYKYCHHWIJXDAO-UHFFFAOYSA-N

>  <UN GHS>
Non-irritant

>  <CASRN>
3006-82-4

> <Outcome>
0

>  <Index>
893

>  <StandardizerResult>
Clear Stereo (ID: ClearStereo)
Wedge Clean (ID: WedgeClean)
Mesomerize (ID: Mesomerize)
Tautomerize (ID: Tautomerize)
Add Explicit Hydrogens (ID: AddExplicitH)
Neutralize (ID: Neutralize)
Clean 2D (ID: Clean2D)

> <knn Distance>
3.31662487983704

> <CpId>
893

$$$$
900
  Mrv1532301301811342D          

 30 31  0  0  0  0            999 V2000
    2.1434   -2.8875    0.0000 C   0  0  0  0  0  0  0  0  0  0  0  0
    1.4289   -2.4750    0.0000 C   0  0  0  0  0  0  0  0  0  0  0  0
    0.7145   -2.8875    0.0000 O   0  0  0  0  0  0  0  0  0  0  0  0
   -0.0000   -2.4750    0.0000 C   0  0  0  0  0  0  0  0  0  0  0  0
   -0.7145   -2.8875    0.0000 C   0  0  0  0  0  0  0  0  0  0  0  0
   -1.4289   -2.4750    0.0000 C   0  0  0  0  0  0  0  0  0  0  0  0
   -1.4289   -1.6500    0.0000 C   0  0  0  0  0  0  0  0  0  0  0  0
   -0.7145   -1.2375    0.0000 C   0  0  0  0  0  0  0  0  0  0  0  0
   -0.0000   -1.6500    0.0000 C   0  0  0  0  0  0  0  0  0  0  0  0
    2.8579   -2.4750    0.0000 O   0  0  0  0  0  0  0  0  0  0  0  0
    3.5723   -2.8875    0.0000 C   0  0  0  0  0  0  0  0  0  0  0  0
    4.2868   -2.4750    0.0000 C   0  0  0  0  0  0  0  0  0  0  0  0
    5.0013   -2.8875    0.0000 C   0  0  0  0  0  0  0  0  0  0  0  0
    5.0013   -3.7125    0.0000 C   0  0  0  0  0  0  0  0  0  0  0  0
    4.2868   -4.1250    0.0000 C   0  0  0  0  0  0  0  0  0  0  0  0
    3.5723   -3.7125    0.0000 C   0  0  0  0  0  0  0  0  0  0  0  0
    1.7731   -3.6247    0.0000 H   0  0  0  0  0  0  0  0  0  0  0  0
    2.5137   -3.6247    0.0000 H   0  0  0  0  0  0  0  0  0  0  0  0
    1.7992   -1.7378    0.0000 H   0  0  0  0  0  0  0  0  0  0  0  0
    1.0587   -1.7378    0.0000 H   0  0  0  0  0  0  0  0  0  0  0  0
   -0.7145   -3.7125    0.0000 H   0  0  0  0  0  0  0  0  0  0  0  0
   -2.1434   -2.8875    0.0000 H   0  0  0  0  0  0  0  0  0  0  0  0
   -2.1434   -1.2375    0.0000 H   0  0  0  0  0  0  0  0  0  0  0  0
   -0.7145   -0.4125    0.0000 H   0  0  0  0  0  0  0  0  0  0  0  0
    0.7145   -1.2375    0.0000 H   0  0  0  0  0  0  0  0  0  0  0  0
    4.2868   -1.6500    0.0000 H   0  0  0  0  0  0  0  0  0  0  0  0
    5.7158   -2.4750    0.0000 H   0  0  0  0  0  0  0  0  0  0  0  0
    5.7158   -4.1250    0.0000 H   0  0  0  0  0  0  0  0  0  0  0  0
    4.2868   -4.9500    0.0000 H   0  0  0  0  0  0  0  0  0  0  0  0
    2.8579   -4.1250    0.0000 H   0  0  0  0  0  0  0  0  0  0  0  0
  1  2  1  0  0  0  0
  2  3  1  0  0  0  0
  3  4  1  0  0  0  0
  4  5  4  0  0  0  0
  5  6  4  0  0  0  0
  6  7  4  0  0  0  0
  7  8  4  0  0  0  0
  8  9  4  0  0  0  0
  4  9  4  0  0  0  0
  1 10  1  0  0  0  0
 10 11  1  0  0  0  0
 11 12  4  0  0  0  0
 12 13  4  0  0  0  0
 13 14  4  0  0  0  0
 14 15  4  0  0  0  0
 15 16  4  0  0  0  0
 11 16  4  0  0  0  0
  1 17  1  0  0  0  0
  1 18  1  0  0  0  0
  2 19  1  0  0  0  0
  2 20  1  0  0  0  0
  5 21  1  0  0  0  0
  6 22  1  0  0  0  0
  7 23  1  0  0  0  0
  8 24  1  0  0  0  0
  9 25  1  0  0  0  0
 12 26  1  0  0  0  0
 13 27  1  0  0  0  0
 14 28  1  0  0  0  0
 15 29  1  0  0  0  0
 16 30  1  0  0  0  0
M  END
>  <InChIKey>
XCSGHNKDXGYELG-UHFFFAOYSA-N

>  <UN GHS>
Non-irritant

>  <CASRN>
104-66-5

> <Outcome>
0

>  <Index>
900

>  <StandardizerResult>
Dearomatize (ID: Dearomatize)
Clear Stereo (ID: ClearStereo)
Wedge Clean (ID: WedgeClean)
Mesomerize (ID: Mesomerize)
Tautomerize (ID: Tautomerize)
Aromatize (ID: Aromatize)
Add Explicit Hydrogens (ID: AddExplicitH)
Neutralize (ID: Neutralize)
Clean 2D (ID: Clean2D)

> <knn Distance>
3.31662487983704

> <CpId>
900

$$$$
914
  Mrv1532301301811342D          

  4  3  0  0  0  0            999 V2000
    2.6813    0.3572    0.0000 O   0  0  0  0  0  0  0  0  0  0  0  0
    1.8563    0.3572    0.0000 C   0  0  0  0  0  0  0  0  0  0  0  0
    1.0313    0.3572    0.0000 N   0  0  0  0  0  0  0  0  0  0  0  0
    3.0938   -0.3572    0.0000 H   0  0  0  0  0  0  0  0  0  0  0  0
  1  2  1  0  0  0  0
  2  3  3  0  0  0  0
  1  4  1  0  0  0  0
M  END
>  <InChIKey>
XLJMAIOERFSOGZ-UHFFFAOYSA-M

>  <UN GHS>
Non-irritant

>  <CASRN>
917-61-3

> <Outcome>
0

>  <Index>
914

>  <StandardizerResult>
Mesomerize (ID: Mesomerize)
Tautomerize (ID: Tautomerize)
Add Explicit Hydrogens (ID: AddExplicitH)
Neutralize (ID: Neutralize)
Clean 2D (ID: Clean2D)

> <knn Distance>
3.31662487983704

> <CpId>
914

$$$$
933
  Mrv1532301301811342D          

 49 48  0  0  0  0            999 V2000
    4.2388    3.3012    0.0000 C   0  0  0  0  0  0  0  0  0  0  0  0
    4.9533    2.8887    0.0000 C   0  0  0  0  0  0  0  0  0  0  0  0
    4.9533    2.0637    0.0000 O   0  0  0  0  0  0  0  0  0  0  0  0
    5.6678    3.3012    0.0000 C   0  0  0  0  0  0  0  0  0  0  0  0
    6.3823    2.8887    0.0000 S   0  0  0  0  0  0  0  0  0  0  0  0
    7.0967    3.3012    0.0000 C   0  0  0  0  0  0  0  0  0  0  0  0
    7.8112    2.8887    0.0000 C   0  0  0  0  0  0  0  0  0  0  0  0
    8.5257    3.3012    0.0000 C   0  0  0  0  0  0  0  0  0  0  0  0
    9.2401    2.8887    0.0000 C   0  0  0  0  0  0  0  0  0  0  0  0
    9.9546    3.3012    0.0000 C   0  0  0  0  0  0  0  0  0  0  0  0
   10.6691    2.8887    0.0000 C   0  0  0  0  0  0  0  0  0  0  0  0
   11.3836    3.3012    0.0000 C   0  0  0  0  0  0  0  0  0  0  0  0
   12.0980    2.8887    0.0000 C   0  0  0  0  0  0  0  0  0  0  0  0
   12.8125    3.3012    0.0000 C   0  0  0  0  0  0  0  0  0  0  0  0
   13.5270    3.7137    0.0000 C   0  0  0  0  0  0  0  0  0  0  0  0
   13.2250    2.5868    0.0000 C   0  0  0  0  0  0  0  0  0  0  0  0
   12.4000    4.0157    0.0000 C   0  0  0  0  0  0  0  0  0  0  0  0
    4.6513    4.0157    0.0000 H   0  0  0  0  0  0  0  0  0  0  0  0
    3.5244    3.7137    0.0000 H   0  0  0  0  0  0  0  0  0  0  0  0
    3.8263    2.5868    0.0000 H   0  0  0  0  0  0  0  0  0  0  0  0
    4.2388    2.4762    0.0000 H   0  0  0  0  0  0  0  0  0  0  0  0
    5.3658    1.3493    0.0000 H   0  0  0  0  0  0  0  0  0  0  0  0
    6.0380    4.0385    0.0000 H   0  0  0  0  0  0  0  0  0  0  0  0
    5.2975    4.0385    0.0000 H   0  0  0  0  0  0  0  0  0  0  0  0
    7.4670    4.0385    0.0000 H   0  0  0  0  0  0  0  0  0  0  0  0
    6.7265    4.0385    0.0000 H   0  0  0  0  0  0  0  0  0  0  0  0
    7.4409    2.1515    0.0000 H   0  0  0  0  0  0  0  0  0  0  0  0
    8.1815    2.1515    0.0000 H   0  0  0  0  0  0  0  0  0  0  0  0
    8.8959    4.0385    0.0000 H   0  0  0  0  0  0  0  0  0  0  0  0
    8.1554    4.0385    0.0000 H   0  0  0  0  0  0  0  0  0  0  0  0
    8.8699    2.1515    0.0000 H   0  0  0  0  0  0  0  0  0  0  0  0
    9.6104    2.1515    0.0000 H   0  0  0  0  0  0  0  0  0  0  0  0
   10.3249    4.0385    0.0000 H   0  0  0  0  0  0  0  0  0  0  0  0
    9.5844    4.0385    0.0000 H   0  0  0  0  0  0  0  0  0  0  0  0
   10.2988    2.1515    0.0000 H   0  0  0  0  0  0  0  0  0  0  0  0
   11.0393    2.1515    0.0000 H   0  0  0  0  0  0  0  0  0  0  0  0
   11.7538    4.0385    0.0000 H   0  0  0  0  0  0  0  0  0  0  0  0
   11.0133    4.0385    0.0000 H   0  0  0  0  0  0  0  0  0  0  0  0
   11.7278    2.1515    0.0000 H   0  0  0  0  0  0  0  0  0  0  0  0
   12.4683    2.1515    0.0000 H   0  0  0  0  0  0  0  0  0  0  0  0
   13.9395    2.9993    0.0000 H   0  0  0  0  0  0  0  0  0  0  0  0
   14.2414    4.1262    0.0000 H   0  0  0  0  0  0  0  0  0  0  0  0
   13.1145    4.4282    0.0000 H   0  0  0  0  0  0  0  0  0  0  0  0
   13.0105    1.7901    0.0000 H   0  0  0  0  0  0  0  0  0  0  0  0
   13.6369    1.8720    0.0000 H   0  0  0  0  0  0  0  0  0  0  0  0
   14.0218    2.3729    0.0000 H   0  0  0  0  0  0  0  0  0  0  0  0
   12.5528    4.8264    0.0000 H   0  0  0  0  0  0  0  0  0  0  0  0
   11.8847    4.6600    0.0000 H   0  0  0  0  0  0  0  0  0  0  0  0
   11.9750    3.3086    0.0000 H   0  0  0  0  0  0  0  0  0  0  0  0
  1  2  1  0  0  0  0
  2  3  1  0  0  0  0
  2  4  1  0  0  0  0
  4  5  1  0  0  0  0
  5  6  1  0  0  0  0
  6  7  1  0  0  0  0
  7  8  1  0  0  0  0
  8  9  1  0  0  0  0
  9 10  1  0  0  0  0
 10 11  1  0  0  0  0
 11 12  1  0  0  0  0
 12 13  1  0  0  0  0
 13 14  1  0  0  0  0
 14 15  1  0  0  0  0
 14 16  1  0  0  0  0
 14 17  1  0  0  0  0
  1 18  1  0  0  0  0
  1 19  1  0  0  0  0
  1 20  1  0  0  0  0
  2 21  1  0  0  0  0
  3 22  1  0  0  0  0
  4 23  1  0  0  0  0
  4 24  1  0  0  0  0
  6 25  1  0  0  0  0
  6 26  1  0  0  0  0
  7 27  1  0  0  0  0
  7 28  1  0  0  0  0
  8 29  1  0  0  0  0
  8 30  1  0  0  0  0
  9 31  1  0  0  0  0
  9 32  1  0  0  0  0
 10 33  1  0  0  0  0
 10 34  1  0  0  0  0
 11 35  1  0  0  0  0
 11 36  1  0  0  0  0
 12 37  1  0  0  0  0
 12 38  1  0  0  0  0
 13 39  1  0  0  0  0
 13 40  1  0  0  0  0
 15 41  1  0  0  0  0
 15 42  1  0  0  0  0
 15 43  1  0  0  0  0
 16 44  1  0  0  0  0
 16 45  1  0  0  0  0
 16 46  1  0  0  0  0
 17 47  1  0  0  0  0
 17 48  1  0  0  0  0
 17 49  1  0  0  0  0
M  END
>  <InChIKey>
XROXSXGRRMHJFJ-UHFFFAOYSA-N

>  <UN GHS>
Non-irritant

>  <CASRN>
67124-09-8

> <Outcome>
0

>  <Index>
933

>  <StandardizerResult>
Clear Stereo (ID: ClearStereo)
Wedge Clean (ID: WedgeClean)
Mesomerize (ID: Mesomerize)
Tautomerize (ID: Tautomerize)
Add Explicit Hydrogens (ID: AddExplicitH)
Neutralize (ID: Neutralize)
Clean 2D (ID: Clean2D)

> <knn Distance>
3.31662487983704

> <CpId>
933

$$$$
992
  Mrv1532301301811342D          

 18 17  0  0  0  0            999 V2000
    1.7605    1.8414    0.0000 O   0  0  0  0  0  0  0  0  0  0  0  0
    2.4750    1.4289    0.0000 C   0  0  0  0  0  0  0  0  0  0  0  0
    3.1895    1.8414    0.0000 C   0  0  0  0  0  0  0  0  0  0  0  0
    3.9039    1.4289    0.0000 N   0  0  0  0  0  0  0  0  0  0  0  0
    4.6184    1.8414    0.0000 C   0  0  0  0  0  0  0  0  0  0  0  0
    5.3329    1.4289    0.0000 C   0  0  0  0  0  0  0  0  0  0  0  0
    6.0474    1.8414    0.0000 O   0  0  0  0  0  0  0  0  0  0  0  0
    1.7605    2.6664    0.0000 H   0  0  0  0  0  0  0  0  0  0  0  0
    2.1047    0.6917    0.0000 H   0  0  0  0  0  0  0  0  0  0  0  0
    2.8453    0.6917    0.0000 H   0  0  0  0  0  0  0  0  0  0  0  0
    3.5597    2.5786    0.0000 H   0  0  0  0  0  0  0  0  0  0  0  0
    2.8192    2.5786    0.0000 H   0  0  0  0  0  0  0  0  0  0  0  0
    3.9039    0.6039    0.0000 H   0  0  0  0  0  0  0  0  0  0  0  0
    4.9887    2.5786    0.0000 H   0  0  0  0  0  0  0  0  0  0  0  0
    4.2482    2.5786    0.0000 H   0  0  0  0  0  0  0  0  0  0  0  0
    4.9626    0.6917    0.0000 H   0  0  0  0  0  0  0  0  0  0  0  0
    5.7031    0.6917    0.0000 H   0  0  0  0  0  0  0  0  0  0  0  0
    6.7618    1.4289    0.0000 H   0  0  0  0  0  0  0  0  0  0  0  0
  1  2  1  0  0  0  0
  2  3  1  0  0  0  0
  3  4  1  0  0  0  0
  4  5  1  0  0  0  0
  5  6  1  0  0  0  0
  6  7  1  0  0  0  0
  1  8  1  0  0  0  0
  2  9  1  0  0  0  0
  2 10  1  0  0  0  0
  3 11  1  0  0  0  0
  3 12  1  0  0  0  0
  4 13  1  0  0  0  0
  5 14  1  0  0  0  0
  5 15  1  0  0  0  0
  6 16  1  0  0  0  0
  6 17  1  0  0  0  0
  7 18  1  0  0  0  0
M  END
>  <InChIKey>
ZBCBWPMODOFKDW-UHFFFAOYSA-N

>  <UN GHS>
Non-irritant

>  <CASRN>
35176-06-8

> <Outcome>
0

>  <Index>
992

>  <StandardizerResult>
Clear Stereo (ID: ClearStereo)
Wedge Clean (ID: WedgeClean)
Mesomerize (ID: Mesomerize)
Tautomerize (ID: Tautomerize)
Add Explicit Hydrogens (ID: AddExplicitH)
Neutralize (ID: Neutralize)
Clean 2D (ID: Clean2D)

> <knn Distance>
3.31662487983704

> <CpId>
992

$$$$
997
  Mrv1532301301811342D          

 42 42  0  0  0  0            999 V2000
    1.5816    1.6878    0.0000 C   0  0  0  0  0  0  0  0  0  0  0  0
    1.8517    0.9082    0.0000 C   0  0  0  0  0  0  0  0  0  0  0  0
    2.3918    1.5318    0.0000 C   0  0  0  0  0  0  0  0  0  0  0  0
    3.2019    1.3759    0.0000 C   0  0  0  0  0  0  0  0  0  0  0  0
    3.4720    0.5964    0.0000 C   0  0  0  0  0  0  0  0  0  0  0  0
    2.9319   -0.0273    0.0000 C   0  0  0  0  0  0  0  0  0  0  0  0
    3.2019   -0.8068    0.0000 C   0  0  0  0  0  0  0  0  0  0  0  0
    2.6618   -1.4305    0.0000 C   0  0  0  0  0  0  0  0  0  0  0  0
    1.8517   -1.2745    0.0000 C   0  0  0  0  0  0  0  0  0  0  0  0
    1.3116   -1.8982    0.0000 C   0  0  0  0  0  0  0  0  0  0  0  0
    0.5015   -1.7423    0.0000 C   0  0  0  0  0  0  0  0  0  0  0  0
    0.2314   -0.9627    0.0000 C   0  0  0  0  0  0  0  0  0  0  0  0
    0.7715   -0.3391    0.0000 C   0  0  0  0  0  0  0  0  0  0  0  0
    0.5015    0.4405    0.0000 C   0  0  0  0  0  0  0  0  0  0  0  0
   -0.3087    0.5964    0.0000 O   0  0  0  0  0  0  0  0  0  0  0  0
    1.0416    1.0641    0.0000 C   0  0  0  0  0  0  0  0  0  0  0  0
    2.1217    2.3114    0.0000 H   0  0  0  0  0  0  0  0  0  0  0  0
    1.3116    2.4673    0.0000 H   0  0  0  0  0  0  0  0  0  0  0  0
    0.7715    1.8437    0.0000 H   0  0  0  0  0  0  0  0  0  0  0  0
    2.1217    0.1286    0.0000 H   0  0  0  0  0  0  0  0  0  0  0  0
    2.6618    0.7523    0.0000 H   0  0  0  0  0  0  0  0  0  0  0  0
    2.9319    2.1555    0.0000 H   0  0  0  0  0  0  0  0  0  0  0  0
    3.9815    1.6460    0.0000 H   0  0  0  0  0  0  0  0  0  0  0  0
    4.2821    0.4405    0.0000 H   0  0  0  0  0  0  0  0  0  0  0  0
    2.3918   -0.6509    0.0000 H   0  0  0  0  0  0  0  0  0  0  0  0
    3.7420   -0.1832    0.0000 H   0  0  0  0  0  0  0  0  0  0  0  0
    3.6032   -1.5276    0.0000 H   0  0  0  0  0  0  0  0  0  0  0  0
    3.9727   -1.1010    0.0000 H   0  0  0  0  0  0  0  0  0  0  0  0
    2.2625   -2.1524    0.0000 H   0  0  0  0  0  0  0  0  0  0  0  0
    2.8356   -2.2369    0.0000 H   0  0  0  0  0  0  0  0  0  0  0  0
    1.4504   -0.5537    0.0000 H   0  0  0  0  0  0  0  0  0  0  0  0
    1.0809   -0.9803    0.0000 H   0  0  0  0  0  0  0  0  0  0  0  0
    1.2031   -2.7160    0.0000 H   0  0  0  0  0  0  0  0  0  0  0  0
    1.9028   -2.4736    0.0000 H   0  0  0  0  0  0  0  0  0  0  0  0
   -0.2611   -2.0572    0.0000 H   0  0  0  0  0  0  0  0  0  0  0  0
    0.2987   -2.5420    0.0000 H   0  0  0  0  0  0  0  0  0  0  0  0
   -0.4226   -0.4598    0.0000 H   0  0  0  0  0  0  0  0  0  0  0  0
   -0.5625   -1.1870    0.0000 H   0  0  0  0  0  0  0  0  0  0  0  0
    1.3469    0.2522    0.0000 H   0  0  0  0  0  0  0  0  0  0  0  0
   -0.0386   -0.1832    0.0000 H   0  0  0  0  0  0  0  0  0  0  0  0
    0.3336    1.4877    0.0000 H   0  0  0  0  0  0  0  0  0  0  0  0
    0.2270    0.9335    0.0000 H   0  0  0  0  0  0  0  0  0  0  0  0
  1  2  1  0  0  0  0
  2  3  1  0  0  0  0
  4  3  1  4  0  0  0
  4  5  2  0  0  0  0
  5  6  1  0  0  0  0
  6  7  1  0  0  0  0
  7  8  1  0  0  0  0
  8  9  1  0  0  0  0
  9 10  1  0  0  0  0
 10 11  1  0  0  0  0
 11 12  1  0  0  0  0
 12 13  1  0  0  0  0
 13 14  1  0  0  0  0
 14 15  2  0  0  0  0
 14 16  1  0  0  0  0
  2 16  1  0  0  0  0
  1 17  1  0  0  0  0
  1 18  1  0  0  0  0
  1 19  1  0  0  0  0
  2 20  1  0  0  0  0
  3 21  1  0  0  0  0
  3 22  1  0  0  0  0
  4 23  1  0  0  0  0
  5 24  1  0  0  0  0
  6 25  1  0  0  0  0
  6 26  1  0  0  0  0
  7 27  1  0  0  0  0
  7 28  1  0  0  0  0
  8 29  1  0  0  0  0
  8 30  1  0  0  0  0
  9 31  1  0  0  0  0
  9 32  1  0  0  0  0
 10 33  1  0  0  0  0
 10 34  1  0  0  0  0
 11 35  1  0  0  0  0
 11 36  1  0  0  0  0
 12 37  1  0  0  0  0
 12 38  1  0  0  0  0
 13 39  1  0  0  0  0
 13 40  1  0  0  0  0
 16 41  1  0  0  0  0
 16 42  1  0  0  0  0
M  END
>  <InChIKey>
ZFGBKXBPHOUSJX-UHFFFAOYSA-N

>  <UN GHS>
Non-irritant

>  <CASRN>
259854-70-1

> <Outcome>
0

>  <Index>
997

>  <StandardizerResult>
Clear Stereo (ID: ClearStereo)
Wedge Clean (ID: WedgeClean)
Mesomerize (ID: Mesomerize)
Tautomerize (ID: Tautomerize)
Add Explicit Hydrogens (ID: AddExplicitH)
Neutralize (ID: Neutralize)
Clean 2D (ID: Clean2D)

> <knn Distance>
3.31662487983704

> <CpId>
997

$$$$
1013
  Mrv1532301301811342D          

 38 39  0  0  0  0            999 V2000
    1.5252   -1.2056    0.0000 C   0  0  0  0  0  0  0  0  0  0  0  0
    0.7002   -1.2056    0.0000 C   0  0  0  0  0  0  0  0  0  0  0  0
   -0.1248   -1.2056    0.0000 C   0  0  0  0  0  0  0  0  0  0  0  0
    0.7002   -2.0306    0.0000 C   0  0  0  0  0  0  0  0  0  0  0  0
    1.4147   -2.4431    0.0000 C   0  0  0  0  0  0  0  0  0  0  0  0
    2.1291   -2.0306    0.0000 C   0  0  0  0  0  0  0  0  0  0  0  0
    1.4147   -3.2681    0.0000 C   0  0  0  0  0  0  0  0  0  0  0  0
    2.1291   -3.6806    0.0000 C   0  0  0  0  0  0  0  0  0  0  0  0
    2.1291   -4.5056    0.0000 C   0  0  0  0  0  0  0  0  0  0  0  0
    1.4147   -4.9181    0.0000 C   0  0  0  0  0  0  0  0  0  0  0  0
    0.7002   -4.5056    0.0000 C   0  0  0  0  0  0  0  0  0  0  0  0
    0.7002   -3.6806    0.0000 C   0  0  0  0  0  0  0  0  0  0  0  0
    0.7002   -0.3806    0.0000 C   0  0  0  0  0  0  0  0  0  0  0  0
   -0.0143    0.0319    0.0000 C   0  0  0  0  0  0  0  0  0  0  0  0
   -0.0143    0.8569    0.0000 C   0  0  0  0  0  0  0  0  0  0  0  0
    0.7002    1.2694    0.0000 C   0  0  0  0  0  0  0  0  0  0  0  0
    1.4147    0.8569    0.0000 C   0  0  0  0  0  0  0  0  0  0  0  0
    1.4147    0.0319    0.0000 C   0  0  0  0  0  0  0  0  0  0  0  0
    1.5252   -2.0306    0.0000 H   0  0  0  0  0  0  0  0  0  0  0  0
    2.3502   -1.2056    0.0000 H   0  0  0  0  0  0  0  0  0  0  0  0
    1.5252   -0.3806    0.0000 H   0  0  0  0  0  0  0  0  0  0  0  0
   -0.1248   -0.3806    0.0000 H   0  0  0  0  0  0  0  0  0  0  0  0
   -0.9498   -1.2056    0.0000 H   0  0  0  0  0  0  0  0  0  0  0  0
   -0.1248   -2.0306    0.0000 H   0  0  0  0  0  0  0  0  0  0  0  0
    0.1699   -2.6626    0.0000 H   0  0  0  0  0  0  0  0  0  0  0  0
    0.8435   -2.8431    0.0000 H   0  0  0  0  0  0  0  0  0  0  0  0
    2.5101   -2.7624    0.0000 H   0  0  0  0  0  0  0  0  0  0  0  0
    2.9346   -2.2092    0.0000 H   0  0  0  0  0  0  0  0  0  0  0  0
    2.8436   -3.2681    0.0000 H   0  0  0  0  0  0  0  0  0  0  0  0
    2.8436   -4.9181    0.0000 H   0  0  0  0  0  0  0  0  0  0  0  0
    1.4147   -5.7431    0.0000 H   0  0  0  0  0  0  0  0  0  0  0  0
   -0.0143   -4.9181    0.0000 H   0  0  0  0  0  0  0  0  0  0  0  0
   -0.1218   -3.6108    0.0000 H   0  0  0  0  0  0  0  0  0  0  0  0
   -0.8322    0.1396    0.0000 H   0  0  0  0  0  0  0  0  0  0  0  0
   -0.7287    1.2694    0.0000 H   0  0  0  0  0  0  0  0  0  0  0  0
    0.7002    2.0944    0.0000 H   0  0  0  0  0  0  0  0  0  0  0  0
    2.1291    1.2694    0.0000 H   0  0  0  0  0  0  0  0  0  0  0  0
    2.2326    0.1396    0.0000 H   0  0  0  0  0  0  0  0  0  0  0  0
  1  2  1  0  0  0  0
  2  3  1  0  0  0  0
  2  4  1  0  0  0  0
  4  5  1  0  0  0  0
  5  6  2  0  0  0  0
  5  7  1  0  0  0  0
  7  8  4  0  0  0  0
  8  9  4  0  0  0  0
  9 10  4  0  0  0  0
 10 11  4  0  0  0  0
 11 12  4  0  0  0  0
  7 12  4  0  0  0  0
  2 13  1  0  0  0  0
 13 14  4  0  0  0  0
 14 15  4  0  0  0  0
 15 16  4  0  0  0  0
 16 17  4  0  0  0  0
 17 18  4  0  0  0  0
 13 18  4  0  0  0  0
  1 19  1  0  0  0  0
  1 20  1  0  0  0  0
  1 21  1  0  0  0  0
  3 22  1  0  0  0  0
  3 23  1  0  0  0  0
  3 24  1  0  0  0  0
  4 25  1  0  0  0  0
  4 26  1  0  0  0  0
  6 27  1  0  0  0  0
  6 28  1  0  0  0  0
  8 29  1  0  0  0  0
  9 30  1  0  0  0  0
 10 31  1  0  0  0  0
 11 32  1  0  0  0  0
 12 33  1  0  0  0  0
 14 34  1  0  0  0  0
 15 35  1  0  0  0  0
 16 36  1  0  0  0  0
 17 37  1  0  0  0  0
 18 38  1  0  0  0  0
M  END
>  <InChIKey>
ZOKCNEIWFQCSCM-UHFFFAOYSA-N

>  <UN GHS>
Non-irritant

>  <CASRN>
6362-80-7

> <Outcome>
0

>  <Index>
1013

>  <StandardizerResult>
Dearomatize (ID: Dearomatize)
Clear Stereo (ID: ClearStereo)
Wedge Clean (ID: WedgeClean)
Mesomerize (ID: Mesomerize)
Tautomerize (ID: Tautomerize)
Aromatize (ID: Aromatize)
Add Explicit Hydrogens (ID: AddExplicitH)
Neutralize (ID: Neutralize)
Clean 2D (ID: Clean2D)

> <knn Distance>
3.31662487983704

> <CpId>
1013

$$$$
1016
  Mrv1532301301811342D          

 34 35  0  0  0  0            999 V2000
    2.8579   -4.9505    0.0000 O   0  0  0  0  0  0  0  0  0  0  0  0
    2.8579   -4.1255    0.0000 C   0  0  0  0  0  0  0  0  0  0  0  0
    2.1434   -3.7130    0.0000 C   0  0  0  0  0  0  0  0  0  0  0  0
    1.4289   -4.1255    0.0000 C   0  0  0  0  0  0  0  0  0  0  0  0
    1.4289   -4.9505    0.0000 C   0  0  0  0  0  0  0  0  0  0  0  0
    0.7145   -5.3630    0.0000 C   0  0  0  0  0  0  0  0  0  0  0  0
   -0.0000   -4.9505    0.0000 C   0  0  0  0  0  0  0  0  0  0  0  0
   -0.0000   -4.1255    0.0000 C   0  0  0  0  0  0  0  0  0  0  0  0
    0.7145   -3.7130    0.0000 C   0  0  0  0  0  0  0  0  0  0  0  0
    3.5723   -3.7130    0.0000 O   0  0  0  0  0  0  0  0  0  0  0  0
    4.2868   -4.1255    0.0000 C   0  0  0  0  0  0  0  0  0  0  0  0
    5.0013   -3.7130    0.0000 C   0  0  0  0  0  0  0  0  0  0  0  0
    5.7158   -4.1255    0.0000 C   0  0  0  0  0  0  0  0  0  0  0  0
    6.4302   -3.7130    0.0000 C   0  0  0  0  0  0  0  0  0  0  0  0
    7.1447   -4.1255    0.0000 C   0  0  0  0  0  0  0  0  0  0  0  0
    7.1447   -4.9505    0.0000 C   0  0  0  0  0  0  0  0  0  0  0  0
    6.4302   -5.3630    0.0000 C   0  0  0  0  0  0  0  0  0  0  0  0
    5.7158   -4.9505    0.0000 C   0  0  0  0  0  0  0  0  0  0  0  0
    2.5137   -2.9758    0.0000 H   0  0  0  0  0  0  0  0  0  0  0  0
    1.7731   -2.9758    0.0000 H   0  0  0  0  0  0  0  0  0  0  0  0
    2.1434   -5.3630    0.0000 H   0  0  0  0  0  0  0  0  0  0  0  0
    0.7145   -6.1880    0.0000 H   0  0  0  0  0  0  0  0  0  0  0  0
   -0.7145   -5.3630    0.0000 H   0  0  0  0  0  0  0  0  0  0  0  0
   -0.7145   -3.7130    0.0000 H   0  0  0  0  0  0  0  0  0  0  0  0
    0.7145   -2.8880    0.0000 H   0  0  0  0  0  0  0  0  0  0  0  0
    3.9166   -4.8628    0.0000 H   0  0  0  0  0  0  0  0  0  0  0  0
    4.6571   -4.8628    0.0000 H   0  0  0  0  0  0  0  0  0  0  0  0
    5.3716   -2.9758    0.0000 H   0  0  0  0  0  0  0  0  0  0  0  0
    4.6310   -2.9758    0.0000 H   0  0  0  0  0  0  0  0  0  0  0  0
    6.4302   -2.8880    0.0000 H   0  0  0  0  0  0  0  0  0  0  0  0
    7.8592   -3.7130    0.0000 H   0  0  0  0  0  0  0  0  0  0  0  0
    7.8592   -5.3630    0.0000 H   0  0  0  0  0  0  0  0  0  0  0  0
    6.4302   -6.1880    0.0000 H   0  0  0  0  0  0  0  0  0  0  0  0
    5.0013   -5.3630    0.0000 H   0  0  0  0  0  0  0  0  0  0  0  0
  1  2  2  0  0  0  0
  2  3  1  0  0  0  0
  3  4  1  0  0  0  0
  4  5  4  0  0  0  0
  5  6  4  0  0  0  0
  6  7  4  0  0  0  0
  7  8  4  0  0  0  0
  8  9  4  0  0  0  0
  4  9  4  0  0  0  0
  2 10  1  0  0  0  0
 10 11  1  0  0  0  0
 11 12  1  0  0  0  0
 12 13  1  0  0  0  0
 13 14  4  0  0  0  0
 14 15  4  0  0  0  0
 15 16  4  0  0  0  0
 16 17  4  0  0  0  0
 17 18  4  0  0  0  0
 13 18  4  0  0  0  0
  3 19  1  0  0  0  0
  3 20  1  0  0  0  0
  5 21  1  0  0  0  0
  6 22  1  0  0  0  0
  7 23  1  0  0  0  0
  8 24  1  0  0  0  0
  9 25  1  0  0  0  0
 11 26  1  0  0  0  0
 11 27  1  0  0  0  0
 12 28  1  0  0  0  0
 12 29  1  0  0  0  0
 14 30  1  0  0  0  0
 15 31  1  0  0  0  0
 16 32  1  0  0  0  0
 17 33  1  0  0  0  0
 18 34  1  0  0  0  0
M  END
>  <InChIKey>
ZOZIRNMDEZKZHM-UHFFFAOYSA-N

>  <UN GHS>
Non-irritant

>  <CASRN>
102-20-5

> <Outcome>
0

>  <Index>
1016

>  <StandardizerResult>
Dearomatize (ID: Dearomatize)
Clear Stereo (ID: ClearStereo)
Wedge Clean (ID: WedgeClean)
Mesomerize (ID: Mesomerize)
Tautomerize (ID: Tautomerize)
Aromatize (ID: Aromatize)
Add Explicit Hydrogens (ID: AddExplicitH)
Neutralize (ID: Neutralize)
Clean 2D (ID: Clean2D)

> <knn Distance>
3.31662487983704

> <CpId>
1016

$$$$
1044
  Mrv1532301301811342D          

 16 15  0  0  0  0            999 V2000
   -0.2430    0.7145    0.0000 O   0  0  0  0  0  0  0  0  0  0  0  0
    0.4715    1.1270    0.0000 C   0  0  0  0  0  0  0  0  0  0  0  0
    0.4715    1.9520    0.0000 O   0  0  0  0  0  0  0  0  0  0  0  0
    1.1859    0.7145    0.0000 C   0  0  0  0  0  0  0  0  0  0  0  0
    1.1859   -0.1105    0.0000 S   0  0  0  0  0  0  0  0  0  0  0  0
    1.9004    1.1270    0.0000 C   0  0  0  0  0  0  0  0  0  0  0  0
    1.9004    1.9520    0.0000 S   0  0  0  0  0  0  0  0  0  0  0  0
    2.6149    0.7145    0.0000 C   0  0  0  0  0  0  0  0  0  0  0  0
    3.3294    1.1270    0.0000 O   0  0  0  0  0  0  0  0  0  0  0  0
    2.6149   -0.1105    0.0000 O   0  0  0  0  0  0  0  0  0  0  0  0
   -0.9575    1.1270    0.0000 H   0  0  0  0  0  0  0  0  0  0  0  0
    0.4715    0.3020    0.0000 H   0  0  0  0  0  0  0  0  0  0  0  0
    1.5984   -0.8250    0.0000 H   0  0  0  0  0  0  0  0  0  0  0  0
    1.1859    1.5395    0.0000 H   0  0  0  0  0  0  0  0  0  0  0  0
    2.3129    2.6665    0.0000 H   0  0  0  0  0  0  0  0  0  0  0  0
    4.0438    0.7145    0.0000 H   0  0  0  0  0  0  0  0  0  0  0  0
  1  2  1  0  0  0  0
  2  3  2  0  0  0  0
  2  4  1  0  0  0  0
  4  5  1  0  0  0  0
  4  6  1  0  0  0  0
  6  7  1  0  0  0  0
  6  8  1  0  0  0  0
  8  9  1  0  0  0  0
  8 10  2  0  0  0  0
  1 11  1  0  0  0  0
  4 12  1  0  0  0  0
  5 13  1  0  0  0  0
  6 14  1  0  0  0  0
  7 15  1  0  0  0  0
  9 16  1  0  0  0  0
M  END
>  <InChIKey>
InChI=1S/C4H6O4S2/c5-3(6)1(9)2(10)4(7)8/h1-2,9-10H,(H,5,6)(H,7,8)

>  <CASRN>
304-55-2

> <Outcome>
0

>  <Index>
1044

>  <StandardizerResult>
Clear Stereo (ID: ClearStereo)
Wedge Clean (ID: WedgeClean)
Mesomerize (ID: Mesomerize)
Tautomerize (ID: Tautomerize)
Add Explicit Hydrogens (ID: AddExplicitH)
Neutralize (ID: Neutralize)
Clean 2D (ID: Clean2D)

> <knn Distance>
3.31662487983704

> <CpId>
1044

$$$$
1050
  Mrv1532301301811342D          

 23 23  0  0  0  0            999 V2000
    0.6791    2.1763    0.0000 O   0  0  0  0  0  0  0  0  0  0  0  0
    0.6791    1.3513    0.0000 C   0  0  0  0  0  0  0  0  0  0  0  0
    1.3936    0.9388    0.0000 O   0  0  0  0  0  0  0  0  0  0  0  0
    1.3936    0.1138    0.0000 C   0  0  0  0  0  0  0  0  0  0  0  0
    0.6791   -0.2987    0.0000 C   0  0  0  0  0  0  0  0  0  0  0  0
    0.6791   -1.1237    0.0000 O   0  0  0  0  0  0  0  0  0  0  0  0
   -0.0353    0.1138    0.0000 C   0  0  0  0  0  0  0  0  0  0  0  0
   -0.7498   -0.2987    0.0000 O   0  0  0  0  0  0  0  0  0  0  0  0
   -0.0353    0.9388    0.0000 C   0  0  0  0  0  0  0  0  0  0  0  0
   -0.7498    1.3513    0.0000 O   0  0  0  0  0  0  0  0  0  0  0  0
    2.1081   -0.2987    0.0000 C   0  0  0  0  0  0  0  0  0  0  0  0
    2.8226    0.1138    0.0000 O   0  0  0  0  0  0  0  0  0  0  0  0
    2.1081   -1.1237    0.0000 O   0  0  0  0  0  0  0  0  0  0  0  0
    1.3936    2.5888    0.0000 H   0  0  0  0  0  0  0  0  0  0  0  0
   -0.0353    1.7638    0.0000 H   0  0  0  0  0  0  0  0  0  0  0  0
    1.3936   -0.7112    0.0000 H   0  0  0  0  0  0  0  0  0  0  0  0
   -0.0353   -0.7112    0.0000 H   0  0  0  0  0  0  0  0  0  0  0  0
    0.6791   -1.9487    0.0000 H   0  0  0  0  0  0  0  0  0  0  0  0
   -0.7498    0.5263    0.0000 H   0  0  0  0  0  0  0  0  0  0  0  0
   -1.4643   -0.7112    0.0000 H   0  0  0  0  0  0  0  0  0  0  0  0
    0.6791    0.5263    0.0000 H   0  0  0  0  0  0  0  0  0  0  0  0
   -1.4643    1.7638    0.0000 H   0  0  0  0  0  0  0  0  0  0  0  0
    3.5370   -0.2987    0.0000 H   0  0  0  0  0  0  0  0  0  0  0  0
  1  2  1  0  0  0  0
  2  3  1  0  0  0  0
  3  4  1  0  0  0  0
  4  5  1  0  0  0  0
  5  6  1  0  0  0  0
  5  7  1  0  0  0  0
  7  8  1  0  0  0  0
  7  9  1  0  0  0  0
  2  9  1  0  0  0  0
  9 10  1  0  0  0  0
  4 11  1  0  0  0  0
 11 12  1  0  0  0  0
 11 13  2  0  0  0  0
  1 14  1  0  0  0  0
  2 15  1  0  0  0  0
  4 16  1  0  0  0  0
  5 17  1  0  0  0  0
  6 18  1  0  0  0  0
  7 19  1  0  0  0  0
  8 20  1  0  0  0  0
  9 21  1  0  0  0  0
 10 22  1  0  0  0  0
 12 23  1  0  0  0  0
M  END
>  <InChIKey>
InChI=1S/C6H10O7/c7-1-2(8)4(5(10)11)13-6(12)3(1)9/h1-4,6-9,12H,(H,10,11)

>  <CASRN>
14982-50-4 9046-38-2

> <Outcome>
0

>  <Index>
1050

>  <StandardizerResult>
Clear Stereo (ID: ClearStereo)
Wedge Clean (ID: WedgeClean)
Mesomerize (ID: Mesomerize)
Tautomerize (ID: Tautomerize)
Add Explicit Hydrogens (ID: AddExplicitH)
Neutralize (ID: Neutralize)
Clean 2D (ID: Clean2D)

> <knn Distance>
3.31662487983704

> <CpId>
1050

$$$$
1092
  Mrv1532301301811342D          

 17 17  0  0  0  0            999 V2000
    0.7145    2.0625    0.0000 N   0  0  0  0  0  0  0  0  0  0  0  0
    0.7145    1.2375    0.0000 C   0  0  0  0  0  0  0  0  0  0  0  0
    1.4289    0.8250    0.0000 C   0  0  0  0  0  0  0  0  0  0  0  0
    1.4289    0.0000    0.0000 C   0  0  0  0  0  0  0  0  0  0  0  0
    0.7145   -0.4125    0.0000 C   0  0  0  0  0  0  0  0  0  0  0  0
   -0.0000    0.0000    0.0000 C   0  0  0  0  0  0  0  0  0  0  0  0
   -0.0000    0.8250    0.0000 C   0  0  0  0  0  0  0  0  0  0  0  0
    0.7145   -1.2375    0.0000 C   0  0  0  0  0  0  0  0  0  0  0  0
    1.4289   -1.6500    0.0000 O   0  0  0  0  0  0  0  0  0  0  0  0
   -0.0000   -1.6500    0.0000 O   0  0  0  0  0  0  0  0  0  0  0  0
    1.4289    2.4750    0.0000 H   0  0  0  0  0  0  0  0  0  0  0  0
   -0.0000    2.4750    0.0000 H   0  0  0  0  0  0  0  0  0  0  0  0
    2.1434    1.2375    0.0000 H   0  0  0  0  0  0  0  0  0  0  0  0
    2.1434   -0.4125    0.0000 H   0  0  0  0  0  0  0  0  0  0  0  0
   -0.7145   -0.4125    0.0000 H   0  0  0  0  0  0  0  0  0  0  0  0
   -0.7145    1.2375    0.0000 H   0  0  0  0  0  0  0  0  0  0  0  0
    1.4289   -2.4750    0.0000 H   0  0  0  0  0  0  0  0  0  0  0  0
  1  2  1  0  0  0  0
  2  3  4  0  0  0  0
  3  4  4  0  0  0  0
  4  5  4  0  0  0  0
  5  6  4  0  0  0  0
  6  7  4  0  0  0  0
  2  7  4  0  0  0  0
  5  8  1  0  0  0  0
  8  9  1  0  0  0  0
  8 10  2  0  0  0  0
  1 11  1  0  0  0  0
  1 12  1  0  0  0  0
  3 13  1  0  0  0  0
  4 14  1  0  0  0  0
  6 15  1  0  0  0  0
  7 16  1  0  0  0  0
  9 17  1  0  0  0  0
M  END
>  <InChIKey>
InChI=1S/C7H7NO2/c8-6-3-1-5(2-4-6)7(9)10/h1-4H,8H2,(H,9,10)

>  <CASRN>
150-13-0

> <Outcome>
0

>  <Index>
1092

>  <StandardizerResult>
Dearomatize (ID: Dearomatize)
Clear Stereo (ID: ClearStereo)
Wedge Clean (ID: WedgeClean)
Mesomerize (ID: Mesomerize)
Tautomerize (ID: Tautomerize)
Aromatize (ID: Aromatize)
Add Explicit Hydrogens (ID: AddExplicitH)
Neutralize (ID: Neutralize)
Clean 2D (ID: Clean2D)

> <knn Distance>
3.31662487983704

> <CpId>
1092

$$$$
1118
  Mrv1532301301811342D          

 26 26  0  0  0  0            999 V2000
   -0.0012    3.2993    0.0000 O   0  0  0  0  0  0  0  0  0  0  0  0
   -0.0012    2.4743    0.0000 C   0  0  0  0  0  0  0  0  0  0  0  0
   -0.7157    2.0618    0.0000 O   0  0  0  0  0  0  0  0  0  0  0  0
    0.7133    2.0618    0.0000 C   0  0  0  0  0  0  0  0  0  0  0  0
    0.7133    1.2368    0.0000 C   0  0  0  0  0  0  0  0  0  0  0  0
    1.4278    0.8243    0.0000 C   0  0  0  0  0  0  0  0  0  0  0  0
    1.4278   -0.0007    0.0000 C   0  0  0  0  0  0  0  0  0  0  0  0
    0.7133   -0.4132    0.0000 C   0  0  0  0  0  0  0  0  0  0  0  0
    0.7133   -1.2382    0.0000 O   0  0  0  0  0  0  0  0  0  0  0  0
    1.4278   -1.6507    0.0000 C   0  0  0  0  0  0  0  0  0  0  0  0
    1.4278   -2.4757    0.0000 C   0  0  0  0  0  0  0  0  0  0  0  0
    2.1422   -2.8882    0.0000 C   0  0  0  0  0  0  0  0  0  0  0  0
   -0.0012   -0.0007    0.0000 C   0  0  0  0  0  0  0  0  0  0  0  0
   -0.7157   -0.4132    0.0000 Cl  0  0  0  0  0  0  0  0  0  0  0  0
   -0.0012    0.8243    0.0000 C   0  0  0  0  0  0  0  0  0  0  0  0
    0.7133    3.7118    0.0000 H   0  0  0  0  0  0  0  0  0  0  0  0
    1.5369    2.1098    0.0000 H   0  0  0  0  0  0  0  0  0  0  0  0
    1.1666    2.7511    0.0000 H   0  0  0  0  0  0  0  0  0  0  0  0
    2.1422    1.2368    0.0000 H   0  0  0  0  0  0  0  0  0  0  0  0
    2.1422   -0.4132    0.0000 H   0  0  0  0  0  0  0  0  0  0  0  0
    2.2514   -1.6027    0.0000 H   0  0  0  0  0  0  0  0  0  0  0  0
    1.8811   -0.9614    0.0000 H   0  0  0  0  0  0  0  0  0  0  0  0
    0.7133   -2.8882    0.0000 H   0  0  0  0  0  0  0  0  0  0  0  0
    2.1422   -3.7132    0.0000 H   0  0  0  0  0  0  0  0  0  0  0  0
    2.8567   -2.4757    0.0000 H   0  0  0  0  0  0  0  0  0  0  0  0
   -0.7157    1.2368    0.0000 H   0  0  0  0  0  0  0  0  0  0  0  0
  1  2  1  0  0  0  0
  2  3  2  0  0  0  0
  2  4  1  0  0  0  0
  4  5  1  0  0  0  0
  5  6  4  0  0  0  0
  6  7  4  0  0  0  0
  7  8  4  0  0  0  0
  8  9  1  0  0  0  0
  9 10  1  0  0  0  0
 10 11  1  0  0  0  0
 11 12  2  0  0  0  0
  8 13  4  0  0  0  0
 13 14  1  0  0  0  0
 13 15  4  0  0  0  0
  5 15  4  0  0  0  0
  1 16  1  0  0  0  0
  4 17  1  0  0  0  0
  4 18  1  0  0  0  0
  6 19  1  0  0  0  0
  7 20  1  0  0  0  0
 10 21  1  0  0  0  0
 10 22  1  0  0  0  0
 11 23  1  0  0  0  0
 12 24  1  0  0  0  0
 12 25  1  0  0  0  0
 15 26  1  0  0  0  0
M  END
>  <InChIKey>
InChI=1S/C11H11ClO3/c1-2-5-15-10-4-3-8(6-9(10)12)7-11(13)14/h2-4,6H,1,5,7H2,(H,13,14)

>  <CASRN>
22131-79-9

> <Outcome>
0

>  <Index>
1118

>  <StandardizerResult>
Dearomatize (ID: Dearomatize)
Clear Stereo (ID: ClearStereo)
Wedge Clean (ID: WedgeClean)
Mesomerize (ID: Mesomerize)
Tautomerize (ID: Tautomerize)
Aromatize (ID: Aromatize)
Add Explicit Hydrogens (ID: AddExplicitH)
Neutralize (ID: Neutralize)
Clean 2D (ID: Clean2D)

> <knn Distance>
3.31662487983704

> <CpId>
1118

$$$$
1122
  Mrv1532301301811342D          

 39 40  0  0  0  0            999 V2000
    3.2474   -0.7387    0.0000 C   0  0  0  0  0  0  0  0  0  0  0  0
    2.8349   -0.0243    0.0000 C   0  0  0  0  0  0  0  0  0  0  0  0
    2.4224    0.6902    0.0000 C   0  0  0  0  0  0  0  0  0  0  0  0
    2.1205   -0.4368    0.0000 O   0  0  0  0  0  0  0  0  0  0  0  0
    2.1205   -1.2618    0.0000 C   0  0  0  0  0  0  0  0  0  0  0  0
    2.8349   -1.6743    0.0000 C   0  0  0  0  0  0  0  0  0  0  0  0
    2.8349   -2.4993    0.0000 C   0  0  0  0  0  0  0  0  0  0  0  0
    2.1205   -2.9118    0.0000 C   0  0  0  0  0  0  0  0  0  0  0  0
    1.4060   -2.4993    0.0000 C   0  0  0  0  0  0  0  0  0  0  0  0
    1.4060   -1.6743    0.0000 C   0  0  0  0  0  0  0  0  0  0  0  0
    2.1205   -3.7368    0.0000 C   0  0  0  0  0  0  0  0  0  0  0  0
    2.8349   -4.1493    0.0000 O   0  0  0  0  0  0  0  0  0  0  0  0
    1.4060   -4.1493    0.0000 C   0  0  0  0  0  0  0  0  0  0  0  0
    1.4060   -4.9743    0.0000 C   0  0  0  0  0  0  0  0  0  0  0  0
    0.6915   -5.3868    0.0000 C   0  0  0  0  0  0  0  0  0  0  0  0
   -0.0229   -4.9743    0.0000 C   0  0  0  0  0  0  0  0  0  0  0  0
   -0.7374   -5.3868    0.0000 Cl  0  0  0  0  0  0  0  0  0  0  0  0
   -0.0229   -4.1493    0.0000 C   0  0  0  0  0  0  0  0  0  0  0  0
    0.6915   -3.7368    0.0000 C   0  0  0  0  0  0  0  0  0  0  0  0
    3.5494    0.3882    0.0000 C   0  0  0  0  0  0  0  0  0  0  0  0
    3.5494    1.2132    0.0000 O   0  0  0  0  0  0  0  0  0  0  0  0
    4.2639   -0.0243    0.0000 O   0  0  0  0  0  0  0  0  0  0  0  0
    2.5330   -1.1512    0.0000 H   0  0  0  0  0  0  0  0  0  0  0  0
    3.6599   -1.4532    0.0000 H   0  0  0  0  0  0  0  0  0  0  0  0
    3.9619   -0.3262    0.0000 H   0  0  0  0  0  0  0  0  0  0  0  0
    3.1369    1.1027    0.0000 H   0  0  0  0  0  0  0  0  0  0  0  0
    2.0099    1.4047    0.0000 H   0  0  0  0  0  0  0  0  0  0  0  0
    1.7080    0.2777    0.0000 H   0  0  0  0  0  0  0  0  0  0  0  0
    3.1507   -0.9121    0.0000 H   0  0  0  0  0  0  0  0  0  0  0  0
    3.5494   -2.9118    0.0000 H   0  0  0  0  0  0  0  0  0  0  0  0
    0.6915   -2.9118    0.0000 H   0  0  0  0  0  0  0  0  0  0  0  0
    0.6915   -1.2618    0.0000 H   0  0  0  0  0  0  0  0  0  0  0  0
    2.8349   -3.3243    0.0000 H   0  0  0  0  0  0  0  0  0  0  0  0
    3.2474   -4.8637    0.0000 H   0  0  0  0  0  0  0  0  0  0  0  0
    2.1205   -5.3868    0.0000 H   0  0  0  0  0  0  0  0  0  0  0  0
    0.6915   -6.2118    0.0000 H   0  0  0  0  0  0  0  0  0  0  0  0
   -0.7374   -3.7368    0.0000 H   0  0  0  0  0  0  0  0  0  0  0  0
    1.4060   -3.3243    0.0000 H   0  0  0  0  0  0  0  0  0  0  0  0
    4.0516    1.8678    0.0000 H   0  0  0  0  0  0  0  0  0  0  0  0
  1  2  1  0  0  0  0
  2  3  1  0  0  0  0
  2  4  1  0  0  0  0
  4  5  1  0  0  0  0
  5  6  4  0  0  0  0
  6  7  4  0  0  0  0
  7  8  4  0  0  0  0
  8  9  4  0  0  0  0
  9 10  4  0  0  0  0
  5 10  4  0  0  0  0
  8 11  1  0  0  0  0
 11 12  1  0  0  0  0
 11 13  1  0  0  0  0
 13 14  4  0  0  0  0
 14 15  4  0  0  0  0
 15 16  4  0  0  0  0
 16 17  1  0  0  0  0
 16 18  4  0  0  0  0
 18 19  4  0  0  0  0
 13 19  4  0  0  0  0
  2 20  1  0  0  0  0
 20 21  1  0  0  0  0
 20 22  2  0  0  0  0
  1 23  1  0  0  0  0
  1 24  1  0  0  0  0
  1 25  1  0  0  0  0
  3 26  1  0  0  0  0
  3 27  1  0  0  0  0
  3 28  1  0  0  0  0
  6 29  1  0  0  0  0
  7 30  1  0  0  0  0
  9 31  1  0  0  0  0
 10 32  1  0  0  0  0
 11 33  1  0  0  0  0
 12 34  1  0  0  0  0
 14 35  1  0  0  0  0
 15 36  1  0  0  0  0
 18 37  1  0  0  0  0
 19 38  1  0  0  0  0
 21 39  1  0  0  0  0
M  END
>  <InChIKey>
InChI=1S/C17H17ClO4/c1-17(2,16(20)21)22-14-9-5-12(6-10-14)15(19)11-3-7-13(18)8-4-11/h3-10,15,19H,1-2H3,(H,20,21)

>  <CASRN>
54419-31-7

> <Outcome>
0

>  <Index>
1122

>  <StandardizerResult>
Dearomatize (ID: Dearomatize)
Clear Stereo (ID: ClearStereo)
Wedge Clean (ID: WedgeClean)
Mesomerize (ID: Mesomerize)
Tautomerize (ID: Tautomerize)
Aromatize (ID: Aromatize)
Add Explicit Hydrogens (ID: AddExplicitH)
Neutralize (ID: Neutralize)
Clean 2D (ID: Clean2D)

> <knn Distance>
3.31662487983704

> <CpId>
1122

$$$$
1179
  Mrv1532301301811342D          

 23 23  0  0  0  0            999 V2000
   -0.0000   -2.4742    0.0000 C   0  0  0  0  0  0  0  0  0  0  0  0
    0.7145   -2.8867    0.0000 C   0  0  0  0  0  0  0  0  0  0  0  0
    0.7145   -3.7117    0.0000 O   0  0  0  0  0  0  0  0  0  0  0  0
    1.4289   -2.4742    0.0000 O   0  0  0  0  0  0  0  0  0  0  0  0
    2.1434   -2.8867    0.0000 C   0  0  0  0  0  0  0  0  0  0  0  0
    2.8579   -2.4742    0.0000 C   0  0  0  0  0  0  0  0  0  0  0  0
    2.8579   -1.6492    0.0000 O   0  0  0  0  0  0  0  0  0  0  0  0
    3.5724   -2.8867    0.0000 C   0  0  0  0  0  0  0  0  0  0  0  0
    4.2868   -2.4742    0.0000 C   0  0  0  0  0  0  0  0  0  0  0  0
    5.0013   -2.8867    0.0000 C   0  0  0  0  0  0  0  0  0  0  0  0
    5.0013   -3.7117    0.0000 C   0  0  0  0  0  0  0  0  0  0  0  0
    4.2868   -4.1242    0.0000 C   0  0  0  0  0  0  0  0  0  0  0  0
    3.5724   -3.7117    0.0000 C   0  0  0  0  0  0  0  0  0  0  0  0
    0.4125   -1.7598    0.0000 H   0  0  0  0  0  0  0  0  0  0  0  0
   -0.7145   -2.0617    0.0000 H   0  0  0  0  0  0  0  0  0  0  0  0
   -0.4125   -3.1887    0.0000 H   0  0  0  0  0  0  0  0  0  0  0  0
    1.7732   -3.6240    0.0000 H   0  0  0  0  0  0  0  0  0  0  0  0
    2.5137   -3.6240    0.0000 H   0  0  0  0  0  0  0  0  0  0  0  0
    4.2868   -1.6492    0.0000 H   0  0  0  0  0  0  0  0  0  0  0  0
    5.7158   -2.4742    0.0000 H   0  0  0  0  0  0  0  0  0  0  0  0
    5.7158   -4.1242    0.0000 H   0  0  0  0  0  0  0  0  0  0  0  0
    4.2868   -4.9492    0.0000 H   0  0  0  0  0  0  0  0  0  0  0  0
    2.8579   -4.1242    0.0000 H   0  0  0  0  0  0  0  0  0  0  0  0
  1  2  1  0  0  0  0
  2  3  2  0  0  0  0
  2  4  1  0  0  0  0
  4  5  1  0  0  0  0
  5  6  1  0  0  0  0
  6  7  2  0  0  0  0
  6  8  1  0  0  0  0
  8  9  4  0  0  0  0
  9 10  4  0  0  0  0
 10 11  4  0  0  0  0
 11 12  4  0  0  0  0
 12 13  4  0  0  0  0
  8 13  4  0  0  0  0
  1 14  1  0  0  0  0
  1 15  1  0  0  0  0
  1 16  1  0  0  0  0
  5 17  1  0  0  0  0
  5 18  1  0  0  0  0
  9 19  1  0  0  0  0
 10 20  1  0  0  0  0
 11 21  1  0  0  0  0
 12 22  1  0  0  0  0
 13 23  1  0  0  0  0
M  END
>  <InChIKey>
InChI=1S/C10H10O3/c1-8(11)13-7-10(12)9-5-3-2-4-6-9/h2-6H,7H2,1H3

>  <UN GHS>
Non-irritant

>  <CASRN>
2243-35-8

> <Outcome>
0

>  <Index>
1179

>  <StandardizerResult>
Dearomatize (ID: Dearomatize)
Clear Stereo (ID: ClearStereo)
Wedge Clean (ID: WedgeClean)
Mesomerize (ID: Mesomerize)
Tautomerize (ID: Tautomerize)
Aromatize (ID: Aromatize)
Add Explicit Hydrogens (ID: AddExplicitH)
Neutralize (ID: Neutralize)
Clean 2D (ID: Clean2D)

> <knn Distance>
3.31662487983704

> <CpId>
1179

$$$$
1224
  Mrv1532301301811342D          

 10 10  0  0  0  0            999 V2000
   -0.3372    2.1584    0.0000 Cl  0  0  0  0  0  0  0  0  0  0  0  0
    0.3772    1.7459    0.0000 C   0  0  0  0  0  0  0  0  0  0  0  0
    0.3772    0.9209    0.0000 C   0  0  0  0  0  0  0  0  0  0  0  0
    0.7897    0.2065    0.0000 C   0  0  0  0  0  0  0  0  0  0  0  0
   -0.0353    0.2065    0.0000 O   0  0  0  0  0  0  0  0  0  0  0  0
    1.2008    1.7939    0.0000 H   0  0  0  0  0  0  0  0  0  0  0  0
    0.8306    2.4352    0.0000 H   0  0  0  0  0  0  0  0  0  0  0  0
   -0.4197    1.1345    0.0000 H   0  0  0  0  0  0  0  0  0  0  0  0
    1.1600   -0.5308    0.0000 H   0  0  0  0  0  0  0  0  0  0  0  0
    1.6133    0.2544    0.0000 H   0  0  0  0  0  0  0  0  0  0  0  0
  1  2  1  0  0  0  0
  2  3  1  0  0  0  0
  3  4  1  0  0  0  0
  4  5  1  0  0  0  0
  3  5  1  0  0  0  0
  2  6  1  0  0  0  0
  2  7  1  0  0  0  0
  3  8  1  0  0  0  0
  4  9  1  0  0  0  0
  4 10  1  0  0  0  0
M  END
>  <InChIKey>
InChI=1S/C3H5ClO/c4-1-3-2-5-3/h3H,1-2H2

>  <CASRN>
106-89-8

> <Outcome>
0

>  <Index>
1224

>  <StandardizerResult>
Clear Stereo (ID: ClearStereo)
Wedge Clean (ID: WedgeClean)
Mesomerize (ID: Mesomerize)
Tautomerize (ID: Tautomerize)
Add Explicit Hydrogens (ID: AddExplicitH)
Neutralize (ID: Neutralize)
Clean 2D (ID: Clean2D)

> <knn Distance>
3.31662487983704

> <CpId>
1224

$$$$
1698
  Mrv1532301301811342D          

 17 17  0  0  0  0            999 V2000
    0.7145    2.0625    0.0000 N   0  0  0  0  0  0  0  0  0  0  0  0
    0.7145    1.2375    0.0000 C   0  0  0  0  0  0  0  0  0  0  0  0
    1.4289    0.8250    0.0000 C   0  0  0  0  0  0  0  0  0  0  0  0
    1.4289   -0.0000    0.0000 C   0  0  0  0  0  0  0  0  0  0  0  0
    2.1434   -0.4125    0.0000 Cl  0  0  0  0  0  0  0  0  0  0  0  0
    0.7145   -0.4125    0.0000 C   0  0  0  0  0  0  0  0  0  0  0  0
   -0.0000   -0.0000    0.0000 C   0  0  0  0  0  0  0  0  0  0  0  0
   -0.7145   -0.4125    0.0000 C   0  0  0  0  0  0  0  0  0  0  0  0
   -0.7145   -1.2375    0.0000 O   0  0  0  0  0  0  0  0  0  0  0  0
   -1.4289   -0.0000    0.0000 O   0  0  0  0  0  0  0  0  0  0  0  0
   -0.0000    0.8250    0.0000 C   0  0  0  0  0  0  0  0  0  0  0  0
   -0.7145    1.2375    0.0000 Cl  0  0  0  0  0  0  0  0  0  0  0  0
    1.4289    2.4750    0.0000 H   0  0  0  0  0  0  0  0  0  0  0  0
   -0.0000    2.4750    0.0000 H   0  0  0  0  0  0  0  0  0  0  0  0
    2.1434    1.2375    0.0000 H   0  0  0  0  0  0  0  0  0  0  0  0
    0.7145   -1.2375    0.0000 H   0  0  0  0  0  0  0  0  0  0  0  0
   -1.4289   -1.6500    0.0000 H   0  0  0  0  0  0  0  0  0  0  0  0
  1  2  1  0  0  0  0
  2  3  4  0  0  0  0
  3  4  4  0  0  0  0
  4  5  1  0  0  0  0
  4  6  4  0  0  0  0
  6  7  4  0  0  0  0
  7  8  1  0  0  0  0
  8  9  1  0  0  0  0
  8 10  2  0  0  0  0
  7 11  4  0  0  0  0
  2 11  4  0  0  0  0
 11 12  1  0  0  0  0
  1 13  1  0  0  0  0
  1 14  1  0  0  0  0
  3 15  1  0  0  0  0
  6 16  1  0  0  0  0
  9 17  1  0  0  0  0
M  END
>  <InChIKey>
InChI=1S/C7H5Cl2NO2/c8-3-1-4(7(11)12)6(9)5(10)2-3/h1-2H,10H2,(H,11,12)

>  <CASRN>
133-90-4

> <Outcome>
0

>  <Index>
1698

>  <StandardizerResult>
Dearomatize (ID: Dearomatize)
Clear Stereo (ID: ClearStereo)
Wedge Clean (ID: WedgeClean)
Mesomerize (ID: Mesomerize)
Tautomerize (ID: Tautomerize)
Aromatize (ID: Aromatize)
Add Explicit Hydrogens (ID: AddExplicitH)
Neutralize (ID: Neutralize)
Clean 2D (ID: Clean2D)

> <knn Distance>
3.31662487983704

> <CpId>
1698

$$$$
1701
  Mrv1532301301811342D          

 29 29  0  0  0  0            999 V2000
    0.6700    3.8494    0.0000 C   0  0  0  0  0  0  0  0  0  0  0  0
    0.6700    3.0244    0.0000 C   0  0  0  0  0  0  0  0  0  0  0  0
   -0.1550    3.0244    0.0000 C   0  0  0  0  0  0  0  0  0  0  0  0
    1.4950    3.0244    0.0000 O   0  0  0  0  0  0  0  0  0  0  0  0
    0.6700    2.1994    0.0000 C   0  0  0  0  0  0  0  0  0  0  0  0
   -0.1550    2.1994    0.0000 C   0  0  0  0  0  0  0  0  0  0  0  0
    1.4950    2.1994    0.0000 O   0  0  0  0  0  0  0  0  0  0  0  0
    0.6700    1.3744    0.0000 C   0  0  0  0  0  0  0  0  0  0  0  0
    1.3845    0.9619    0.0000 C   0  0  0  0  0  0  0  0  0  0  0  0
    1.3845    0.1369    0.0000 C   0  0  0  0  0  0  0  0  0  0  0  0
    0.6700   -0.2756    0.0000 C   0  0  0  0  0  0  0  0  0  0  0  0
    0.6700   -1.1006    0.0000 Cl  0  0  0  0  0  0  0  0  0  0  0  0
   -0.0445    0.1369    0.0000 C   0  0  0  0  0  0  0  0  0  0  0  0
   -0.0445    0.9619    0.0000 C   0  0  0  0  0  0  0  0  0  0  0  0
    1.4950    3.8494    0.0000 H   0  0  0  0  0  0  0  0  0  0  0  0
    0.6700    4.6744    0.0000 H   0  0  0  0  0  0  0  0  0  0  0  0
   -0.1550    3.8494    0.0000 H   0  0  0  0  0  0  0  0  0  0  0  0
   -0.7384    3.6077    0.0000 H   0  0  0  0  0  0  0  0  0  0  0  0
   -0.9800    3.0244    0.0000 H   0  0  0  0  0  0  0  0  0  0  0  0
   -0.7384    2.4410    0.0000 H   0  0  0  0  0  0  0  0  0  0  0  0
    2.3200    3.0244    0.0000 H   0  0  0  0  0  0  0  0  0  0  0  0
   -0.8826    1.8105    0.0000 H   0  0  0  0  0  0  0  0  0  0  0  0
   -0.3159    1.3902    0.0000 H   0  0  0  0  0  0  0  0  0  0  0  0
    0.3684    1.5616    0.0000 H   0  0  0  0  0  0  0  0  0  0  0  0
    2.0784    1.6160    0.0000 H   0  0  0  0  0  0  0  0  0  0  0  0
    2.1419    0.6349    0.0000 H   0  0  0  0  0  0  0  0  0  0  0  0
    1.8175   -0.5653    0.0000 H   0  0  0  0  0  0  0  0  0  0  0  0
   -0.7589   -0.2756    0.0000 H   0  0  0  0  0  0  0  0  0  0  0  0
   -0.8368    0.7319    0.0000 H   0  0  0  0  0  0  0  0  0  0  0  0
  1  2  1  0  0  0  0
  2  3  1  0  0  0  0
  2  4  1  0  0  0  0
  2  5  1  0  0  0  0
  5  6  1  0  0  0  0
  5  7  1  0  0  0  0
  5  8  1  0  0  0  0
  8  9  4  0  0  0  0
  9 10  4  0  0  0  0
 10 11  4  0  0  0  0
 11 12  1  0  0  0  0
 11 13  4  0  0  0  0
 13 14  4  0  0  0  0
  8 14  4  0  0  0  0
  1 15  1  0  0  0  0
  1 16  1  0  0  0  0
  1 17  1  0  0  0  0
  3 18  1  0  0  0  0
  3 19  1  0  0  0  0
  3 20  1  0  0  0  0
  4 21  1  0  0  0  0
  6 22  1  0  0  0  0
  6 23  1  0  0  0  0
  6 24  1  0  0  0  0
  7 25  1  0  0  0  0
  9 26  1  0  0  0  0
 10 27  1  0  0  0  0
 13 28  1  0  0  0  0
 14 29  1  0  0  0  0
M  END
>  <InChIKey>
InChI=1S/C11H15ClO2/c1-10(2,13)11(3,14)8-4-6-9(12)7-5-8/h4-7,13-14H,1-3H3

>  <CASRN>
79-93-6

> <Outcome>
0

>  <Index>
1701

>  <StandardizerResult>
Dearomatize (ID: Dearomatize)
Clear Stereo (ID: ClearStereo)
Wedge Clean (ID: WedgeClean)
Mesomerize (ID: Mesomerize)
Tautomerize (ID: Tautomerize)
Aromatize (ID: Aromatize)
Add Explicit Hydrogens (ID: AddExplicitH)
Neutralize (ID: Neutralize)
Clean 2D (ID: Clean2D)

> <knn Distance>
3.31662487983704

> <CpId>
1701

$$$$
1986
  Mrv1532301301811342D          

 38 41  0  0  0  0            999 V2000
    2.5241   -4.4411    0.0000 O   0  0  0  0  0  0  0  0  0  0  0  0
    2.1885   -3.6874    0.0000 C   0  0  0  0  0  0  0  0  0  0  0  0
    1.3680   -3.6012    0.0000 C   0  0  0  0  0  0  0  0  0  0  0  0
    1.0325   -2.8475    0.0000 C   0  0  0  0  0  0  0  0  0  0  0  0
    1.5174   -2.1801    0.0000 C   0  0  0  0  0  0  0  0  0  0  0  0
    2.3379   -2.2663    0.0000 C   0  0  0  0  0  0  0  0  0  0  0  0
    2.6734   -3.0200    0.0000 C   0  0  0  0  0  0  0  0  0  0  0  0
    1.1818   -1.4264    0.0000 C   0  0  0  0  0  0  0  0  0  0  0  0
    0.6969   -0.7590    0.0000 O   0  0  0  0  0  0  0  0  0  0  0  0
    1.1818   -0.0915    0.0000 C   0  0  0  0  0  0  0  0  0  0  0  0
    0.9269    0.6931    0.0000 O   0  0  0  0  0  0  0  0  0  0  0  0
    1.9664   -0.3465    0.0000 C   0  0  0  0  0  0  0  0  0  0  0  0
    2.6809    0.0660    0.0000 C   0  0  0  0  0  0  0  0  0  0  0  0
    3.3954   -0.3465    0.0000 C   0  0  0  0  0  0  0  0  0  0  0  0
    3.3954   -1.1715    0.0000 C   0  0  0  0  0  0  0  0  0  0  0  0
    2.6809   -1.5840    0.0000 C   0  0  0  0  0  0  0  0  0  0  0  0
    1.9664   -1.1715    0.0000 C   0  0  0  0  0  0  0  0  0  0  0  0
    0.4673   -1.8389    0.0000 C   0  0  0  0  0  0  0  0  0  0  0  0
    0.4673   -2.6639    0.0000 C   0  0  0  0  0  0  0  0  0  0  0  0
   -0.2471   -3.0764    0.0000 C   0  0  0  0  0  0  0  0  0  0  0  0
   -0.9616   -2.6639    0.0000 C   0  0  0  0  0  0  0  0  0  0  0  0
   -1.6761   -3.0764    0.0000 O   0  0  0  0  0  0  0  0  0  0  0  0
   -0.9616   -1.8389    0.0000 C   0  0  0  0  0  0  0  0  0  0  0  0
   -0.2471   -1.4264    0.0000 C   0  0  0  0  0  0  0  0  0  0  0  0
    2.0391   -5.1086    0.0000 H   0  0  0  0  0  0  0  0  0  0  0  0
    0.8831   -4.2686    0.0000 H   0  0  0  0  0  0  0  0  0  0  0  0
    0.4804   -3.4606    0.0000 H   0  0  0  0  0  0  0  0  0  0  0  0
    3.1626   -2.2857    0.0000 H   0  0  0  0  0  0  0  0  0  0  0  0
    3.3506   -3.4913    0.0000 H   0  0  0  0  0  0  0  0  0  0  0  0
    2.6809    0.8910    0.0000 H   0  0  0  0  0  0  0  0  0  0  0  0
    4.1099    0.0660    0.0000 H   0  0  0  0  0  0  0  0  0  0  0  0
    4.1099   -1.5840    0.0000 H   0  0  0  0  0  0  0  0  0  0  0  0
    2.6809   -0.7590    0.0000 H   0  0  0  0  0  0  0  0  0  0  0  0
    1.1348   -2.1790    0.0000 H   0  0  0  0  0  0  0  0  0  0  0  0
   -0.6461   -3.7985    0.0000 H   0  0  0  0  0  0  0  0  0  0  0  0
   -2.3905   -2.6639    0.0000 H   0  0  0  0  0  0  0  0  0  0  0  0
   -1.6761   -1.4264    0.0000 H   0  0  0  0  0  0  0  0  0  0  0  0
   -0.2471   -0.6014    0.0000 H   0  0  0  0  0  0  0  0  0  0  0  0
  1  2  1  0  0  0  0
  2  3  4  0  0  0  0
  3  4  4  0  0  0  0
  4  5  4  0  0  0  0
  5  6  4  0  0  0  0
  6  7  4  0  0  0  0
  2  7  4  0  0  0  0
  5  8  1  0  0  0  0
  8  9  1  0  0  0  0
  9 10  1  0  0  0  0
 10 11  2  0  0  0  0
 10 12  1  0  0  0  0
 12 13  4  0  0  0  0
 13 14  4  0  0  0  0
 14 15  4  0  0  0  0
 15 16  4  0  0  0  0
 16 17  4  0  0  0  0
  8 17  1  0  0  0  0
 12 17  4  0  0  0  0
  8 18  1  0  0  0  0
 18 19  4  0  0  0  0
 19 20  4  0  0  0  0
 20 21  4  0  0  0  0
 21 22  1  0  0  0  0
 21 23  4  0  0  0  0
 23 24  4  0  0  0  0
 18 24  4  0  0  0  0
  1 25  1  0  0  0  0
  3 26  1  0  0  0  0
  4 27  1  0  0  0  0
  6 28  1  0  0  0  0
  7 29  1  0  0  0  0
 13 30  1  0  0  0  0
 14 31  1  0  0  0  0
 15 32  1  0  0  0  0
 16 33  1  0  0  0  0
 19 34  1  0  0  0  0
 20 35  1  0  0  0  0
 22 36  1  0  0  0  0
 23 37  1  0  0  0  0
 24 38  1  0  0  0  0
M  END
>  <InChIKey>
InChI=1S/C20H14O4/c21-15-9-5-13(6-10-15)20(14-7-11-16(22)12-8-14)18-4-2-1-3-17(18)19(23)24-20/h1-12,21-22H

>  <CASRN>
77-09-8

> <Outcome>
0

>  <Index>
1986

>  <StandardizerResult>
Dearomatize (ID: Dearomatize)
Clear Stereo (ID: ClearStereo)
Wedge Clean (ID: WedgeClean)
Mesomerize (ID: Mesomerize)
Tautomerize (ID: Tautomerize)
Aromatize (ID: Aromatize)
Add Explicit Hydrogens (ID: AddExplicitH)
Neutralize (ID: Neutralize)
Clean 2D (ID: Clean2D)

> <knn Distance>
3.31662487983704

> <CpId>
1986

$$$$
2155
  Mrv1532301301811342D          

 23 24  0  0  0  0            999 V2000
    4.0971    1.6976    0.0000 C   0  0  0  0  0  0  0  0  0  0  0  0
    4.0971    0.8726    0.0000 C   0  0  0  0  0  0  0  0  0  0  0  0
    3.5137    0.2892    0.0000 C   0  0  0  0  0  0  0  0  0  0  0  0
    2.6887    0.2892    0.0000 C   0  0  0  0  0  0  0  0  0  0  0  0
    2.1054    0.8726    0.0000 C   0  0  0  0  0  0  0  0  0  0  0  0
    1.3909    1.2851    0.0000 O   0  0  0  0  0  0  0  0  0  0  0  0
    2.1054    1.6976    0.0000 C   0  0  0  0  0  0  0  0  0  0  0  0
    2.6887    2.2809    0.0000 C   0  0  0  0  0  0  0  0  0  0  0  0
    3.5137    2.2809    0.0000 C   0  0  0  0  0  0  0  0  0  0  0  0
    4.9213    1.6616    0.0000 H   0  0  0  0  0  0  0  0  0  0  0  0
    4.6545    2.3058    0.0000 H   0  0  0  0  0  0  0  0  0  0  0  0
    4.6545    0.2643    0.0000 H   0  0  0  0  0  0  0  0  0  0  0  0
    4.9213    0.9086    0.0000 H   0  0  0  0  0  0  0  0  0  0  0  0
    3.4777   -0.5350    0.0000 H   0  0  0  0  0  0  0  0  0  0  0  0
    4.1220   -0.2681    0.0000 H   0  0  0  0  0  0  0  0  0  0  0  0
    2.0805   -0.2681    0.0000 H   0  0  0  0  0  0  0  0  0  0  0  0
    2.7247   -0.5350    0.0000 H   0  0  0  0  0  0  0  0  0  0  0  0
    1.6031    0.2181    0.0000 H   0  0  0  0  0  0  0  0  0  0  0  0
    1.6031    2.3521    0.0000 H   0  0  0  0  0  0  0  0  0  0  0  0
    2.7247    3.1052    0.0000 H   0  0  0  0  0  0  0  0  0  0  0  0
    2.0805    2.8383    0.0000 H   0  0  0  0  0  0  0  0  0  0  0  0
    4.1220    2.8383    0.0000 H   0  0  0  0  0  0  0  0  0  0  0  0
    3.4777    3.1052    0.0000 H   0  0  0  0  0  0  0  0  0  0  0  0
  1  2  1  0  0  0  0
  2  3  1  0  0  0  0
  3  4  1  0  0  0  0
  4  5  1  0  0  0  0
  5  6  1  0  0  0  0
  6  7  1  0  0  0  0
  5  7  1  0  0  0  0
  7  8  1  0  0  0  0
  8  9  1  0  0  0  0
  1  9  1  0  0  0  0
  1 10  1  0  0  0  0
  1 11  1  0  0  0  0
  2 12  1  0  0  0  0
  2 13  1  0  0  0  0
  3 14  1  0  0  0  0
  3 15  1  0  0  0  0
  4 16  1  0  0  0  0
  4 17  1  0  0  0  0
  5 18  1  0  0  0  0
  7 19  1  0  0  0  0
  8 20  1  0  0  0  0
  8 21  1  0  0  0  0
  9 22  1  0  0  0  0
  9 23  1  0  0  0  0
M  END
>  <InChIKey>
InChI=1S/C8H14O/c1-2-4-6-8-7(9-8)5-3-1/h7-8H,1-6H2

>  <UN GHS>
Non-irritant

>  <CASRN>
286-62-4

> <Outcome>
0

>  <Index>
2155

>  <StandardizerResult>
Clear Stereo (ID: ClearStereo)
Wedge Clean (ID: WedgeClean)
Mesomerize (ID: Mesomerize)
Tautomerize (ID: Tautomerize)
Add Explicit Hydrogens (ID: AddExplicitH)
Neutralize (ID: Neutralize)
Clean 2D (ID: Clean2D)

> <knn Distance>
3.31662487983704

> <CpId>
2155

$$$$
2209
  Mrv1532301301811342D          

 37 38  0  0  0  0            999 V2000
    3.2574   -0.7371    0.0000 C   0  0  0  0  0  0  0  0  0  0  0  0
    2.8449   -0.0226    0.0000 C   0  0  0  0  0  0  0  0  0  0  0  0
    2.4324    0.6919    0.0000 C   0  0  0  0  0  0  0  0  0  0  0  0
    2.1304   -0.4351    0.0000 O   0  0  0  0  0  0  0  0  0  0  0  0
    2.1304   -1.2601    0.0000 C   0  0  0  0  0  0  0  0  0  0  0  0
    2.8449   -1.6726    0.0000 C   0  0  0  0  0  0  0  0  0  0  0  0
    2.8449   -2.4976    0.0000 C   0  0  0  0  0  0  0  0  0  0  0  0
    2.1304   -2.9101    0.0000 C   0  0  0  0  0  0  0  0  0  0  0  0
    1.4159   -2.4976    0.0000 C   0  0  0  0  0  0  0  0  0  0  0  0
    1.4159   -1.6726    0.0000 C   0  0  0  0  0  0  0  0  0  0  0  0
    2.1304   -3.7351    0.0000 C   0  0  0  0  0  0  0  0  0  0  0  0
    2.8449   -4.1476    0.0000 O   0  0  0  0  0  0  0  0  0  0  0  0
    1.4159   -4.1476    0.0000 C   0  0  0  0  0  0  0  0  0  0  0  0
    1.4159   -4.9726    0.0000 C   0  0  0  0  0  0  0  0  0  0  0  0
    0.7014   -5.3851    0.0000 C   0  0  0  0  0  0  0  0  0  0  0  0
   -0.0130   -4.9726    0.0000 C   0  0  0  0  0  0  0  0  0  0  0  0
   -0.7275   -5.3851    0.0000 Cl  0  0  0  0  0  0  0  0  0  0  0  0
   -0.0130   -4.1476    0.0000 C   0  0  0  0  0  0  0  0  0  0  0  0
    0.7014   -3.7351    0.0000 C   0  0  0  0  0  0  0  0  0  0  0  0
    3.5593    0.3899    0.0000 C   0  0  0  0  0  0  0  0  0  0  0  0
    3.5593    1.2149    0.0000 O   0  0  0  0  0  0  0  0  0  0  0  0
    4.2738   -0.0226    0.0000 O   0  0  0  0  0  0  0  0  0  0  0  0
    2.5429   -1.1496    0.0000 H   0  0  0  0  0  0  0  0  0  0  0  0
    3.6699   -1.4515    0.0000 H   0  0  0  0  0  0  0  0  0  0  0  0
    3.9718   -0.3246    0.0000 H   0  0  0  0  0  0  0  0  0  0  0  0
    3.1468    1.1044    0.0000 H   0  0  0  0  0  0  0  0  0  0  0  0
    2.0199    1.4064    0.0000 H   0  0  0  0  0  0  0  0  0  0  0  0
    1.7179    0.2794    0.0000 H   0  0  0  0  0  0  0  0  0  0  0  0
    3.1606   -0.9104    0.0000 H   0  0  0  0  0  0  0  0  0  0  0  0
    3.5593   -2.9101    0.0000 H   0  0  0  0  0  0  0  0  0  0  0  0
    0.7014   -2.9101    0.0000 H   0  0  0  0  0  0  0  0  0  0  0  0
    0.7014   -1.2601    0.0000 H   0  0  0  0  0  0  0  0  0  0  0  0
    2.1304   -5.3851    0.0000 H   0  0  0  0  0  0  0  0  0  0  0  0
    0.7014   -6.2101    0.0000 H   0  0  0  0  0  0  0  0  0  0  0  0
   -0.7275   -3.7351    0.0000 H   0  0  0  0  0  0  0  0  0  0  0  0
    1.4159   -3.3226    0.0000 H   0  0  0  0  0  0  0  0  0  0  0  0
    4.0615    1.8694    0.0000 H   0  0  0  0  0  0  0  0  0  0  0  0
  1  2  1  0  0  0  0
  2  3  1  0  0  0  0
  2  4  1  0  0  0  0
  4  5  1  0  0  0  0
  5  6  4  0  0  0  0
  6  7  4  0  0  0  0
  7  8  4  0  0  0  0
  8  9  4  0  0  0  0
  9 10  4  0  0  0  0
  5 10  4  0  0  0  0
  8 11  1  0  0  0  0
 11 12  2  0  0  0  0
 11 13  1  0  0  0  0
 13 14  4  0  0  0  0
 14 15  4  0  0  0  0
 15 16  4  0  0  0  0
 16 17  1  0  0  0  0
 16 18  4  0  0  0  0
 18 19  4  0  0  0  0
 13 19  4  0  0  0  0
  2 20  1  0  0  0  0
 20 21  1  0  0  0  0
 20 22  2  0  0  0  0
  1 23  1  0  0  0  0
  1 24  1  0  0  0  0
  1 25  1  0  0  0  0
  3 26  1  0  0  0  0
  3 27  1  0  0  0  0
  3 28  1  0  0  0  0
  6 29  1  0  0  0  0
  7 30  1  0  0  0  0
  9 31  1  0  0  0  0
 10 32  1  0  0  0  0
 14 33  1  0  0  0  0
 15 34  1  0  0  0  0
 18 35  1  0  0  0  0
 19 36  1  0  0  0  0
 21 37  1  0  0  0  0
M  END
>  <InChIKey>
InChI=1S/C17H15ClO4/c1-17(2,16(20)21)22-14-9-5-12(6-10-14)15(19)11-3-7-13(18)8-4-11/h3-10H,1-2H3,(H,20,21)

>  <CASRN>
42017-89-0

> <Outcome>
0

>  <Index>
2209

>  <StandardizerResult>
Dearomatize (ID: Dearomatize)
Clear Stereo (ID: ClearStereo)
Wedge Clean (ID: WedgeClean)
Mesomerize (ID: Mesomerize)
Tautomerize (ID: Tautomerize)
Aromatize (ID: Aromatize)
Add Explicit Hydrogens (ID: AddExplicitH)
Neutralize (ID: Neutralize)
Clean 2D (ID: Clean2D)

> <knn Distance>
3.31662487983704

> <CpId>
2209

$$$$
2364
  Mrv1532301301811342D          

 96 97  0  0  0  0            999 V2000
    2.1339  -10.3069    0.0000 C   0  0  0  0  0  0  0  0  0  0  0  0
    2.1339  -11.1319    0.0000 C   0  0  0  0  0  0  0  0  0  0  0  0
    1.4195  -11.5444    0.0000 C   0  0  0  0  0  0  0  0  0  0  0  0
    0.7050  -11.1319    0.0000 C   0  0  0  0  0  0  0  0  0  0  0  0
   -0.0095  -11.5444    0.0000 C   0  0  0  0  0  0  0  0  0  0  0  0
   -0.7239  -11.1319    0.0000 C   0  0  0  0  0  0  0  0  0  0  0  0
   -0.7239  -10.3069    0.0000 C   0  0  0  0  0  0  0  0  0  0  0  0
   -1.4384  -11.5444    0.0000 C   0  0  0  0  0  0  0  0  0  0  0  0
   -1.4384  -12.3694    0.0000 C   0  0  0  0  0  0  0  0  0  0  0  0
   -2.1529  -12.7819    0.0000 C   0  0  0  0  0  0  0  0  0  0  0  0
   -2.1529  -13.6069    0.0000 C   0  0  0  0  0  0  0  0  0  0  0  0
   -1.4384  -14.0194    0.0000 C   0  0  0  0  0  0  0  0  0  0  0  0
   -2.8673  -14.0194    0.0000 C   0  0  0  0  0  0  0  0  0  0  0  0
   -3.5818  -13.6069    0.0000 C   0  0  0  0  0  0  0  0  0  0  0  0
   -3.5818  -12.7819    0.0000 C   0  0  0  0  0  0  0  0  0  0  0  0
   -2.8673  -12.3694    0.0000 C   0  0  0  0  0  0  0  0  0  0  0  0
   -3.2547  -11.6409    0.0000 C   0  0  0  0  0  0  0  0  0  0  0  0
   -2.4800  -11.6409    0.0000 C   0  0  0  0  0  0  0  0  0  0  0  0
    2.8484  -11.5444    0.0000 C   0  0  0  0  0  0  0  0  0  0  0  0
    3.5629  -11.1319    0.0000 C   0  0  0  0  0  0  0  0  0  0  0  0
    4.2774  -11.5444    0.0000 C   0  0  0  0  0  0  0  0  0  0  0  0
    4.9918  -11.1319    0.0000 C   0  0  0  0  0  0  0  0  0  0  0  0
    5.7063  -11.5444    0.0000 C   0  0  0  0  0  0  0  0  0  0  0  0
    5.7063  -12.3694    0.0000 C   0  0  0  0  0  0  0  0  0  0  0  0
    6.4208  -11.1319    0.0000 C   0  0  0  0  0  0  0  0  0  0  0  0
    7.1352  -11.5444    0.0000 C   0  0  0  0  0  0  0  0  0  0  0  0
    7.8497  -11.1319    0.0000 C   0  0  0  0  0  0  0  0  0  0  0  0
    8.5642  -11.5444    0.0000 C   0  0  0  0  0  0  0  0  0  0  0  0
    8.5642  -12.3694    0.0000 C   0  0  0  0  0  0  0  0  0  0  0  0
    9.2787  -11.1319    0.0000 C   0  0  0  0  0  0  0  0  0  0  0  0
    9.2787  -10.3069    0.0000 C   0  0  0  0  0  0  0  0  0  0  0  0
    9.9931   -9.8944    0.0000 C   0  0  0  0  0  0  0  0  0  0  0  0
    9.9931   -9.0694    0.0000 C   0  0  0  0  0  0  0  0  0  0  0  0
    9.2787   -8.6569    0.0000 C   0  0  0  0  0  0  0  0  0  0  0  0
   10.7076   -8.6569    0.0000 C   0  0  0  0  0  0  0  0  0  0  0  0
   11.4221   -9.0694    0.0000 C   0  0  0  0  0  0  0  0  0  0  0  0
   11.4221   -9.8944    0.0000 C   0  0  0  0  0  0  0  0  0  0  0  0
   10.7076  -10.3069    0.0000 C   0  0  0  0  0  0  0  0  0  0  0  0
   11.0949  -11.0353    0.0000 C   0  0  0  0  0  0  0  0  0  0  0  0
   10.3203  -11.0353    0.0000 C   0  0  0  0  0  0  0  0  0  0  0  0
    2.9589  -10.3069    0.0000 H   0  0  0  0  0  0  0  0  0  0  0  0
    2.1339   -9.4819    0.0000 H   0  0  0  0  0  0  0  0  0  0  0  0
    1.3089  -10.3069    0.0000 H   0  0  0  0  0  0  0  0  0  0  0  0
    1.4195  -12.3694    0.0000 H   0  0  0  0  0  0  0  0  0  0  0  0
    0.7050  -10.3069    0.0000 H   0  0  0  0  0  0  0  0  0  0  0  0
   -0.0095  -12.3694    0.0000 H   0  0  0  0  0  0  0  0  0  0  0  0
    0.1011  -10.3069    0.0000 H   0  0  0  0  0  0  0  0  0  0  0  0
   -0.7239   -9.4819    0.0000 H   0  0  0  0  0  0  0  0  0  0  0  0
   -1.5489  -10.3069    0.0000 H   0  0  0  0  0  0  0  0  0  0  0  0
   -2.1529  -11.1319    0.0000 H   0  0  0  0  0  0  0  0  0  0  0  0
   -0.7239  -12.7819    0.0000 H   0  0  0  0  0  0  0  0  0  0  0  0
   -1.8509  -14.7338    0.0000 H   0  0  0  0  0  0  0  0  0  0  0  0
   -0.7239  -14.4319    0.0000 H   0  0  0  0  0  0  0  0  0  0  0  0
   -1.0259  -13.3049    0.0000 H   0  0  0  0  0  0  0  0  0  0  0  0
   -3.2376  -14.7566    0.0000 H   0  0  0  0  0  0  0  0  0  0  0  0
   -2.4971  -14.7566    0.0000 H   0  0  0  0  0  0  0  0  0  0  0  0
   -4.4054  -13.6548    0.0000 H   0  0  0  0  0  0  0  0  0  0  0  0
   -4.0352  -14.2962    0.0000 H   0  0  0  0  0  0  0  0  0  0  0  0
   -4.0352  -12.0926    0.0000 H   0  0  0  0  0  0  0  0  0  0  0  0
   -4.4054  -12.7339    0.0000 H   0  0  0  0  0  0  0  0  0  0  0  0
   -2.7526  -10.9863    0.0000 H   0  0  0  0  0  0  0  0  0  0  0  0
   -3.4686  -10.8442    0.0000 H   0  0  0  0  0  0  0  0  0  0  0  0
   -4.0171  -11.3258    0.0000 H   0  0  0  0  0  0  0  0  0  0  0  0
   -2.2552  -12.4347    0.0000 H   0  0  0  0  0  0  0  0  0  0  0  0
   -1.7682  -12.0580    0.0000 H   0  0  0  0  0  0  0  0  0  0  0  0
   -1.6777  -11.4490    0.0000 H   0  0  0  0  0  0  0  0  0  0  0  0
    2.8484  -12.3694    0.0000 H   0  0  0  0  0  0  0  0  0  0  0  0
    3.5629  -10.3069    0.0000 H   0  0  0  0  0  0  0  0  0  0  0  0
    4.2774  -12.3694    0.0000 H   0  0  0  0  0  0  0  0  0  0  0  0
    4.9918  -10.3069    0.0000 H   0  0  0  0  0  0  0  0  0  0  0  0
    4.8813  -12.3694    0.0000 H   0  0  0  0  0  0  0  0  0  0  0  0
    5.7063  -13.1944    0.0000 H   0  0  0  0  0  0  0  0  0  0  0  0
    6.5313  -12.3694    0.0000 H   0  0  0  0  0  0  0  0  0  0  0  0
    6.4208  -10.3069    0.0000 H   0  0  0  0  0  0  0  0  0  0  0  0
    7.1352  -12.3694    0.0000 H   0  0  0  0  0  0  0  0  0  0  0  0
    7.8497  -10.3069    0.0000 H   0  0  0  0  0  0  0  0  0  0  0  0
    7.7392  -12.3694    0.0000 H   0  0  0  0  0  0  0  0  0  0  0  0
    8.5642  -13.1944    0.0000 H   0  0  0  0  0  0  0  0  0  0  0  0
    9.3892  -12.3694    0.0000 H   0  0  0  0  0  0  0  0  0  0  0  0
    9.9931  -11.5444    0.0000 H   0  0  0  0  0  0  0  0  0  0  0  0
    8.5642   -9.8944    0.0000 H   0  0  0  0  0  0  0  0  0  0  0  0
    9.6912   -7.9424    0.0000 H   0  0  0  0  0  0  0  0  0  0  0  0
    8.5642   -8.2444    0.0000 H   0  0  0  0  0  0  0  0  0  0  0  0
    8.8662   -9.3713    0.0000 H   0  0  0  0  0  0  0  0  0  0  0  0
   11.0779   -7.9196    0.0000 H   0  0  0  0  0  0  0  0  0  0  0  0
   10.3373   -7.9196    0.0000 H   0  0  0  0  0  0  0  0  0  0  0  0
   12.2457   -9.0214    0.0000 H   0  0  0  0  0  0  0  0  0  0  0  0
   11.8754   -8.3801    0.0000 H   0  0  0  0  0  0  0  0  0  0  0  0
   11.8754  -10.5837    0.0000 H   0  0  0  0  0  0  0  0  0  0  0  0
   12.2457   -9.9423    0.0000 H   0  0  0  0  0  0  0  0  0  0  0  0
   10.5928  -11.6899    0.0000 H   0  0  0  0  0  0  0  0  0  0  0  0
   11.3088  -11.8321    0.0000 H   0  0  0  0  0  0  0  0  0  0  0  0
   11.8573  -11.3505    0.0000 H   0  0  0  0  0  0  0  0  0  0  0  0
   10.0954  -10.2415    0.0000 H   0  0  0  0  0  0  0  0  0  0  0  0
    9.6084  -10.6183    0.0000 H   0  0  0  0  0  0  0  0  0  0  0  0
    9.5179  -11.2273    0.0000 H   0  0  0  0  0  0  0  0  0  0  0  0
  1  2  1  0  0  0  0
  3  2  1  4  0  0  0
  3  4  2  0  0  0  0
  5  4  1  4  0  0  0
  5  6  2  0  0  0  0
  6  7  1  0  0  0  0
  8  6  1  4  0  0  0
  8  9  2  0  0  0  0
  9 10  1  0  0  0  0
 10 11  2  0  0  0  0
 11 12  1  0  0  0  0
 11 13  1  0  0  0  0
 13 14  1  0  0  0  0
 14 15  1  0  0  0  0
 15 16  1  0  0  0  0
 10 16  1  0  0  0  0
 16 17  1  0  0  0  0
 16 18  1  0  0  0  0
  2 19  2  0  0  0  0
 19 20  1  4  0  0  0
 20 21  2  0  0  0  0
 21 22  1  4  0  0  0
 22 23  2  0  0  0  0
 23 24  1  4  0  0  0
 25 23  1  4  0  0  0
 25 26  2  0  0  0  0
 27 26  1  4  0  0  0
 27 28  2  0  0  0  0
 28 29  1  0  0  0  0
 30 28  1  4  0  0  0
 30 31  2  0  0  0  0
 31 32  1  0  0  0  0
 32 33  2  0  0  0  0
 33 34  1  0  0  0  0
 33 35  1  0  0  0  0
 35 36  1  0  0  0  0
 36 37  1  0  0  0  0
 37 38  1  0  0  0  0
 32 38  1  0  0  0  0
 38 39  1  0  0  0  0
 38 40  1  0  0  0  0
  1 41  1  0  0  0  0
  1 42  1  0  0  0  0
  1 43  1  0  0  0  0
  3 44  1  0  0  0  0
  4 45  1  0  0  0  0
  5 46  1  0  0  0  0
  7 47  1  0  0  0  0
  7 48  1  0  0  0  0
  7 49  1  0  0  0  0
  8 50  1  0  0  0  0
  9 51  1  0  0  0  0
 12 52  1  0  0  0  0
 12 53  1  0  0  0  0
 12 54  1  0  0  0  0
 13 55  1  0  0  0  0
 13 56  1  0  0  0  0
 14 57  1  0  0  0  0
 14 58  1  0  0  0  0
 15 59  1  0  0  0  0
 15 60  1  0  0  0  0
 17 61  1  0  0  0  0
 17 62  1  0  0  0  0
 17 63  1  0  0  0  0
 18 64  1  0  0  0  0
 18 65  1  0  0  0  0
 18 66  1  0  0  0  0
 19 67  1  0  0  0  0
 20 68  1  0  0  0  0
 21 69  1  0  0  0  0
 22 70  1  0  0  0  0
 24 71  1  0  0  0  0
 24 72  1  0  0  0  0
 24 73  1  0  0  0  0
 25 74  1  0  0  0  0
 26 75  1  0  0  0  0
 27 76  1  0  0  0  0
 29 77  1  0  0  0  0
 29 78  1  0  0  0  0
 29 79  1  0  0  0  0
 30 80  1  0  0  0  0
 31 81  1  0  0  0  0
 34 82  1  0  0  0  0
 34 83  1  0  0  0  0
 34 84  1  0  0  0  0
 35 85  1  0  0  0  0
 35 86  1  0  0  0  0
 36 87  1  0  0  0  0
 36 88  1  0  0  0  0
 37 89  1  0  0  0  0
 37 90  1  0  0  0  0
 39 91  1  0  0  0  0
 39 92  1  0  0  0  0
 39 93  1  0  0  0  0
 40 94  1  0  0  0  0
 40 95  1  0  0  0  0
 40 96  1  0  0  0  0
M  END
>  <InChIKey>
InChI=1S/C40H56/c1-31(19-13-21-33(3)25-27-37-35(5)23-15-29-39(37,7)8)17-11-12-18-32(2)20-14-22-34(4)26-28-38-36(6)24-16-30-40(38,9)10/h11-14,17-22,25-28H,15-16,23-24,29-30H2,1-10H3

>  <CASRN>
7235-40-7

> <Outcome>
0

>  <Index>
2364

>  <StandardizerResult>
Clear Stereo (ID: ClearStereo)
Wedge Clean (ID: WedgeClean)
Mesomerize (ID: Mesomerize)
Tautomerize (ID: Tautomerize)
Add Explicit Hydrogens (ID: AddExplicitH)
Neutralize (ID: Neutralize)
Clean 2D (ID: Clean2D)

> <knn Distance>
3.31662487983704

> <CpId>
2364

$$$$
2608
  Mrv1532301301811342D          

 32 32  0  0  0  0            999 V2000
   -3.5724   -1.2375    0.0000 O   0  0  0  0  0  0  0  0  0  0  0  0
   -2.8579   -0.8250    0.0000 C   0  0  0  0  0  0  0  0  0  0  0  0
   -2.8579   -0.0000    0.0000 C   0  0  0  0  0  0  0  0  0  0  0  0
   -2.1434    0.4125    0.0000 O   0  0  0  0  0  0  0  0  0  0  0  0
   -2.1434    1.2375    0.0000 C   0  0  0  0  0  0  0  0  0  0  0  0
   -2.8579    1.6500    0.0000 O   0  0  0  0  0  0  0  0  0  0  0  0
   -1.4289    1.6500    0.0000 C   0  0  0  0  0  0  0  0  0  0  0  0
   -1.4289    2.4750    0.0000 C   0  0  0  0  0  0  0  0  0  0  0  0
   -0.7145    2.8875    0.0000 C   0  0  0  0  0  0  0  0  0  0  0  0
   -0.0000    2.4750    0.0000 C   0  0  0  0  0  0  0  0  0  0  0  0
   -0.0000    1.6500    0.0000 C   0  0  0  0  0  0  0  0  0  0  0  0
   -0.7145    1.2375    0.0000 C   0  0  0  0  0  0  0  0  0  0  0  0
    0.7145    2.8875    0.0000 C   0  0  0  0  0  0  0  0  0  0  0  0
    0.7145    3.7125    0.0000 O   0  0  0  0  0  0  0  0  0  0  0  0
    1.4289    2.4750    0.0000 O   0  0  0  0  0  0  0  0  0  0  0  0
    2.1434    2.8875    0.0000 C   0  0  0  0  0  0  0  0  0  0  0  0
    2.8579    2.4750    0.0000 C   0  0  0  0  0  0  0  0  0  0  0  0
    3.5724    2.8875    0.0000 O   0  0  0  0  0  0  0  0  0  0  0  0
   -4.2868   -0.8250    0.0000 H   0  0  0  0  0  0  0  0  0  0  0  0
   -2.4045   -1.5143    0.0000 H   0  0  0  0  0  0  0  0  0  0  0  0
   -2.0343   -0.8730    0.0000 H   0  0  0  0  0  0  0  0  0  0  0  0
   -3.3112    0.6893    0.0000 H   0  0  0  0  0  0  0  0  0  0  0  0
   -3.6815    0.0480    0.0000 H   0  0  0  0  0  0  0  0  0  0  0  0
   -2.1434    2.8875    0.0000 H   0  0  0  0  0  0  0  0  0  0  0  0
   -0.7145    3.7125    0.0000 H   0  0  0  0  0  0  0  0  0  0  0  0
    0.7145    1.2375    0.0000 H   0  0  0  0  0  0  0  0  0  0  0  0
   -0.7145    0.4125    0.0000 H   0  0  0  0  0  0  0  0  0  0  0  0
    2.5137    3.6247    0.0000 H   0  0  0  0  0  0  0  0  0  0  0  0
    1.7731    3.6247    0.0000 H   0  0  0  0  0  0  0  0  0  0  0  0
    2.4876    1.7378    0.0000 H   0  0  0  0  0  0  0  0  0  0  0  0
    3.2281    1.7378    0.0000 H   0  0  0  0  0  0  0  0  0  0  0  0
    4.2868    2.4750    0.0000 H   0  0  0  0  0  0  0  0  0  0  0  0
  1  2  1  0  0  0  0
  2  3  1  0  0  0  0
  3  4  1  0  0  0  0
  4  5  1  0  0  0  0
  5  6  2  0  0  0  0
  5  7  1  0  0  0  0
  7  8  4  0  0  0  0
  8  9  4  0  0  0  0
  9 10  4  0  0  0  0
 10 11  4  0  0  0  0
 11 12  4  0  0  0  0
  7 12  4  0  0  0  0
 10 13  1  0  0  0  0
 13 14  2  0  0  0  0
 13 15  1  0  0  0  0
 15 16  1  0  0  0  0
 16 17  1  0  0  0  0
 17 18  1  0  0  0  0
  1 19  1  0  0  0  0
  2 20  1  0  0  0  0
  2 21  1  0  0  0  0
  3 22  1  0  0  0  0
  3 23  1  0  0  0  0
  8 24  1  0  0  0  0
  9 25  1  0  0  0  0
 11 26  1  0  0  0  0
 12 27  1  0  0  0  0
 16 28  1  0  0  0  0
 16 29  1  0  0  0  0
 17 30  1  0  0  0  0
 17 31  1  0  0  0  0
 18 32  1  0  0  0  0
M  END
>  <InChIKey>
InChI=1S/C12H14O6/c13-5-7-17-11(15)9-1-2-10(4-3-9)12(16)18-8-6-14/h1-4,13-14H,5-8H2

>  <CASRN>
959-26-2

> <Outcome>
0

>  <Index>
2608

>  <StandardizerResult>
Dearomatize (ID: Dearomatize)
Clear Stereo (ID: ClearStereo)
Wedge Clean (ID: WedgeClean)
Mesomerize (ID: Mesomerize)
Tautomerize (ID: Tautomerize)
Aromatize (ID: Aromatize)
Add Explicit Hydrogens (ID: AddExplicitH)
Neutralize (ID: Neutralize)
Clean 2D (ID: Clean2D)

> <knn Distance>
3.31662487983704

> <CpId>
2608

$$$$
2619
  Mrv1532301301811342D          

 28 29  0  0  0  0            999 V2000
   -0.0005    0.8247    0.0000 O   0  0  0  0  0  0  0  0  0  0  0  0
   -0.0005   -0.0003    0.0000 C   0  0  0  0  0  0  0  0  0  0  0  0
   -0.7150   -0.4128    0.0000 O   0  0  0  0  0  0  0  0  0  0  0  0
    0.7139   -0.4128    0.0000 C   0  0  0  0  0  0  0  0  0  0  0  0
    0.7139   -1.2378    0.0000 C   0  0  0  0  0  0  0  0  0  0  0  0
    1.4284   -1.6503    0.0000 C   0  0  0  0  0  0  0  0  0  0  0  0
    1.4284   -2.4753    0.0000 C   0  0  0  0  0  0  0  0  0  0  0  0
    0.7139   -2.8878    0.0000 C   0  0  0  0  0  0  0  0  0  0  0  0
   -0.0005   -2.4753    0.0000 C   0  0  0  0  0  0  0  0  0  0  0  0
   -0.0005   -1.6503    0.0000 C   0  0  0  0  0  0  0  0  0  0  0  0
    0.7139   -3.7128    0.0000 C   0  0  0  0  0  0  0  0  0  0  0  0
    1.4284   -4.1253    0.0000 C   0  0  0  0  0  0  0  0  0  0  0  0
    1.4284   -4.9503    0.0000 C   0  0  0  0  0  0  0  0  0  0  0  0
    0.7139   -5.3628    0.0000 C   0  0  0  0  0  0  0  0  0  0  0  0
   -0.0005   -4.9503    0.0000 C   0  0  0  0  0  0  0  0  0  0  0  0
   -0.0005   -4.1253    0.0000 C   0  0  0  0  0  0  0  0  0  0  0  0
    0.7139    1.2372    0.0000 H   0  0  0  0  0  0  0  0  0  0  0  0
    1.5375   -0.3648    0.0000 H   0  0  0  0  0  0  0  0  0  0  0  0
    1.1673    0.2765    0.0000 H   0  0  0  0  0  0  0  0  0  0  0  0
    2.1429   -1.2378    0.0000 H   0  0  0  0  0  0  0  0  0  0  0  0
    2.1429   -2.8878    0.0000 H   0  0  0  0  0  0  0  0  0  0  0  0
   -0.7150   -2.8878    0.0000 H   0  0  0  0  0  0  0  0  0  0  0  0
   -0.7150   -1.2378    0.0000 H   0  0  0  0  0  0  0  0  0  0  0  0
    2.1429   -3.7128    0.0000 H   0  0  0  0  0  0  0  0  0  0  0  0
    2.1429   -5.3628    0.0000 H   0  0  0  0  0  0  0  0  0  0  0  0
    0.7139   -6.1878    0.0000 H   0  0  0  0  0  0  0  0  0  0  0  0
   -0.7150   -5.3628    0.0000 H   0  0  0  0  0  0  0  0  0  0  0  0
   -0.7150   -3.7128    0.0000 H   0  0  0  0  0  0  0  0  0  0  0  0
  1  2  1  0  0  0  0
  2  3  2  0  0  0  0
  2  4  1  0  0  0  0
  4  5  1  0  0  0  0
  5  6  4  0  0  0  0
  6  7  4  0  0  0  0
  7  8  4  0  0  0  0
  8  9  4  0  0  0  0
  9 10  4  0  0  0  0
  5 10  4  0  0  0  0
  8 11  1  0  0  0  0
 11 12  4  0  0  0  0
 12 13  4  0  0  0  0
 13 14  4  0  0  0  0
 14 15  4  0  0  0  0
 15 16  4  0  0  0  0
 11 16  4  0  0  0  0
  1 17  1  0  0  0  0
  4 18  1  0  0  0  0
  4 19  1  0  0  0  0
  6 20  1  0  0  0  0
  7 21  1  0  0  0  0
  9 22  1  0  0  0  0
 10 23  1  0  0  0  0
 12 24  1  0  0  0  0
 13 25  1  0  0  0  0
 14 26  1  0  0  0  0
 15 27  1  0  0  0  0
 16 28  1  0  0  0  0
M  END
>  <InChIKey>
InChI=1S/C14H12O2/c15-14(16)10-11-6-8-13(9-7-11)12-4-2-1-3-5-12/h1-9H,10H2,(H,15,16)

>  <CASRN>
5728-52-9

> <Outcome>
0

>  <Index>
2619

>  <StandardizerResult>
Dearomatize (ID: Dearomatize)
Clear Stereo (ID: ClearStereo)
Wedge Clean (ID: WedgeClean)
Mesomerize (ID: Mesomerize)
Tautomerize (ID: Tautomerize)
Aromatize (ID: Aromatize)
Add Explicit Hydrogens (ID: AddExplicitH)
Neutralize (ID: Neutralize)
Clean 2D (ID: Clean2D)

> <knn Distance>
3.31662487983704

> <CpId>
2619

$$$$
2683
  Mrv1532301301811342D          

 22 22  0  0  0  0            999 V2000
    1.0339    1.5792    0.0000 C   0  0  0  0  0  0  0  0  0  0  0  0
    0.4506    0.9959    0.0000 C   0  0  0  0  0  0  0  0  0  0  0  0
   -0.1328    1.5792    0.0000 C   0  0  0  0  0  0  0  0  0  0  0  0
    1.0339    0.4125    0.0000 C   0  0  0  0  0  0  0  0  0  0  0  0
    1.8589    0.4125    0.0000 O   0  0  0  0  0  0  0  0  0  0  0  0
    0.4506   -0.1709    0.0000 C   0  0  0  0  0  0  0  0  0  0  0  0
    1.0339   -0.7542    0.0000 C   0  0  0  0  0  0  0  0  0  0  0  0
   -0.1328   -0.7542    0.0000 C   0  0  0  0  0  0  0  0  0  0  0  0
   -0.1328    0.4125    0.0000 C   0  0  0  0  0  0  0  0  0  0  0  0
   -0.9578    0.4125    0.0000 O   0  0  0  0  0  0  0  0  0  0  0  0
    1.6173    0.9959    0.0000 H   0  0  0  0  0  0  0  0  0  0  0  0
    1.6173    2.1626    0.0000 H   0  0  0  0  0  0  0  0  0  0  0  0
    0.4506    2.1626    0.0000 H   0  0  0  0  0  0  0  0  0  0  0  0
   -0.4485    2.3414    0.0000 H   0  0  0  0  0  0  0  0  0  0  0  0
   -0.9578    1.5792    0.0000 H   0  0  0  0  0  0  0  0  0  0  0  0
   -0.4485    0.8170    0.0000 H   0  0  0  0  0  0  0  0  0  0  0  0
    0.4506   -1.3376    0.0000 H   0  0  0  0  0  0  0  0  0  0  0  0
    1.6173   -1.3376    0.0000 H   0  0  0  0  0  0  0  0  0  0  0  0
    1.6173   -0.1709    0.0000 H   0  0  0  0  0  0  0  0  0  0  0  0
   -0.4485    0.0080    0.0000 H   0  0  0  0  0  0  0  0  0  0  0  0
   -0.9578   -0.7542    0.0000 H   0  0  0  0  0  0  0  0  0  0  0  0
   -0.4485   -1.5164    0.0000 H   0  0  0  0  0  0  0  0  0  0  0  0
  1  2  1  0  0  0  0
  2  3  1  0  0  0  0
  2  4  1  0  0  0  0
  4  5  2  0  0  0  0
  4  6  1  0  0  0  0
  6  7  1  0  0  0  0
  6  8  1  0  0  0  0
  6  9  1  0  0  0  0
  2  9  1  0  0  0  0
  9 10  2  0  0  0  0
  1 11  1  0  0  0  0
  1 12  1  0  0  0  0
  1 13  1  0  0  0  0
  3 14  1  0  0  0  0
  3 15  1  0  0  0  0
  3 16  1  0  0  0  0
  7 17  1  0  0  0  0
  7 18  1  0  0  0  0
  7 19  1  0  0  0  0
  8 20  1  0  0  0  0
  8 21  1  0  0  0  0
  8 22  1  0  0  0  0
M  END
>  <InChIKey>
InChI=1S/C8H12O2/c1-7(2)5(9)8(3,4)6(7)10/h1-4H3

>  <CASRN>
933-52-8

> <Outcome>
0

>  <Index>
2683

>  <StandardizerResult>
Clear Stereo (ID: ClearStereo)
Wedge Clean (ID: WedgeClean)
Mesomerize (ID: Mesomerize)
Tautomerize (ID: Tautomerize)
Add Explicit Hydrogens (ID: AddExplicitH)
Neutralize (ID: Neutralize)
Clean 2D (ID: Clean2D)

> <knn Distance>
3.31662487983704

> <CpId>
2683

$$$$
2991
  Mrv1532301301811342D          

 36 36  0  0  0  0            999 V2000
    0.0594    3.3132    0.0000 C   0  0  0  0  0  0  0  0  0  0  0  0
    0.0594    2.4882    0.0000 C   0  0  0  0  0  0  0  0  0  0  0  0
    0.7738    2.0757    0.0000 C   0  0  0  0  0  0  0  0  0  0  0  0
    1.4883    2.4882    0.0000 C   0  0  0  0  0  0  0  0  0  0  0  0
    2.2028    2.0757    0.0000 O   0  0  0  0  0  0  0  0  0  0  0  0
    1.4883    3.3132    0.0000 O   0  0  0  0  0  0  0  0  0  0  0  0
    0.7738    1.2507    0.0000 C   0  0  0  0  0  0  0  0  0  0  0  0
    1.4883    0.8382    0.0000 C   0  0  0  0  0  0  0  0  0  0  0  0
    1.4883    0.0132    0.0000 C   0  0  0  0  0  0  0  0  0  0  0  0
    0.7738   -0.3993    0.0000 C   0  0  0  0  0  0  0  0  0  0  0  0
    0.7738   -1.2243    0.0000 C   0  0  0  0  0  0  0  0  0  0  0  0
    0.0594   -1.6368    0.0000 C   0  0  0  0  0  0  0  0  0  0  0  0
    0.0594   -2.4618    0.0000 C   0  0  0  0  0  0  0  0  0  0  0  0
   -0.6551   -1.2243    0.0000 C   0  0  0  0  0  0  0  0  0  0  0  0
    0.0594    0.0132    0.0000 C   0  0  0  0  0  0  0  0  0  0  0  0
    0.0594    0.8382    0.0000 C   0  0  0  0  0  0  0  0  0  0  0  0
    0.8844    3.3132    0.0000 H   0  0  0  0  0  0  0  0  0  0  0  0
    0.0594    4.1382    0.0000 H   0  0  0  0  0  0  0  0  0  0  0  0
   -0.7656    3.3132    0.0000 H   0  0  0  0  0  0  0  0  0  0  0  0
   -0.7642    2.4402    0.0000 H   0  0  0  0  0  0  0  0  0  0  0  0
   -0.3940    1.7989    0.0000 H   0  0  0  0  0  0  0  0  0  0  0  0
    0.7738    2.9007    0.0000 H   0  0  0  0  0  0  0  0  0  0  0  0
    2.2028    1.2507    0.0000 H   0  0  0  0  0  0  0  0  0  0  0  0
    1.4883    1.6632    0.0000 H   0  0  0  0  0  0  0  0  0  0  0  0
    2.2028   -0.3993    0.0000 H   0  0  0  0  0  0  0  0  0  0  0  0
    1.2272   -1.9136    0.0000 H   0  0  0  0  0  0  0  0  0  0  0  0
    1.5974   -1.2723    0.0000 H   0  0  0  0  0  0  0  0  0  0  0  0
    0.7738   -2.0493    0.0000 H   0  0  0  0  0  0  0  0  0  0  0  0
   -0.7375   -2.2483    0.0000 H   0  0  0  0  0  0  0  0  0  0  0  0
   -0.3531   -3.1763    0.0000 H   0  0  0  0  0  0  0  0  0  0  0  0
    0.6427   -3.0451    0.0000 H   0  0  0  0  0  0  0  0  0  0  0  0
   -0.2426   -0.5098    0.0000 H   0  0  0  0  0  0  0  0  0  0  0  0
   -1.3696   -0.8118    0.0000 H   0  0  0  0  0  0  0  0  0  0  0  0
   -1.0676   -1.9388    0.0000 H   0  0  0  0  0  0  0  0  0  0  0  0
   -0.7375    0.2267    0.0000 H   0  0  0  0  0  0  0  0  0  0  0  0
   -0.6551    1.2507    0.0000 H   0  0  0  0  0  0  0  0  0  0  0  0
  1  2  1  0  0  0  0
  2  3  1  0  0  0  0
  3  4  1  0  0  0  0
  4  5  1  0  0  0  0
  4  6  2  0  0  0  0
  3  7  1  0  0  0  0
  7  8  4  0  0  0  0
  8  9  4  0  0  0  0
  9 10  4  0  0  0  0
 10 11  1  0  0  0  0
 11 12  1  0  0  0  0
 12 13  1  0  0  0  0
 12 14  1  0  0  0  0
 10 15  4  0  0  0  0
 15 16  4  0  0  0  0
  7 16  4  0  0  0  0
  1 17  1  0  0  0  0
  1 18  1  0  0  0  0
  1 19  1  0  0  0  0
  2 20  1  0  0  0  0
  2 21  1  0  0  0  0
  3 22  1  0  0  0  0
  5 23  1  0  0  0  0
  8 24  1  0  0  0  0
  9 25  1  0  0  0  0
 11 26  1  0  0  0  0
 11 27  1  0  0  0  0
 12 28  1  0  0  0  0
 13 29  1  0  0  0  0
 13 30  1  0  0  0  0
 13 31  1  0  0  0  0
 14 32  1  0  0  0  0
 14 33  1  0  0  0  0
 14 34  1  0  0  0  0
 15 35  1  0  0  0  0
 16 36  1  0  0  0  0
M  END
>  <InChIKey>
InChI=1S/C14H20O2/c1-4-13(14(15)16)12-7-5-11(6-8-12)9-10(2)3/h5-8,10,13H,4,9H2,1-3H3,(H,15,16)

>  <CASRN>
55837-18-8

> <Outcome>
0

>  <Index>
2991

>  <StandardizerResult>
Dearomatize (ID: Dearomatize)
Clear Stereo (ID: ClearStereo)
Wedge Clean (ID: WedgeClean)
Mesomerize (ID: Mesomerize)
Tautomerize (ID: Tautomerize)
Aromatize (ID: Aromatize)
Add Explicit Hydrogens (ID: AddExplicitH)
Neutralize (ID: Neutralize)
Clean 2D (ID: Clean2D)

> <knn Distance>
3.31662487983704

> <CpId>
2991

$$$$
3016
  Mrv1532301301811342D          

 67 66  0  0  0  0            999 V2000
   11.6650    7.5532    0.0000 C   0  0  0  0  0  0  0  0  0  0  0  0
   12.3795    7.1407    0.0000 C   0  0  0  0  0  0  0  0  0  0  0  0
   13.0940    7.5532    0.0000 C   0  0  0  0  0  0  0  0  0  0  0  0
   13.8084    7.1407    0.0000 C   0  0  0  0  0  0  0  0  0  0  0  0
   14.5229    7.5532    0.0000 C   0  0  0  0  0  0  0  0  0  0  0  0
   15.2374    7.1407    0.0000 C   0  0  0  0  0  0  0  0  0  0  0  0
   15.9519    7.5532    0.0000 C   0  0  0  0  0  0  0  0  0  0  0  0
   16.6663    7.1407    0.0000 C   0  0  0  0  0  0  0  0  0  0  0  0
   17.3808    7.5532    0.0000 C   0  0  0  0  0  0  0  0  0  0  0  0
   18.0953    7.1407    0.0000 C   0  0  0  0  0  0  0  0  0  0  0  0
   18.8097    7.5532    0.0000 C   0  0  0  0  0  0  0  0  0  0  0  0
   19.5242    7.1407    0.0000 C   0  0  0  0  0  0  0  0  0  0  0  0
   20.2387    7.5532    0.0000 C   0  0  0  0  0  0  0  0  0  0  0  0
   20.9532    7.1407    0.0000 C   0  0  0  0  0  0  0  0  0  0  0  0
   21.6676    7.5532    0.0000 C   0  0  0  0  0  0  0  0  0  0  0  0
   22.3821    7.1407    0.0000 C   0  0  0  0  0  0  0  0  0  0  0  0
   23.0966    7.5532    0.0000 C   0  0  0  0  0  0  0  0  0  0  0  0
   23.8110    7.1407    0.0000 C   0  0  0  0  0  0  0  0  0  0  0  0
   23.8110    6.3157    0.0000 O   0  0  0  0  0  0  0  0  0  0  0  0
   24.5255    7.5532    0.0000 O   0  0  0  0  0  0  0  0  0  0  0  0
   25.2400    7.1407    0.0000 C   0  0  0  0  0  0  0  0  0  0  0  0
   25.9545    7.5532    0.0000 C   0  0  0  0  0  0  0  0  0  0  0  0
   25.9545    8.3782    0.0000 O   0  0  0  0  0  0  0  0  0  0  0  0
   26.6689    7.1407    0.0000 C   0  0  0  0  0  0  0  0  0  0  0  0
   27.3834    7.5532    0.0000 O   0  0  0  0  0  0  0  0  0  0  0  0
   12.0775    8.2677    0.0000 H   0  0  0  0  0  0  0  0  0  0  0  0
   10.9506    7.9657    0.0000 H   0  0  0  0  0  0  0  0  0  0  0  0
   11.2525    6.8387    0.0000 H   0  0  0  0  0  0  0  0  0  0  0  0
   12.0092    6.4035    0.0000 H   0  0  0  0  0  0  0  0  0  0  0  0
   12.7498    6.4035    0.0000 H   0  0  0  0  0  0  0  0  0  0  0  0
   13.4642    8.2905    0.0000 H   0  0  0  0  0  0  0  0  0  0  0  0
   12.7237    8.2905    0.0000 H   0  0  0  0  0  0  0  0  0  0  0  0
   13.4382    6.4035    0.0000 H   0  0  0  0  0  0  0  0  0  0  0  0
   14.1787    6.4035    0.0000 H   0  0  0  0  0  0  0  0  0  0  0  0
   14.8932    8.2905    0.0000 H   0  0  0  0  0  0  0  0  0  0  0  0
   14.1527    8.2905    0.0000 H   0  0  0  0  0  0  0  0  0  0  0  0
   14.8671    6.4035    0.0000 H   0  0  0  0  0  0  0  0  0  0  0  0
   15.6076    6.4035    0.0000 H   0  0  0  0  0  0  0  0  0  0  0  0
   16.3221    8.2905    0.0000 H   0  0  0  0  0  0  0  0  0  0  0  0
   15.5816    8.2905    0.0000 H   0  0  0  0  0  0  0  0  0  0  0  0
   16.2961    6.4035    0.0000 H   0  0  0  0  0  0  0  0  0  0  0  0
   17.0366    6.4035    0.0000 H   0  0  0  0  0  0  0  0  0  0  0  0
   17.7511    8.2905    0.0000 H   0  0  0  0  0  0  0  0  0  0  0  0
   17.0105    8.2905    0.0000 H   0  0  0  0  0  0  0  0  0  0  0  0
   17.7250    6.4035    0.0000 H   0  0  0  0  0  0  0  0  0  0  0  0
   18.4655    6.4035    0.0000 H   0  0  0  0  0  0  0  0  0  0  0  0
   19.1800    8.2905    0.0000 H   0  0  0  0  0  0  0  0  0  0  0  0
   18.4395    8.2905    0.0000 H   0  0  0  0  0  0  0  0  0  0  0  0
   19.1540    6.4035    0.0000 H   0  0  0  0  0  0  0  0  0  0  0  0
   19.8945    6.4035    0.0000 H   0  0  0  0  0  0  0  0  0  0  0  0
   20.6089    8.2905    0.0000 H   0  0  0  0  0  0  0  0  0  0  0  0
   19.8684    8.2905    0.0000 H   0  0  0  0  0  0  0  0  0  0  0  0
   20.5829    6.4035    0.0000 H   0  0  0  0  0  0  0  0  0  0  0  0
   21.3234    6.4035    0.0000 H   0  0  0  0  0  0  0  0  0  0  0  0
   22.0379    8.2905    0.0000 H   0  0  0  0  0  0  0  0  0  0  0  0
   21.2974    8.2905    0.0000 H   0  0  0  0  0  0  0  0  0  0  0  0
   22.0118    6.4035    0.0000 H   0  0  0  0  0  0  0  0  0  0  0  0
   22.7524    6.4035    0.0000 H   0  0  0  0  0  0  0  0  0  0  0  0
   23.4668    8.2905    0.0000 H   0  0  0  0  0  0  0  0  0  0  0  0
   22.7263    8.2905    0.0000 H   0  0  0  0  0  0  0  0  0  0  0  0
   24.8697    6.4035    0.0000 H   0  0  0  0  0  0  0  0  0  0  0  0
   25.6102    6.4035    0.0000 H   0  0  0  0  0  0  0  0  0  0  0  0
   25.2400    7.9657    0.0000 H   0  0  0  0  0  0  0  0  0  0  0  0
   26.3670    9.0927    0.0000 H   0  0  0  0  0  0  0  0  0  0  0  0
   26.2987    6.4035    0.0000 H   0  0  0  0  0  0  0  0  0  0  0  0
   27.0392    6.4035    0.0000 H   0  0  0  0  0  0  0  0  0  0  0  0
   28.0979    7.1407    0.0000 H   0  0  0  0  0  0  0  0  0  0  0  0
  1  2  1  0  0  0  0
  2  3  1  0  0  0  0
  3  4  1  0  0  0  0
  4  5  1  0  0  0  0
  5  6  1  0  0  0  0
  6  7  1  0  0  0  0
  7  8  1  0  0  0  0
  8  9  1  0  0  0  0
  9 10  1  0  0  0  0
 10 11  1  0  0  0  0
 11 12  1  0  0  0  0
 12 13  1  0  0  0  0
 13 14  1  0  0  0  0
 14 15  1  0  0  0  0
 15 16  1  0  0  0  0
 16 17  1  0  0  0  0
 17 18  1  0  0  0  0
 18 19  2  0  0  0  0
 18 20  1  0  0  0  0
 20 21  1  0  0  0  0
 21 22  1  0  0  0  0
 22 23  1  0  0  0  0
 22 24  1  0  0  0  0
 24 25  1  0  0  0  0
  1 26  1  0  0  0  0
  1 27  1  0  0  0  0
  1 28  1  0  0  0  0
  2 29  1  0  0  0  0
  2 30  1  0  0  0  0
  3 31  1  0  0  0  0
  3 32  1  0  0  0  0
  4 33  1  0  0  0  0
  4 34  1  0  0  0  0
  5 35  1  0  0  0  0
  5 36  1  0  0  0  0
  6 37  1  0  0  0  0
  6 38  1  0  0  0  0
  7 39  1  0  0  0  0
  7 40  1  0  0  0  0
  8 41  1  0  0  0  0
  8 42  1  0  0  0  0
  9 43  1  0  0  0  0
  9 44  1  0  0  0  0
 10 45  1  0  0  0  0
 10 46  1  0  0  0  0
 11 47  1  0  0  0  0
 11 48  1  0  0  0  0
 12 49  1  0  0  0  0
 12 50  1  0  0  0  0
 13 51  1  0  0  0  0
 13 52  1  0  0  0  0
 14 53  1  0  0  0  0
 14 54  1  0  0  0  0
 15 55  1  0  0  0  0
 15 56  1  0  0  0  0
 16 57  1  0  0  0  0
 16 58  1  0  0  0  0
 17 59  1  0  0  0  0
 17 60  1  0  0  0  0
 21 61  1  0  0  0  0
 21 62  1  0  0  0  0
 22 63  1  0  0  0  0
 23 64  1  0  0  0  0
 24 65  1  0  0  0  0
 24 66  1  0  0  0  0
 25 67  1  0  0  0  0
M  END
>  <InChIKey>
InChI=1S/C21H42O4/c1-2-3-4-5-6-7-8-9-10-11-12-13-14-15-16-17-21(24)25-19-20(23)18-22/h20,22-23H,2-19H2,1H3

>  <CASRN>
31566-31-1

> <Outcome>
0

>  <Index>
3016

>  <StandardizerResult>
Clear Stereo (ID: ClearStereo)
Wedge Clean (ID: WedgeClean)
Mesomerize (ID: Mesomerize)
Tautomerize (ID: Tautomerize)
Add Explicit Hydrogens (ID: AddExplicitH)
Neutralize (ID: Neutralize)
Clean 2D (ID: Clean2D)

> <knn Distance>
3.31662487983704

> <CpId>
3016

$$$$
3209
  Mrv1532301301811342D          

 41 42  0  0  0  0            999 V2000
   -0.2698   -1.8838    0.0000 C   0  0  0  0  0  0  0  0  0  0  0  0
   -0.2698   -2.7088    0.0000 C   0  0  0  0  0  0  0  0  0  0  0  0
    0.4447   -3.1213    0.0000 C   0  0  0  0  0  0  0  0  0  0  0  0
    0.4447   -3.9463    0.0000 C   0  0  0  0  0  0  0  0  0  0  0  0
   -0.2698   -4.3588    0.0000 C   0  0  0  0  0  0  0  0  0  0  0  0
   -0.9842   -3.9463    0.0000 C   0  0  0  0  0  0  0  0  0  0  0  0
   -1.2664   -4.7216    0.0000 C   0  0  0  0  0  0  0  0  0  0  0  0
   -1.7967   -3.8031    0.0000 C   0  0  0  0  0  0  0  0  0  0  0  0
   -0.9842   -3.1213    0.0000 C   0  0  0  0  0  0  0  0  0  0  0  0
    1.1592   -4.3588    0.0000 O   0  0  0  0  0  0  0  0  0  0  0  0
    1.8737   -3.9463    0.0000 C   0  0  0  0  0  0  0  0  0  0  0  0
    1.8737   -3.1213    0.0000 O   0  0  0  0  0  0  0  0  0  0  0  0
    2.5881   -4.3588    0.0000 C   0  0  0  0  0  0  0  0  0  0  0  0
    3.3026   -3.9463    0.0000 C   0  0  0  0  0  0  0  0  0  0  0  0
    4.0171   -4.3588    0.0000 C   0  0  0  0  0  0  0  0  0  0  0  0
    4.0171   -5.1838    0.0000 C   0  0  0  0  0  0  0  0  0  0  0  0
    3.3026   -5.5963    0.0000 C   0  0  0  0  0  0  0  0  0  0  0  0
    2.5881   -5.1838    0.0000 C   0  0  0  0  0  0  0  0  0  0  0  0
    1.8737   -5.5963    0.0000 O   0  0  0  0  0  0  0  0  0  0  0  0
    0.5552   -1.8838    0.0000 H   0  0  0  0  0  0  0  0  0  0  0  0
   -0.2698   -1.0588    0.0000 H   0  0  0  0  0  0  0  0  0  0  0  0
   -1.0948   -1.8838    0.0000 H   0  0  0  0  0  0  0  0  0  0  0  0
   -0.9842   -2.2963    0.0000 H   0  0  0  0  0  0  0  0  0  0  0  0
    1.2683   -3.0734    0.0000 H   0  0  0  0  0  0  0  0  0  0  0  0
    0.8981   -2.4321    0.0000 H   0  0  0  0  0  0  0  0  0  0  0  0
    0.4447   -4.7713    0.0000 H   0  0  0  0  0  0  0  0  0  0  0  0
   -0.9017   -4.8891    0.0000 H   0  0  0  0  0  0  0  0  0  0  0  0
   -0.4130   -5.1713    0.0000 H   0  0  0  0  0  0  0  0  0  0  0  0
   -1.8554   -4.1439    0.0000 H   0  0  0  0  0  0  0  0  0  0  0  0
   -2.0360   -5.0187    0.0000 H   0  0  0  0  0  0  0  0  0  0  0  0
   -1.3145   -5.5452    0.0000 H   0  0  0  0  0  0  0  0  0  0  0  0
   -1.3541   -3.1068    0.0000 H   0  0  0  0  0  0  0  0  0  0  0  0
   -2.2713   -3.1282    0.0000 H   0  0  0  0  0  0  0  0  0  0  0  0
   -2.6016   -3.9841    0.0000 H   0  0  0  0  0  0  0  0  0  0  0  0
   -0.2698   -3.5338    0.0000 H   0  0  0  0  0  0  0  0  0  0  0  0
   -1.5560   -2.5266    0.0000 H   0  0  0  0  0  0  0  0  0  0  0  0
    3.3026   -3.1213    0.0000 H   0  0  0  0  0  0  0  0  0  0  0  0
    4.7315   -3.9463    0.0000 H   0  0  0  0  0  0  0  0  0  0  0  0
    4.7315   -5.5963    0.0000 H   0  0  0  0  0  0  0  0  0  0  0  0
    3.3026   -6.4213    0.0000 H   0  0  0  0  0  0  0  0  0  0  0  0
    1.1592   -5.1838    0.0000 H   0  0  0  0  0  0  0  0  0  0  0  0
  1  2  1  0  0  0  0
  2  3  1  0  0  0  0
  3  4  1  0  0  0  0
  4  5  1  0  0  0  0
  5  6  1  0  0  0  0
  6  7  1  0  0  0  0
  6  8  1  0  0  0  0
  6  9  1  0  0  0  0
  2  9  1  0  0  0  0
  4 10  1  0  0  0  0
 10 11  1  0  0  0  0
 11 12  2  0  0  0  0
 11 13  1  0  0  0  0
 13 14  4  0  0  0  0
 14 15  4  0  0  0  0
 15 16  4  0  0  0  0
 16 17  4  0  0  0  0
 17 18  4  0  0  0  0
 13 18  4  0  0  0  0
 18 19  1  0  0  0  0
  1 20  1  0  0  0  0
  1 21  1  0  0  0  0
  1 22  1  0  0  0  0
  2 23  1  0  0  0  0
  3 24  1  0  0  0  0
  3 25  1  0  0  0  0
  4 26  1  0  0  0  0
  5 27  1  0  0  0  0
  5 28  1  0  0  0  0
  7 29  1  0  0  0  0
  7 30  1  0  0  0  0
  7 31  1  0  0  0  0
  8 32  1  0  0  0  0
  8 33  1  0  0  0  0
  8 34  1  0  0  0  0
  9 35  1  0  0  0  0
  9 36  1  0  0  0  0
 14 37  1  0  0  0  0
 15 38  1  0  0  0  0
 16 39  1  0  0  0  0
 17 40  1  0  0  0  0
 19 41  1  0  0  0  0
M  END
>  <InChIKey>
InChI=1S/C16H22O3/c1-11-8-12(10-16(2,3)9-11)19-15(18)13-6-4-5-7-14(13)17/h4-7,11-12,17H,8-10H2,1-3H3

>  <CASRN>
118-56-9

> <Outcome>
0

>  <Index>
3209

>  <StandardizerResult>
Dearomatize (ID: Dearomatize)
Clear Stereo (ID: ClearStereo)
Wedge Clean (ID: WedgeClean)
Mesomerize (ID: Mesomerize)
Tautomerize (ID: Tautomerize)
Aromatize (ID: Aromatize)
Add Explicit Hydrogens (ID: AddExplicitH)
Neutralize (ID: Neutralize)
Clean 2D (ID: Clean2D)

> <knn Distance>
3.31662487983704

> <CpId>
3209

$$$$
3284
  Mrv1532301301811342D          

 25 27  0  0  0  0            999 V2000
    2.1434    2.0625    0.0000 N   0  0  0  0  0  0  0  0  0  0  0  0
    2.1434    1.2375    0.0000 C   0  0  0  0  0  0  0  0  0  0  0  0
    2.8579    0.8250    0.0000 C   0  0  0  0  0  0  0  0  0  0  0  0
    3.5724    1.2375    0.0000 C   0  0  0  0  0  0  0  0  0  0  0  0
    4.2868    0.8250    0.0000 C   0  0  0  0  0  0  0  0  0  0  0  0
    4.2868   -0.0000    0.0000 C   0  0  0  0  0  0  0  0  0  0  0  0
    3.5724   -0.4125    0.0000 C   0  0  0  0  0  0  0  0  0  0  0  0
    2.8579    0.0000    0.0000 C   0  0  0  0  0  0  0  0  0  0  0  0
    2.1434   -0.4125    0.0000 N   0  0  0  0  0  0  0  0  0  0  0  0
    1.4290    0.0000    0.0000 C   0  0  0  0  0  0  0  0  0  0  0  0
    0.7145   -0.4125    0.0000 C   0  0  0  0  0  0  0  0  0  0  0  0
    0.0000    0.0000    0.0000 C   0  0  0  0  0  0  0  0  0  0  0  0
    0.0000    0.8250    0.0000 C   0  0  0  0  0  0  0  0  0  0  0  0
    0.7145    1.2375    0.0000 C   0  0  0  0  0  0  0  0  0  0  0  0
    1.4290    0.8250    0.0000 C   0  0  0  0  0  0  0  0  0  0  0  0
    2.8579    2.4750    0.0000 H   0  0  0  0  0  0  0  0  0  0  0  0
    1.4290    2.4750    0.0000 H   0  0  0  0  0  0  0  0  0  0  0  0
    3.5724    2.0625    0.0000 H   0  0  0  0  0  0  0  0  0  0  0  0
    5.0013    1.2375    0.0000 H   0  0  0  0  0  0  0  0  0  0  0  0
    5.0013   -0.4125    0.0000 H   0  0  0  0  0  0  0  0  0  0  0  0
    3.5724   -1.2375    0.0000 H   0  0  0  0  0  0  0  0  0  0  0  0
    0.7145   -1.2375    0.0000 H   0  0  0  0  0  0  0  0  0  0  0  0
   -0.7145   -0.4125    0.0000 H   0  0  0  0  0  0  0  0  0  0  0  0
   -0.7145    1.2375    0.0000 H   0  0  0  0  0  0  0  0  0  0  0  0
    0.7145    2.0625    0.0000 H   0  0  0  0  0  0  0  0  0  0  0  0
  1  2  1  0  0  0  0
  2  3  4  0  0  0  0
  3  4  4  0  0  0  0
  4  5  4  0  0  0  0
  5  6  4  0  0  0  0
  6  7  4  0  0  0  0
  7  8  4  0  0  0  0
  3  8  4  0  0  0  0
  8  9  4  0  0  0  0
  9 10  4  0  0  0  0
 10 11  4  0  0  0  0
 11 12  4  0  0  0  0
 12 13  4  0  0  0  0
 13 14  4  0  0  0  0
 14 15  4  0  0  0  0
  2 15  4  0  0  0  0
 10 15  4  0  0  0  0
  1 16  1  0  0  0  0
  1 17  1  0  0  0  0
  4 18  1  0  0  0  0
  5 19  1  0  0  0  0
  6 20  1  0  0  0  0
  7 21  1  0  0  0  0
 11 22  1  0  0  0  0
 12 23  1  0  0  0  0
 13 24  1  0  0  0  0
 14 25  1  0  0  0  0
M  END
>  <InChIKey>
InChI=1S/C13H10N2/c14-13-9-5-1-3-7-11(9)15-12-8-4-2-6-10(12)13/h1-8H,(H2,14,15)

>  <CASRN>
90-45-9

> <Outcome>
0

>  <Index>
3284

>  <StandardizerResult>
Dearomatize (ID: Dearomatize)
Clear Stereo (ID: ClearStereo)
Wedge Clean (ID: WedgeClean)
Mesomerize (ID: Mesomerize)
Tautomerize (ID: Tautomerize)
Aromatize (ID: Aromatize)
Add Explicit Hydrogens (ID: AddExplicitH)
Neutralize (ID: Neutralize)
Clean 2D (ID: Clean2D)

> <knn Distance>
3.31662487983704

> <CpId>
3284

$$$$
3370
  Mrv1532301301811342D          

 38 40  0  0  0  0            999 V2000
    4.9906   -1.2540    0.0000 O   0  0  0  0  0  0  0  0  0  0  0  0
    5.7050   -1.6665    0.0000 N   0  0  0  0  0  0  0  0  0  0  0  0
    6.4195   -1.2540    0.0000 O   0  0  0  0  0  0  0  0  0  0  0  0
    5.7050   -2.4915    0.0000 C   0  0  0  0  0  0  0  0  0  0  0  0
    6.4195   -2.9040    0.0000 C   0  0  0  0  0  0  0  0  0  0  0  0
    6.4195   -3.7290    0.0000 C   0  0  0  0  0  0  0  0  0  0  0  0
    5.7050   -4.1415    0.0000 C   0  0  0  0  0  0  0  0  0  0  0  0
    4.9906   -3.7290    0.0000 C   0  0  0  0  0  0  0  0  0  0  0  0
    4.9906   -2.9040    0.0000 C   0  0  0  0  0  0  0  0  0  0  0  0
    5.7050   -4.9665    0.0000 N   0  0  0  0  0  0  0  0  0  0  0  0
    6.4195   -5.3790    0.0000 N   0  0  0  0  0  0  0  0  0  0  0  0
    6.4195   -6.2040    0.0000 C   0  0  0  0  0  0  0  0  0  0  0  0
    7.1340   -6.6165    0.0000 C   0  0  0  0  0  0  0  0  0  0  0  0
    7.1340   -7.4415    0.0000 C   0  0  0  0  0  0  0  0  0  0  0  0
    6.4195   -7.8540    0.0000 C   0  0  0  0  0  0  0  0  0  0  0  0
    6.4195   -8.6790    0.0000 N   0  0  0  0  0  0  0  0  0  0  0  0
    5.7050   -9.0915    0.0000 C   0  0  0  0  0  0  0  0  0  0  0  0
    5.7050   -9.9165    0.0000 C   0  0  0  0  0  0  0  0  0  0  0  0
    4.9906  -10.3290    0.0000 C   0  0  0  0  0  0  0  0  0  0  0  0
    4.2761   -9.9165    0.0000 C   0  0  0  0  0  0  0  0  0  0  0  0
    4.2761   -9.0915    0.0000 C   0  0  0  0  0  0  0  0  0  0  0  0
    4.9906   -8.6790    0.0000 C   0  0  0  0  0  0  0  0  0  0  0  0
    5.7050   -7.4415    0.0000 C   0  0  0  0  0  0  0  0  0  0  0  0
    5.7050   -6.6165    0.0000 C   0  0  0  0  0  0  0  0  0  0  0  0
    7.1340   -2.4915    0.0000 H   0  0  0  0  0  0  0  0  0  0  0  0
    7.1340   -4.1415    0.0000 H   0  0  0  0  0  0  0  0  0  0  0  0
    4.2761   -4.1415    0.0000 H   0  0  0  0  0  0  0  0  0  0  0  0
    4.2761   -2.4915    0.0000 H   0  0  0  0  0  0  0  0  0  0  0  0
    7.8484   -6.2040    0.0000 H   0  0  0  0  0  0  0  0  0  0  0  0
    7.8484   -7.8540    0.0000 H   0  0  0  0  0  0  0  0  0  0  0  0
    7.1340   -9.0915    0.0000 H   0  0  0  0  0  0  0  0  0  0  0  0
    6.4195  -10.3290    0.0000 H   0  0  0  0  0  0  0  0  0  0  0  0
    4.9906  -11.1540    0.0000 H   0  0  0  0  0  0  0  0  0  0  0  0
    3.5616  -10.3290    0.0000 H   0  0  0  0  0  0  0  0  0  0  0  0
    3.5616   -8.6790    0.0000 H   0  0  0  0  0  0  0  0  0  0  0  0
    4.9906   -7.8540    0.0000 H   0  0  0  0  0  0  0  0  0  0  0  0
    4.9906   -7.0290    0.0000 H   0  0  0  0  0  0  0  0  0  0  0  0
    5.2925   -5.9021    0.0000 H   0  0  0  0  0  0  0  0  0  0  0  0
  1  2  2  0  0  0  0
  2  3  2  0  0  0  0
  2  4  1  0  0  0  0
  4  5  4  0  0  0  0
  5  6  4  0  0  0  0
  6  7  4  0  0  0  0
  7  8  4  0  0  0  0
  8  9  4  0  0  0  0
  4  9  4  0  0  0  0
 10  7  1  4  0  0  0
 10 11  2  0  0  0  0
 11 12  1  0  0  0  0
 12 13  4  0  0  0  0
 13 14  4  0  0  0  0
 14 15  4  0  0  0  0
 15 16  1  0  0  0  0
 16 17  1  0  0  0  0
 17 18  4  0  0  0  0
 18 19  4  0  0  0  0
 19 20  4  0  0  0  0
 20 21  4  0  0  0  0
 21 22  4  0  0  0  0
 17 22  4  0  0  0  0
 15 23  4  0  0  0  0
 23 24  4  0  0  0  0
 12 24  4  0  0  0  0
  5 25  1  0  0  0  0
  6 26  1  0  0  0  0
  8 27  1  0  0  0  0
  9 28  1  0  0  0  0
 13 29  1  0  0  0  0
 14 30  1  0  0  0  0
 16 31  1  0  0  0  0
 18 32  1  0  0  0  0
 19 33  1  0  0  0  0
 20 34  1  0  0  0  0
 21 35  1  0  0  0  0
 22 36  1  0  0  0  0
 23 37  1  0  0  0  0
 24 38  1  0  0  0  0
M  END
>  <InChIKey>
InChI=1S/C18H14N4O2/c23-22(24)18-12-10-17(11-13-18)21-20-16-8-6-15(7-9-16)19-14-4-2-1-3-5-14/h1-13,19H

>  <CASRN>
2581-69-3

> <Outcome>
0

>  <Index>
3370

>  <StandardizerResult>
Dearomatize (ID: Dearomatize)
Clear Stereo (ID: ClearStereo)
Wedge Clean (ID: WedgeClean)
Mesomerize (ID: Mesomerize)
Tautomerize (ID: Tautomerize)
Aromatize (ID: Aromatize)
Add Explicit Hydrogens (ID: AddExplicitH)
Neutralize (ID: Neutralize)
Clean 2D (ID: Clean2D)

> <knn Distance>
3.31662487983704

> <CpId>
3370

$$$$
3471
  Mrv1532301301811342D          

 23 22  0  0  0  0            999 V2000
    2.7751    0.6951    0.0000 C   0  0  0  0  0  0  0  0  0  0  0  0
    2.0607    0.2826    0.0000 C   0  0  0  0  0  0  0  0  0  0  0  0
    1.3462    0.6951    0.0000 C   0  0  0  0  0  0  0  0  0  0  0  0
    0.6317    1.1076    0.0000 C   0  0  0  0  0  0  0  0  0  0  0  0
   -0.0828    0.6951    0.0000 O   0  0  0  0  0  0  0  0  0  0  0  0
    1.7587    1.4096    0.0000 C   0  0  0  0  0  0  0  0  0  0  0  0
    1.3462    2.1241    0.0000 O   0  0  0  0  0  0  0  0  0  0  0  0
    0.9337   -0.0193    0.0000 C   0  0  0  0  0  0  0  0  0  0  0  0
    0.1087   -0.0193    0.0000 O   0  0  0  0  0  0  0  0  0  0  0  0
    3.1876   -0.0193    0.0000 H   0  0  0  0  0  0  0  0  0  0  0  0
    3.4896    1.1076    0.0000 H   0  0  0  0  0  0  0  0  0  0  0  0
    2.3626    1.4096    0.0000 H   0  0  0  0  0  0  0  0  0  0  0  0
    1.6904   -0.4546    0.0000 H   0  0  0  0  0  0  0  0  0  0  0  0
    2.4309   -0.4546    0.0000 H   0  0  0  0  0  0  0  0  0  0  0  0
    1.0020    1.8449    0.0000 H   0  0  0  0  0  0  0  0  0  0  0  0
    0.2615    1.8449    0.0000 H   0  0  0  0  0  0  0  0  0  0  0  0
   -0.8450    1.0108    0.0000 H   0  0  0  0  0  0  0  0  0  0  0  0
    2.1712    0.6951    0.0000 H   0  0  0  0  0  0  0  0  0  0  0  0
    2.1712    2.1241    0.0000 H   0  0  0  0  0  0  0  0  0  0  0  0
    1.0705    2.9016    0.0000 H   0  0  0  0  0  0  0  0  0  0  0  0
    0.7208   -0.8164    0.0000 H   0  0  0  0  0  0  0  0  0  0  0  0
    0.5212    0.6951    0.0000 H   0  0  0  0  0  0  0  0  0  0  0  0
   -0.3935   -0.6739    0.0000 H   0  0  0  0  0  0  0  0  0  0  0  0
  1  2  1  0  0  0  0
  2  3  1  0  0  0  0
  3  4  1  0  0  0  0
  4  5  1  0  0  0  0
  3  6  1  0  0  0  0
  6  7  1  0  0  0  0
  3  8  1  0  0  0  0
  8  9  1  0  0  0  0
  1 10  1  0  0  0  0
  1 11  1  0  0  0  0
  1 12  1  0  0  0  0
  2 13  1  0  0  0  0
  2 14  1  0  0  0  0
  4 15  1  0  0  0  0
  4 16  1  0  0  0  0
  5 17  1  0  0  0  0
  6 18  1  0  0  0  0
  6 19  1  0  0  0  0
  7 20  1  0  0  0  0
  8 21  1  0  0  0  0
  8 22  1  0  0  0  0
  9 23  1  0  0  0  0
M  END
>  <InChIKey>
InChI=1S/C6H14O3/c1-2-6(3-7,4-8)5-9/h7-9H,2-5H2,1H3

>  <CASRN>
77-99-6

> <Outcome>
0

>  <Index>
3471

>  <StandardizerResult>
Clear Stereo (ID: ClearStereo)
Wedge Clean (ID: WedgeClean)
Mesomerize (ID: Mesomerize)
Tautomerize (ID: Tautomerize)
Add Explicit Hydrogens (ID: AddExplicitH)
Neutralize (ID: Neutralize)
Clean 2D (ID: Clean2D)

> <knn Distance>
3.31662487983704

> <CpId>
3471

$$$$
38
  Mrv1532301301811342D          

 37 36  0  0  0  0            999 V2000
    0.1002    0.4327    0.0000 C   0  0  0  0  0  0  0  0  0  0  0  0
    0.8147    0.0202    0.0000 C   0  0  0  0  0  0  0  0  0  0  0  0
    1.5292    0.4327    0.0000 C   0  0  0  0  0  0  0  0  0  0  0  0
    2.2437    0.8452    0.0000 C   0  0  0  0  0  0  0  0  0  0  0  0
    2.9581    0.4327    0.0000 O   0  0  0  0  0  0  0  0  0  0  0  0
    1.9417   -0.2818    0.0000 C   0  0  0  0  0  0  0  0  0  0  0  0
    1.5292   -0.9962    0.0000 O   0  0  0  0  0  0  0  0  0  0  0  0
    1.9417   -1.7107    0.0000 C   0  0  0  0  0  0  0  0  0  0  0  0
    1.5292   -2.4252    0.0000 C   0  0  0  0  0  0  0  0  0  0  0  0
    1.9417   -3.1396    0.0000 C   0  0  0  0  0  0  0  0  0  0  0  0
    1.1167    1.1472    0.0000 C   0  0  0  0  0  0  0  0  0  0  0  0
    1.5292    1.8616    0.0000 O   0  0  0  0  0  0  0  0  0  0  0  0
    1.1167    2.5761    0.0000 C   0  0  0  0  0  0  0  0  0  0  0  0
    1.5292    3.2906    0.0000 C   0  0  0  0  0  0  0  0  0  0  0  0
    1.1167    4.0051    0.0000 C   0  0  0  0  0  0  0  0  0  0  0  0
    0.5127    1.1472    0.0000 H   0  0  0  0  0  0  0  0  0  0  0  0
   -0.6142    0.8452    0.0000 H   0  0  0  0  0  0  0  0  0  0  0  0
   -0.3123   -0.2818    0.0000 H   0  0  0  0  0  0  0  0  0  0  0  0
    0.4445   -0.7170    0.0000 H   0  0  0  0  0  0  0  0  0  0  0  0
    1.1850   -0.7170    0.0000 H   0  0  0  0  0  0  0  0  0  0  0  0
    2.6139    1.5825    0.0000 H   0  0  0  0  0  0  0  0  0  0  0  0
    1.8734    1.5825    0.0000 H   0  0  0  0  0  0  0  0  0  0  0  0
    2.9581   -0.3923    0.0000 H   0  0  0  0  0  0  0  0  0  0  0  0
    2.6789   -0.6520    0.0000 H   0  0  0  0  0  0  0  0  0  0  0  0
    2.6789    0.0885    0.0000 H   0  0  0  0  0  0  0  0  0  0  0  0
    2.6789   -2.0810    0.0000 H   0  0  0  0  0  0  0  0  0  0  0  0
    2.6789   -1.3404    0.0000 H   0  0  0  0  0  0  0  0  0  0  0  0
    0.7042   -2.4252    0.0000 H   0  0  0  0  0  0  0  0  0  0  0  0
    1.5292   -3.8541    0.0000 H   0  0  0  0  0  0  0  0  0  0  0  0
    2.7667   -3.1396    0.0000 H   0  0  0  0  0  0  0  0  0  0  0  0
    0.7042    0.4327    0.0000 H   0  0  0  0  0  0  0  0  0  0  0  0
    0.7042    1.8616    0.0000 H   0  0  0  0  0  0  0  0  0  0  0  0
    0.5864    3.2081    0.0000 H   0  0  0  0  0  0  0  0  0  0  0  0
    0.3042    2.7194    0.0000 H   0  0  0  0  0  0  0  0  0  0  0  0
    2.3542    3.2906    0.0000 H   0  0  0  0  0  0  0  0  0  0  0  0
    1.5869    4.6829    0.0000 H   0  0  0  0  0  0  0  0  0  0  0  0
    0.6904    4.7114    0.0000 H   0  0  0  0  0  0  0  0  0  0  0  0
  1  2  1  0  0  0  0
  2  3  1  0  0  0  0
  3  4  1  0  0  0  0
  4  5  1  0  0  0  0
  3  6  1  0  0  0  0
  6  7  1  0  0  0  0
  7  8  1  0  0  0  0
  8  9  1  0  0  0  0
  9 10  2  0  0  0  0
  3 11  1  0  0  0  0
 11 12  1  0  0  0  0
 12 13  1  0  0  0  0
 13 14  1  0  0  0  0
 14 15  2  0  0  0  0
  1 16  1  0  0  0  0
  1 17  1  0  0  0  0
  1 18  1  0  0  0  0
  2 19  1  0  0  0  0
  2 20  1  0  0  0  0
  4 21  1  0  0  0  0
  4 22  1  0  0  0  0
  5 23  1  0  0  0  0
  6 24  1  0  0  0  0
  6 25  1  0  0  0  0
  8 26  1  0  0  0  0
  8 27  1  0  0  0  0
  9 28  1  0  0  0  0
 10 29  1  0  0  0  0
 10 30  1  0  0  0  0
 11 31  1  0  0  0  0
 11 32  1  0  0  0  0
 13 33  1  0  0  0  0
 13 34  1  0  0  0  0
 14 35  1  0  0  0  0
 15 36  1  0  0  0  0
 15 37  1  0  0  0  0
M  END
>  <InChIKey>
BDKDHWOPFRTWPP-UHFFFAOYSA-N

>  <UN GHS>
Non-irritant

>  <CASRN>
682-09-7

> <Outcome>
0

>  <Index>
38

>  <StandardizerResult>
Clear Stereo (ID: ClearStereo)
Wedge Clean (ID: WedgeClean)
Mesomerize (ID: Mesomerize)
Tautomerize (ID: Tautomerize)
Add Explicit Hydrogens (ID: AddExplicitH)
Neutralize (ID: Neutralize)
Clean 2D (ID: Clean2D)

> <knn Distance>
3.46410155296326

> <CpId>
38

$$$$
124
  Mrv1532301301811342D          

 54 53  0  0  0  0            999 V2000
    6.6749    4.7055    0.0000 C   0  0  0  0  0  0  0  0  0  0  0  0
    7.3894    4.2930    0.0000 C   0  0  0  0  0  0  0  0  0  0  0  0
    8.1038    4.7055    0.0000 C   0  0  0  0  0  0  0  0  0  0  0  0
    8.8183    4.2930    0.0000 C   0  0  0  0  0  0  0  0  0  0  0  0
    9.5328    4.7055    0.0000 C   0  0  0  0  0  0  0  0  0  0  0  0
    9.5328    5.5305    0.0000 C   0  0  0  0  0  0  0  0  0  0  0  0
   10.2472    5.9430    0.0000 C   0  0  0  0  0  0  0  0  0  0  0  0
   10.2472    4.2930    0.0000 C   0  0  0  0  0  0  0  0  0  0  0  0
   10.9617    4.7055    0.0000 N   0  0  0  0  0  0  0  0  0  0  0  0
   11.6762    4.2930    0.0000 C   0  0  0  0  0  0  0  0  0  0  0  0
   11.6762    3.4680    0.0000 O   0  0  0  0  0  0  0  0  0  0  0  0
   12.3907    4.7055    0.0000 C   0  0  0  0  0  0  0  0  0  0  0  0
   13.1051    4.2930    0.0000 C   0  0  0  0  0  0  0  0  0  0  0  0
   13.8196    4.7055    0.0000 C   0  0  0  0  0  0  0  0  0  0  0  0
   14.5341    4.2930    0.0000 C   0  0  0  0  0  0  0  0  0  0  0  0
   15.2485    4.7055    0.0000 C   0  0  0  0  0  0  0  0  0  0  0  0
   15.9630    4.2930    0.0000 C   0  0  0  0  0  0  0  0  0  0  0  0
   16.6775    4.7055    0.0000 C   0  0  0  0  0  0  0  0  0  0  0  0
   15.9630    3.4680    0.0000 C   0  0  0  0  0  0  0  0  0  0  0  0
    7.0874    5.4200    0.0000 H   0  0  0  0  0  0  0  0  0  0  0  0
    5.9604    5.1180    0.0000 H   0  0  0  0  0  0  0  0  0  0  0  0
    6.2624    3.9910    0.0000 H   0  0  0  0  0  0  0  0  0  0  0  0
    7.0191    3.5557    0.0000 H   0  0  0  0  0  0  0  0  0  0  0  0
    7.7596    3.5557    0.0000 H   0  0  0  0  0  0  0  0  0  0  0  0
    8.4741    5.4427    0.0000 H   0  0  0  0  0  0  0  0  0  0  0  0
    7.7336    5.4427    0.0000 H   0  0  0  0  0  0  0  0  0  0  0  0
    8.4480    3.5557    0.0000 H   0  0  0  0  0  0  0  0  0  0  0  0
    9.1886    3.5557    0.0000 H   0  0  0  0  0  0  0  0  0  0  0  0
    8.8183    5.1180    0.0000 H   0  0  0  0  0  0  0  0  0  0  0  0
    9.3895    6.3430    0.0000 H   0  0  0  0  0  0  0  0  0  0  0  0
    8.9008    6.0608    0.0000 H   0  0  0  0  0  0  0  0  0  0  0  0
   10.4781    5.1509    0.0000 H   0  0  0  0  0  0  0  0  0  0  0  0
   11.0715    5.9790    0.0000 H   0  0  0  0  0  0  0  0  0  0  0  0
   10.4082    6.7521    0.0000 H   0  0  0  0  0  0  0  0  0  0  0  0
    9.8770    3.5557    0.0000 H   0  0  0  0  0  0  0  0  0  0  0  0
   10.6175    3.5557    0.0000 H   0  0  0  0  0  0  0  0  0  0  0  0
   11.4504    5.3702    0.0000 H   0  0  0  0  0  0  0  0  0  0  0  0
   12.7609    5.4427    0.0000 H   0  0  0  0  0  0  0  0  0  0  0  0
   12.0204    5.4427    0.0000 H   0  0  0  0  0  0  0  0  0  0  0  0
   12.7349    3.5557    0.0000 H   0  0  0  0  0  0  0  0  0  0  0  0
   13.4754    3.5557    0.0000 H   0  0  0  0  0  0  0  0  0  0  0  0
   14.1899    5.4427    0.0000 H   0  0  0  0  0  0  0  0  0  0  0  0
   13.4493    5.4427    0.0000 H   0  0  0  0  0  0  0  0  0  0  0  0
   14.1638    3.5557    0.0000 H   0  0  0  0  0  0  0  0  0  0  0  0
   14.9043    3.5557    0.0000 H   0  0  0  0  0  0  0  0  0  0  0  0
   15.6188    5.4427    0.0000 H   0  0  0  0  0  0  0  0  0  0  0  0
   14.8783    5.4427    0.0000 H   0  0  0  0  0  0  0  0  0  0  0  0
   15.9630    5.1180    0.0000 H   0  0  0  0  0  0  0  0  0  0  0  0
   16.8910    3.9086    0.0000 H   0  0  0  0  0  0  0  0  0  0  0  0
   17.5025    4.7055    0.0000 H   0  0  0  0  0  0  0  0  0  0  0  0
   16.8910    5.5024    0.0000 H   0  0  0  0  0  0  0  0  0  0  0  0
   15.1380    3.4680    0.0000 H   0  0  0  0  0  0  0  0  0  0  0  0
   15.9630    2.6430    0.0000 H   0  0  0  0  0  0  0  0  0  0  0  0
   16.7880    3.4680    0.0000 H   0  0  0  0  0  0  0  0  0  0  0  0
  1  2  1  0  0  0  0
  2  3  1  0  0  0  0
  3  4  1  0  0  0  0
  4  5  1  0  0  0  0
  5  6  1  0  0  0  0
  6  7  1  0  0  0  0
  5  8  1  0  0  0  0
  8  9  1  0  0  0  0
  9 10  1  0  0  0  0
 10 11  2  0  0  0  0
 10 12  1  0  0  0  0
 12 13  1  0  0  0  0
 13 14  1  0  0  0  0
 14 15  1  0  0  0  0
 15 16  1  0  0  0  0
 16 17  1  0  0  0  0
 17 18  1  0  0  0  0
 17 19  1  0  0  0  0
  1 20  1  0  0  0  0
  1 21  1  0  0  0  0
  1 22  1  0  0  0  0
  2 23  1  0  0  0  0
  2 24  1  0  0  0  0
  3 25  1  0  0  0  0
  3 26  1  0  0  0  0
  4 27  1  0  0  0  0
  4 28  1  0  0  0  0
  5 29  1  0  0  0  0
  6 30  1  0  0  0  0
  6 31  1  0  0  0  0
  7 32  1  0  0  0  0
  7 33  1  0  0  0  0
  7 34  1  0  0  0  0
  8 35  1  0  0  0  0
  8 36  1  0  0  0  0
  9 37  1  0  0  0  0
 12 38  1  0  0  0  0
 12 39  1  0  0  0  0
 13 40  1  0  0  0  0
 13 41  1  0  0  0  0
 14 42  1  0  0  0  0
 14 43  1  0  0  0  0
 15 44  1  0  0  0  0
 15 45  1  0  0  0  0
 16 46  1  0  0  0  0
 16 47  1  0  0  0  0
 17 48  1  0  0  0  0
 18 49  1  0  0  0  0
 18 50  1  0  0  0  0
 18 51  1  0  0  0  0
 19 52  1  0  0  0  0
 19 53  1  0  0  0  0
 19 54  1  0  0  0  0
M  END
>  <InChIKey>
CYJLFSMDQYFKRD-UHFFFAOYSA-N

>  <UN GHS>
Non-irritant

>  <CASRN>
93820-33-8

> <Outcome>
0

>  <Index>
124

>  <StandardizerResult>
Clear Stereo (ID: ClearStereo)
Wedge Clean (ID: WedgeClean)
Mesomerize (ID: Mesomerize)
Tautomerize (ID: Tautomerize)
Add Explicit Hydrogens (ID: AddExplicitH)
Neutralize (ID: Neutralize)
Clean 2D (ID: Clean2D)

> <knn Distance>
3.46410155296326

> <CpId>
124

$$$$
144
  Mrv1532301301811342D          

 16 15  0  0  0  0            999 V2000
    1.0461    1.4289    0.0000 O   0  0  0  0  0  0  0  0  0  0  0  0
    1.7605    1.8414    0.0000 C   0  0  0  0  0  0  0  0  0  0  0  0
    1.7605    2.6664    0.0000 O   0  0  0  0  0  0  0  0  0  0  0  0
    2.4750    1.4289    0.0000 C   0  0  0  0  0  0  0  0  0  0  0  0
    3.1895    1.8414    0.0000 S   0  0  0  0  0  0  0  0  0  0  0  0
    3.9039    1.4289    0.0000 S   0  0  0  0  0  0  0  0  0  0  0  0
    4.6184    1.8414    0.0000 C   0  0  0  0  0  0  0  0  0  0  0  0
    5.3329    1.4289    0.0000 C   0  0  0  0  0  0  0  0  0  0  0  0
    6.0474    1.8414    0.0000 O   0  0  0  0  0  0  0  0  0  0  0  0
    5.3329    0.6039    0.0000 O   0  0  0  0  0  0  0  0  0  0  0  0
    0.3316    1.8414    0.0000 H   0  0  0  0  0  0  0  0  0  0  0  0
    2.1047    0.6917    0.0000 H   0  0  0  0  0  0  0  0  0  0  0  0
    2.8453    0.6917    0.0000 H   0  0  0  0  0  0  0  0  0  0  0  0
    4.9887    2.5786    0.0000 H   0  0  0  0  0  0  0  0  0  0  0  0
    4.2482    2.5786    0.0000 H   0  0  0  0  0  0  0  0  0  0  0  0
    6.7618    1.4289    0.0000 H   0  0  0  0  0  0  0  0  0  0  0  0
  1  2  1  0  0  0  0
  2  3  2  0  0  0  0
  2  4  1  0  0  0  0
  4  5  1  0  0  0  0
  5  6  1  0  0  0  0
  6  7  1  0  0  0  0
  7  8  1  0  0  0  0
  8  9  1  0  0  0  0
  8 10  2  0  0  0  0
  1 11  1  0  0  0  0
  4 12  1  0  0  0  0
  4 13  1  0  0  0  0
  7 14  1  0  0  0  0
  7 15  1  0  0  0  0
  9 16  1  0  0  0  0
M  END
>  <InChIKey>
DLLMHEDYJQACRM-UHFFFAOYSA-L

>  <UN GHS>
Non-irritant

>  <CASRN>
68223-93-8

> <Outcome>
0

>  <Index>
144

>  <StandardizerResult>
Clear Stereo (ID: ClearStereo)
Wedge Clean (ID: WedgeClean)
Mesomerize (ID: Mesomerize)
Tautomerize (ID: Tautomerize)
Add Explicit Hydrogens (ID: AddExplicitH)
Neutralize (ID: Neutralize)
Clean 2D (ID: Clean2D)

> <knn Distance>
3.46410155296326

> <CpId>
144

$$$$
153
  Mrv1532301301811342D          

 27 28  0  0  0  0            999 V2000
    0.1081    0.3885    0.0000 C   0  0  0  0  0  0  0  0  0  0  0  0
    0.8984    0.1518    0.0000 C   0  0  0  0  0  0  0  0  0  0  0  0
    0.1081   -0.0850    0.0000 C   0  0  0  0  0  0  0  0  0  0  0  0
    1.1046    0.9768    0.0000 C   0  0  0  0  0  0  0  0  0  0  0  0
    0.3902    0.5643    0.0000 C   0  0  0  0  0  0  0  0  0  0  0  0
    0.3902   -0.2607    0.0000 C   0  0  0  0  0  0  0  0  0  0  0  0
    1.1046   -0.6732    0.0000 C   0  0  0  0  0  0  0  0  0  0  0  0
    1.1046   -1.4982    0.0000 C   0  0  0  0  0  0  0  0  0  0  0  0
    1.8191   -0.2607    0.0000 C   0  0  0  0  0  0  0  0  0  0  0  0
    2.5336   -0.6732    0.0000 O   0  0  0  0  0  0  0  0  0  0  0  0
    1.8191    0.5643    0.0000 C   0  0  0  0  0  0  0  0  0  0  0  0
    0.0873    1.2133    0.0000 H   0  0  0  0  0  0  0  0  0  0  0  0
   -0.6132    0.7890    0.0000 H   0  0  0  0  0  0  0  0  0  0  0  0
   -0.6029   -0.0299    0.0000 H   0  0  0  0  0  0  0  0  0  0  0  0
   -0.5783   -0.5427    0.0000 H   0  0  0  0  0  0  0  0  0  0  0  0
   -0.1493   -0.8689    0.0000 H   0  0  0  0  0  0  0  0  0  0  0  0
    0.3896   -0.8605    0.0000 H   0  0  0  0  0  0  0  0  0  0  0  0
    1.1046    1.8018    0.0000 H   0  0  0  0  0  0  0  0  0  0  0  0
    0.8232    1.2665    0.0000 H   0  0  0  0  0  0  0  0  0  0  0  0
    0.4380    1.3879    0.0000 H   0  0  0  0  0  0  0  0  0  0  0  0
    0.6718   -1.0362    0.0000 H   0  0  0  0  0  0  0  0  0  0  0  0
    0.9203   -0.8929    0.0000 H   0  0  0  0  0  0  0  0  0  0  0  0
    0.4389   -1.9855    0.0000 H   0  0  0  0  0  0  0  0  0  0  0  0
    1.4420   -2.2511    0.0000 H   0  0  0  0  0  0  0  0  0  0  0  0
    1.9114   -1.3258    0.0000 H   0  0  0  0  0  0  0  0  0  0  0  0
    2.6427    0.6122    0.0000 H   0  0  0  0  0  0  0  0  0  0  0  0
    2.2724    1.2535    0.0000 H   0  0  0  0  0  0  0  0  0  0  0  0
  1  2  1  0  0  0  0
  2  3  1  0  0  0  0
  2  4  1  0  0  0  0
  4  5  1  0  0  0  0
  5  6  1  0  0  0  0
  6  7  1  0  0  0  0
  2  7  1  0  0  0  0
  7  8  1  0  0  0  0
  7  9  1  0  0  0  0
  9 10  2  0  0  0  0
  9 11  1  0  0  0  0
  4 11  1  0  0  0  0
  1 12  1  0  0  0  0
  1 13  1  0  0  0  0
  1 14  1  0  0  0  0
  3 15  1  0  0  0  0
  3 16  1  0  0  0  0
  3 17  1  0  0  0  0
  4 18  1  0  0  0  0
  5 19  1  0  0  0  0
  5 20  1  0  0  0  0
  6 21  1  0  0  0  0
  6 22  1  0  0  0  0
  8 23  1  0  0  0  0
  8 24  1  0  0  0  0
  8 25  1  0  0  0  0
 11 26  1  0  0  0  0
 11 27  1  0  0  0  0
M  END
>  <InChIKey>
DSSYKIVIOFKYAU-UHFFFAOYSA-N

>  <UN GHS>
Non-irritant

>  <CASRN>
76-22-2

> <Outcome>
0

>  <Index>
153

>  <StandardizerResult>
Clear Stereo (ID: ClearStereo)
Wedge Clean (ID: WedgeClean)
Mesomerize (ID: Mesomerize)
Tautomerize (ID: Tautomerize)
Add Explicit Hydrogens (ID: AddExplicitH)
Neutralize (ID: Neutralize)
Clean 2D (ID: Clean2D)

> <knn Distance>
3.46410155296326

> <CpId>
153

$$$$
190
  Mrv1532301301811342D          

 40 40  0  0  0  0            999 V2000
    2.1140   -5.3642    0.0000 C   0  0  0  0  0  0  0  0  0  0  0  0
    2.8285   -4.9517    0.0000 C   0  0  0  0  0  0  0  0  0  0  0  0
    3.5430   -5.3642    0.0000 C   0  0  0  0  0  0  0  0  0  0  0  0
    4.2574   -4.9517    0.0000 C   0  0  0  0  0  0  0  0  0  0  0  0
    4.9719   -5.3642    0.0000 C   0  0  0  0  0  0  0  0  0  0  0  0
    4.9719   -6.1892    0.0000 C   0  0  0  0  0  0  0  0  0  0  0  0
    5.6864   -6.6017    0.0000 C   0  0  0  0  0  0  0  0  0  0  0  0
    5.6864   -4.9517    0.0000 C   0  0  0  0  0  0  0  0  0  0  0  0
    6.4009   -5.3642    0.0000 O   0  0  0  0  0  0  0  0  0  0  0  0
    7.1153   -4.9517    0.0000 C   0  0  0  0  0  0  0  0  0  0  0  0
    7.1153   -4.1267    0.0000 O   0  0  0  0  0  0  0  0  0  0  0  0
    7.8298   -5.3642    0.0000 C   0  0  0  0  0  0  0  0  0  0  0  0
    8.5443   -4.9517    0.0000 C   0  0  0  0  0  0  0  0  0  0  0  0
    9.2587   -5.3642    0.0000 C   0  0  0  0  0  0  0  0  0  0  0  0
    9.2587   -6.1892    0.0000 C   0  0  0  0  0  0  0  0  0  0  0  0
    8.5443   -6.6017    0.0000 C   0  0  0  0  0  0  0  0  0  0  0  0
    7.8298   -6.1892    0.0000 C   0  0  0  0  0  0  0  0  0  0  0  0
    7.1153   -6.6017    0.0000 O   0  0  0  0  0  0  0  0  0  0  0  0
    1.7015   -4.6497    0.0000 H   0  0  0  0  0  0  0  0  0  0  0  0
    1.3996   -5.7767    0.0000 H   0  0  0  0  0  0  0  0  0  0  0  0
    2.5265   -6.0787    0.0000 H   0  0  0  0  0  0  0  0  0  0  0  0
    3.1988   -4.2145    0.0000 H   0  0  0  0  0  0  0  0  0  0  0  0
    2.4582   -4.2145    0.0000 H   0  0  0  0  0  0  0  0  0  0  0  0
    3.1727   -6.1015    0.0000 H   0  0  0  0  0  0  0  0  0  0  0  0
    3.9132   -6.1015    0.0000 H   0  0  0  0  0  0  0  0  0  0  0  0
    4.6277   -4.2145    0.0000 H   0  0  0  0  0  0  0  0  0  0  0  0
    3.8872   -4.2145    0.0000 H   0  0  0  0  0  0  0  0  0  0  0  0
    4.2574   -5.7767    0.0000 H   0  0  0  0  0  0  0  0  0  0  0  0
    4.3399   -6.7195    0.0000 H   0  0  0  0  0  0  0  0  0  0  0  0
    4.8287   -7.0017    0.0000 H   0  0  0  0  0  0  0  0  0  0  0  0
    5.8473   -7.4109    0.0000 H   0  0  0  0  0  0  0  0  0  0  0  0
    6.5106   -6.6377    0.0000 H   0  0  0  0  0  0  0  0  0  0  0  0
    5.9172   -5.8097    0.0000 H   0  0  0  0  0  0  0  0  0  0  0  0
    6.0566   -4.2145    0.0000 H   0  0  0  0  0  0  0  0  0  0  0  0
    5.3161   -4.2145    0.0000 H   0  0  0  0  0  0  0  0  0  0  0  0
    8.5443   -4.1267    0.0000 H   0  0  0  0  0  0  0  0  0  0  0  0
    9.9732   -4.9517    0.0000 H   0  0  0  0  0  0  0  0  0  0  0  0
    9.9732   -6.6017    0.0000 H   0  0  0  0  0  0  0  0  0  0  0  0
    8.5443   -7.4267    0.0000 H   0  0  0  0  0  0  0  0  0  0  0  0
    7.3524   -7.3919    0.0000 H   0  0  0  0  0  0  0  0  0  0  0  0
  1  2  1  0  0  0  0
  2  3  1  0  0  0  0
  3  4  1  0  0  0  0
  4  5  1  0  0  0  0
  5  6  1  0  0  0  0
  6  7  1  0  0  0  0
  5  8  1  0  0  0  0
  8  9  1  0  0  0  0
  9 10  1  0  0  0  0
 10 11  2  0  0  0  0
 10 12  1  0  0  0  0
 12 13  4  0  0  0  0
 13 14  4  0  0  0  0
 14 15  4  0  0  0  0
 15 16  4  0  0  0  0
 16 17  4  0  0  0  0
 12 17  4  0  0  0  0
 17 18  1  0  0  0  0
  1 19  1  0  0  0  0
  1 20  1  0  0  0  0
  1 21  1  0  0  0  0
  2 22  1  0  0  0  0
  2 23  1  0  0  0  0
  3 24  1  0  0  0  0
  3 25  1  0  0  0  0
  4 26  1  0  0  0  0
  4 27  1  0  0  0  0
  5 28  1  0  0  0  0
  6 29  1  0  0  0  0
  6 30  1  0  0  0  0
  7 31  1  0  0  0  0
  7 32  1  0  0  0  0
  7 33  1  0  0  0  0
  8 34  1  0  0  0  0
  8 35  1  0  0  0  0
 13 36  1  0  0  0  0
 14 37  1  0  0  0  0
 15 38  1  0  0  0  0
 16 39  1  0  0  0  0
 18 40  1  0  0  0  0
M  END
>  <InChIKey>
FMRHJJZUHUTGKE-UHFFFAOYSA-N

>  <UN GHS>
Non-irritant

>  <CASRN>
118-60-5

> <Outcome>
0

>  <Index>
190

>  <StandardizerResult>
Dearomatize (ID: Dearomatize)
Clear Stereo (ID: ClearStereo)
Wedge Clean (ID: WedgeClean)
Mesomerize (ID: Mesomerize)
Tautomerize (ID: Tautomerize)
Aromatize (ID: Aromatize)
Add Explicit Hydrogens (ID: AddExplicitH)
Neutralize (ID: Neutralize)
Clean 2D (ID: Clean2D)

> <knn Distance>
3.46410155296326

> <CpId>
190

$$$$
217
  Mrv1532301301811342D          

 50 49  0  0  0  0            999 V2000
    2.6297    0.7163    0.0000 C   0  0  0  0  0  0  0  0  0  0  0  0
    1.9152    0.3038    0.0000 O   0  0  0  0  0  0  0  0  0  0  0  0
    1.2008    0.7163    0.0000 Si  0  0  0  0  0  0  0  0  0  0  0  0
    0.4863    1.1288    0.0000 C   0  0  0  0  0  0  0  0  0  0  0  0
   -0.2282    0.7163    0.0000 C   0  0  0  0  0  0  0  0  0  0  0  0
   -0.9427    1.1288    0.0000 C   0  0  0  0  0  0  0  0  0  0  0  0
   -1.6571    0.7163    0.0000 C   0  0  0  0  0  0  0  0  0  0  0  0
   -2.3716    1.1288    0.0000 C   0  0  0  0  0  0  0  0  0  0  0  0
   -3.0861    0.7163    0.0000 C   0  0  0  0  0  0  0  0  0  0  0  0
   -3.8005    1.1288    0.0000 Si  0  0  0  0  0  0  0  0  0  0  0  0
   -4.5150    1.5413    0.0000 O   0  0  0  0  0  0  0  0  0  0  0  0
   -5.2295    1.1288    0.0000 C   0  0  0  0  0  0  0  0  0  0  0  0
   -3.3880    1.8432    0.0000 O   0  0  0  0  0  0  0  0  0  0  0  0
   -3.8005    2.5577    0.0000 C   0  0  0  0  0  0  0  0  0  0  0  0
   -4.2130    0.4143    0.0000 O   0  0  0  0  0  0  0  0  0  0  0  0
   -5.0380    0.4143    0.0000 C   0  0  0  0  0  0  0  0  0  0  0  0
    1.6133    1.4307    0.0000 O   0  0  0  0  0  0  0  0  0  0  0  0
    1.2008    2.1452    0.0000 C   0  0  0  0  0  0  0  0  0  0  0  0
    0.7883    0.0018    0.0000 O   0  0  0  0  0  0  0  0  0  0  0  0
   -0.0367    0.0018    0.0000 C   0  0  0  0  0  0  0  0  0  0  0  0
    3.0422    0.0018    0.0000 H   0  0  0  0  0  0  0  0  0  0  0  0
    3.3442    1.1288    0.0000 H   0  0  0  0  0  0  0  0  0  0  0  0
    2.2172    1.4307    0.0000 H   0  0  0  0  0  0  0  0  0  0  0  0
    0.8565    1.8660    0.0000 H   0  0  0  0  0  0  0  0  0  0  0  0
    0.1160    1.8660    0.0000 H   0  0  0  0  0  0  0  0  0  0  0  0
   -0.8827    0.2140    0.0000 H   0  0  0  0  0  0  0  0  0  0  0  0
    0.5340    0.4006    0.0000 H   0  0  0  0  0  0  0  0  0  0  0  0
   -0.5724    1.8660    0.0000 H   0  0  0  0  0  0  0  0  0  0  0  0
   -1.3129    1.8660    0.0000 H   0  0  0  0  0  0  0  0  0  0  0  0
   -2.3786    0.3162    0.0000 H   0  0  0  0  0  0  0  0  0  0  0  0
   -1.6856   -0.1082    0.0000 H   0  0  0  0  0  0  0  0  0  0  0  0
   -2.0013    1.8660    0.0000 H   0  0  0  0  0  0  0  0  0  0  0  0
   -2.7419    1.8660    0.0000 H   0  0  0  0  0  0  0  0  0  0  0  0
   -3.7162    0.1838    0.0000 H   0  0  0  0  0  0  0  0  0  0  0  0
   -3.2249   -0.0970    0.0000 H   0  0  0  0  0  0  0  0  0  0  0  0
   -5.2834    1.9520    0.0000 H   0  0  0  0  0  0  0  0  0  0  0  0
   -5.9917    1.4445    0.0000 H   0  0  0  0  0  0  0  0  0  0  0  0
   -5.8497    0.5848    0.0000 H   0  0  0  0  0  0  0  0  0  0  0  0
   -3.0861    2.9702    0.0000 H   0  0  0  0  0  0  0  0  0  0  0  0
   -4.2130    3.2722    0.0000 H   0  0  0  0  0  0  0  0  0  0  0  0
   -4.5150    2.1452    0.0000 H   0  0  0  0  0  0  0  0  0  0  0  0
   -5.4158   -0.3191    0.0000 H   0  0  0  0  0  0  0  0  0  0  0  0
   -4.8191   -0.3811    0.0000 H   0  0  0  0  0  0  0  0  0  0  0  0
   -4.5358    1.0688    0.0000 H   0  0  0  0  0  0  0  0  0  0  0  0
    2.0138    2.2851    0.0000 H   0  0  0  0  0  0  0  0  0  0  0  0
    1.3508    2.9565    0.0000 H   0  0  0  0  0  0  0  0  0  0  0  0
    0.4915    2.5666    0.0000 H   0  0  0  0  0  0  0  0  0  0  0  0
   -0.7172   -0.4647    0.0000 H   0  0  0  0  0  0  0  0  0  0  0  0
   -0.1379   -0.8170    0.0000 H   0  0  0  0  0  0  0  0  0  0  0  0
    0.5097   -0.6163    0.0000 H   0  0  0  0  0  0  0  0  0  0  0  0
  1  2  1  0  0  0  0
  2  3  1  0  0  0  0
  3  4  1  0  0  0  0
  4  5  1  0  0  0  0
  5  6  1  0  0  0  0
  6  7  1  0  0  0  0
  7  8  1  0  0  0  0
  8  9  1  0  0  0  0
  9 10  1  0  0  0  0
 10 11  1  0  0  0  0
 11 12  1  0  0  0  0
 10 13  1  0  0  0  0
 13 14  1  0  0  0  0
 10 15  1  0  0  0  0
 15 16  1  0  0  0  0
  3 17  1  0  0  0  0
 17 18  1  0  0  0  0
  3 19  1  0  0  0  0
 19 20  1  0  0  0  0
  1 21  1  0  0  0  0
  1 22  1  0  0  0  0
  1 23  1  0  0  0  0
  4 24  1  0  0  0  0
  4 25  1  0  0  0  0
  5 26  1  0  0  0  0
  5 27  1  0  0  0  0
  6 28  1  0  0  0  0
  6 29  1  0  0  0  0
  7 30  1  0  0  0  0
  7 31  1  0  0  0  0
  8 32  1  0  0  0  0
  8 33  1  0  0  0  0
  9 34  1  0  0  0  0
  9 35  1  0  0  0  0
 12 36  1  0  0  0  0
 12 37  1  0  0  0  0
 12 38  1  0  0  0  0
 14 39  1  0  0  0  0
 14 40  1  0  0  0  0
 14 41  1  0  0  0  0
 16 42  1  0  0  0  0
 16 43  1  0  0  0  0
 16 44  1  0  0  0  0
 18 45  1  0  0  0  0
 18 46  1  0  0  0  0
 18 47  1  0  0  0  0
 20 48  1  0  0  0  0
 20 49  1  0  0  0  0
 20 50  1  0  0  0  0
M  END
>  <InChIKey>
GFKCWAROGHMSTC-UHFFFAOYSA-N

>  <UN GHS>
Non-irritant

>  <CASRN>
87135-01-1

> <Outcome>
0

>  <Index>
217

>  <StandardizerResult>
Clear Stereo (ID: ClearStereo)
Wedge Clean (ID: WedgeClean)
Mesomerize (ID: Mesomerize)
Tautomerize (ID: Tautomerize)
Add Explicit Hydrogens (ID: AddExplicitH)
Neutralize (ID: Neutralize)
Clean 2D (ID: Clean2D)

> <knn Distance>
3.46410155296326

> <CpId>
217

$$$$
233
  Mrv1532301301811342D          

 25 24  0  0  0  0            999 V2000
    3.0222    2.5346    0.0000 O   0  0  0  0  0  0  0  0  0  0  0  0
    3.7367    2.1221    0.0000 C   0  0  0  0  0  0  0  0  0  0  0  0
    4.4511    2.5346    0.0000 C   0  0  0  0  0  0  0  0  0  0  0  0
    4.4511    3.3596    0.0000 O   0  0  0  0  0  0  0  0  0  0  0  0
    5.1656    2.1221    0.0000 C   0  0  0  0  0  0  0  0  0  0  0  0
    5.8801    2.5346    0.0000 O   0  0  0  0  0  0  0  0  0  0  0  0
    6.5945    2.1221    0.0000 C   0  0  0  0  0  0  0  0  0  0  0  0
    7.3090    2.5346    0.0000 C   0  0  0  0  0  0  0  0  0  0  0  0
    7.3090    3.3596    0.0000 O   0  0  0  0  0  0  0  0  0  0  0  0
    8.0235    2.1221    0.0000 C   0  0  0  0  0  0  0  0  0  0  0  0
    8.7380    2.5346    0.0000 O   0  0  0  0  0  0  0  0  0  0  0  0
    3.0222    3.3596    0.0000 H   0  0  0  0  0  0  0  0  0  0  0  0
    3.3664    1.3848    0.0000 H   0  0  0  0  0  0  0  0  0  0  0  0
    4.1069    1.3848    0.0000 H   0  0  0  0  0  0  0  0  0  0  0  0
    3.7367    2.9471    0.0000 H   0  0  0  0  0  0  0  0  0  0  0  0
    4.8636    4.0740    0.0000 H   0  0  0  0  0  0  0  0  0  0  0  0
    4.7953    1.3848    0.0000 H   0  0  0  0  0  0  0  0  0  0  0  0
    5.5359    1.3848    0.0000 H   0  0  0  0  0  0  0  0  0  0  0  0
    6.2243    1.3848    0.0000 H   0  0  0  0  0  0  0  0  0  0  0  0
    6.9648    1.3848    0.0000 H   0  0  0  0  0  0  0  0  0  0  0  0
    6.5945    2.9471    0.0000 H   0  0  0  0  0  0  0  0  0  0  0  0
    7.7215    4.0740    0.0000 H   0  0  0  0  0  0  0  0  0  0  0  0
    7.6532    1.3848    0.0000 H   0  0  0  0  0  0  0  0  0  0  0  0
    8.3937    1.3848    0.0000 H   0  0  0  0  0  0  0  0  0  0  0  0
    9.4524    2.1221    0.0000 H   0  0  0  0  0  0  0  0  0  0  0  0
  1  2  1  0  0  0  0
  2  3  1  0  0  0  0
  3  4  1  0  0  0  0
  3  5  1  0  0  0  0
  5  6  1  0  0  0  0
  6  7  1  0  0  0  0
  7  8  1  0  0  0  0
  8  9  1  0  0  0  0
  8 10  1  0  0  0  0
 10 11  1  0  0  0  0
  1 12  1  0  0  0  0
  2 13  1  0  0  0  0
  2 14  1  0  0  0  0
  3 15  1  0  0  0  0
  4 16  1  0  0  0  0
  5 17  1  0  0  0  0
  5 18  1  0  0  0  0
  7 19  1  0  0  0  0
  7 20  1  0  0  0  0
  8 21  1  0  0  0  0
  9 22  1  0  0  0  0
 10 23  1  0  0  0  0
 10 24  1  0  0  0  0
 11 25  1  0  0  0  0
M  END
>  <InChIKey>
GPLRAVKSCUXZTP-UHFFFAOYSA-N

>  <UN GHS>
Non-irritant

>  <CASRN>
59113-36-9

> <Outcome>
0

>  <Index>
233

>  <StandardizerResult>
Clear Stereo (ID: ClearStereo)
Wedge Clean (ID: WedgeClean)
Mesomerize (ID: Mesomerize)
Tautomerize (ID: Tautomerize)
Add Explicit Hydrogens (ID: AddExplicitH)
Neutralize (ID: Neutralize)
Clean 2D (ID: Clean2D)

> <knn Distance>
3.46410155296326

> <CpId>
233

$$$$
329
  Mrv1532301301811342D          

124123  0  0  0  0            999 V2000
    8.5705  -24.3129    0.0000 C   0  0  0  0  0  0  0  0  0  0  0  0
    8.5705  -23.4879    0.0000 C   0  0  0  0  0  0  0  0  0  0  0  0
    9.2850  -23.0754    0.0000 C   0  0  0  0  0  0  0  0  0  0  0  0
    7.8560  -23.0754    0.0000 C   0  0  0  0  0  0  0  0  0  0  0  0
    7.8560  -22.2504    0.0000 C   0  0  0  0  0  0  0  0  0  0  0  0
    7.1416  -21.8379    0.0000 C   0  0  0  0  0  0  0  0  0  0  0  0
    7.1416  -21.0129    0.0000 C   0  0  0  0  0  0  0  0  0  0  0  0
    6.4271  -20.6004    0.0000 C   0  0  0  0  0  0  0  0  0  0  0  0
    6.4271  -19.7754    0.0000 C   0  0  0  0  0  0  0  0  0  0  0  0
    5.7126  -19.3629    0.0000 C   0  0  0  0  0  0  0  0  0  0  0  0
    5.7126  -18.5379    0.0000 C   0  0  0  0  0  0  0  0  0  0  0  0
    4.9982  -18.1254    0.0000 C   0  0  0  0  0  0  0  0  0  0  0  0
    4.9982  -17.3004    0.0000 C   0  0  0  0  0  0  0  0  0  0  0  0
    4.2837  -16.8879    0.0000 O   0  0  0  0  0  0  0  0  0  0  0  0
    4.2837  -16.0629    0.0000 P   0  0  0  0  0  0  0  0  0  0  0  0
    3.5692  -15.6504    0.0000 O   0  0  0  0  0  0  0  0  0  0  0  0
    3.5692  -14.8254    0.0000 C   0  0  0  0  0  0  0  0  0  0  0  0
    2.8547  -14.4129    0.0000 C   0  0  0  0  0  0  0  0  0  0  0  0
    2.8547  -13.5879    0.0000 C   0  0  0  0  0  0  0  0  0  0  0  0
    2.1403  -13.1754    0.0000 C   0  0  0  0  0  0  0  0  0  0  0  0
    2.1403  -12.3504    0.0000 C   0  0  0  0  0  0  0  0  0  0  0  0
    1.4258  -11.9379    0.0000 C   0  0  0  0  0  0  0  0  0  0  0  0
    1.4258  -11.1129    0.0000 C   0  0  0  0  0  0  0  0  0  0  0  0
    0.7113  -10.7004    0.0000 C   0  0  0  0  0  0  0  0  0  0  0  0
    0.7113   -9.8754    0.0000 C   0  0  0  0  0  0  0  0  0  0  0  0
   -0.0031   -9.4629    0.0000 C   0  0  0  0  0  0  0  0  0  0  0  0
   -0.0031   -8.6379    0.0000 C   0  0  0  0  0  0  0  0  0  0  0  0
   -0.7176   -8.2254    0.0000 C   0  0  0  0  0  0  0  0  0  0  0  0
    0.7113   -8.2254    0.0000 C   0  0  0  0  0  0  0  0  0  0  0  0
    4.9982  -15.6504    0.0000 O   0  0  0  0  0  0  0  0  0  0  0  0
    4.9982  -14.8254    0.0000 C   0  0  0  0  0  0  0  0  0  0  0  0
    5.7126  -14.4129    0.0000 C   0  0  0  0  0  0  0  0  0  0  0  0
    5.7126  -13.5879    0.0000 C   0  0  0  0  0  0  0  0  0  0  0  0
    6.4271  -13.1754    0.0000 C   0  0  0  0  0  0  0  0  0  0  0  0
    6.4271  -12.3504    0.0000 C   0  0  0  0  0  0  0  0  0  0  0  0
    7.1416  -11.9379    0.0000 C   0  0  0  0  0  0  0  0  0  0  0  0
    7.1416  -11.1129    0.0000 C   0  0  0  0  0  0  0  0  0  0  0  0
    7.8560  -10.7004    0.0000 C   0  0  0  0  0  0  0  0  0  0  0  0
    7.8560   -9.8754    0.0000 C   0  0  0  0  0  0  0  0  0  0  0  0
    8.5705   -9.4629    0.0000 C   0  0  0  0  0  0  0  0  0  0  0  0
    8.5705   -8.6379    0.0000 C   0  0  0  0  0  0  0  0  0  0  0  0
    7.8560   -8.2254    0.0000 C   0  0  0  0  0  0  0  0  0  0  0  0
    9.2850   -8.2254    0.0000 C   0  0  0  0  0  0  0  0  0  0  0  0
    7.7455  -24.3129    0.0000 H   0  0  0  0  0  0  0  0  0  0  0  0
    8.5705  -25.1379    0.0000 H   0  0  0  0  0  0  0  0  0  0  0  0
    9.3955  -24.3129    0.0000 H   0  0  0  0  0  0  0  0  0  0  0  0
    9.2850  -23.9004    0.0000 H   0  0  0  0  0  0  0  0  0  0  0  0
   10.0819  -23.2889    0.0000 H   0  0  0  0  0  0  0  0  0  0  0  0
    9.6975  -22.3609    0.0000 H   0  0  0  0  0  0  0  0  0  0  0  0
    8.7016  -22.4920    0.0000 H   0  0  0  0  0  0  0  0  0  0  0  0
    7.0324  -23.1233    0.0000 H   0  0  0  0  0  0  0  0  0  0  0  0
    7.4027  -23.7646    0.0000 H   0  0  0  0  0  0  0  0  0  0  0  0
    8.1781  -21.4908    0.0000 H   0  0  0  0  0  0  0  0  0  0  0  0
    7.1416  -22.6629    0.0000 H   0  0  0  0  0  0  0  0  0  0  0  0
    6.3663  -21.5557    0.0000 H   0  0  0  0  0  0  0  0  0  0  0  0
    6.3663  -22.1200    0.0000 H   0  0  0  0  0  0  0  0  0  0  0  0
    7.9652  -20.9649    0.0000 H   0  0  0  0  0  0  0  0  0  0  0  0
    7.5949  -20.3236    0.0000 H   0  0  0  0  0  0  0  0  0  0  0  0
    5.7215  -20.1728    0.0000 H   0  0  0  0  0  0  0  0  0  0  0  0
    5.6958  -20.9822    0.0000 H   0  0  0  0  0  0  0  0  0  0  0  0
    7.2507  -19.7274    0.0000 H   0  0  0  0  0  0  0  0  0  0  0  0
    6.8804  -19.0861    0.0000 H   0  0  0  0  0  0  0  0  0  0  0  0
    4.9362  -19.0840    0.0000 H   0  0  0  0  0  0  0  0  0  0  0  0
    4.9393  -19.6502    0.0000 H   0  0  0  0  0  0  0  0  0  0  0  0
    6.5362  -18.4899    0.0000 H   0  0  0  0  0  0  0  0  0  0  0  0
    6.1660  -17.8486    0.0000 H   0  0  0  0  0  0  0  0  0  0  0  0
    4.2927  -17.6976    0.0000 H   0  0  0  0  0  0  0  0  0  0  0  0
    4.2666  -18.5067    0.0000 H   0  0  0  0  0  0  0  0  0  0  0  0
    5.8218  -17.2524    0.0000 H   0  0  0  0  0  0  0  0  0  0  0  0
    5.4515  -16.6111    0.0000 H   0  0  0  0  0  0  0  0  0  0  0  0
    4.3928  -14.7774    0.0000 H   0  0  0  0  0  0  0  0  0  0  0  0
    4.0226  -14.1361    0.0000 H   0  0  0  0  0  0  0  0  0  0  0  0
    2.0311  -14.4608    0.0000 H   0  0  0  0  0  0  0  0  0  0  0  0
    2.4014  -15.1021    0.0000 H   0  0  0  0  0  0  0  0  0  0  0  0
    3.6783  -13.5399    0.0000 H   0  0  0  0  0  0  0  0  0  0  0  0
    3.3081  -12.8986    0.0000 H   0  0  0  0  0  0  0  0  0  0  0  0
    1.3167  -13.2233    0.0000 H   0  0  0  0  0  0  0  0  0  0  0  0
    1.6869  -13.8646    0.0000 H   0  0  0  0  0  0  0  0  0  0  0  0
    2.9639  -12.3024    0.0000 H   0  0  0  0  0  0  0  0  0  0  0  0
    2.5936  -11.6611    0.0000 H   0  0  0  0  0  0  0  0  0  0  0  0
    0.6022  -11.9858    0.0000 H   0  0  0  0  0  0  0  0  0  0  0  0
    0.9725  -12.6271    0.0000 H   0  0  0  0  0  0  0  0  0  0  0  0
    2.2494  -11.0649    0.0000 H   0  0  0  0  0  0  0  0  0  0  0  0
    1.8791  -10.4236    0.0000 H   0  0  0  0  0  0  0  0  0  0  0  0
   -0.1123  -10.7483    0.0000 H   0  0  0  0  0  0  0  0  0  0  0  0
    0.2580  -11.3896    0.0000 H   0  0  0  0  0  0  0  0  0  0  0  0
    1.5349   -9.8274    0.0000 H   0  0  0  0  0  0  0  0  0  0  0  0
    1.1647   -9.1861    0.0000 H   0  0  0  0  0  0  0  0  0  0  0  0
   -0.8267   -9.5108    0.0000 H   0  0  0  0  0  0  0  0  0  0  0  0
   -0.4565  -10.1521    0.0000 H   0  0  0  0  0  0  0  0  0  0  0  0
   -0.7176   -9.0504    0.0000 H   0  0  0  0  0  0  0  0  0  0  0  0
   -0.1342   -7.6420    0.0000 H   0  0  0  0  0  0  0  0  0  0  0  0
   -1.1301   -7.5109    0.0000 H   0  0  0  0  0  0  0  0  0  0  0  0
   -1.5145   -8.4389    0.0000 H   0  0  0  0  0  0  0  0  0  0  0  0
    1.1238   -8.9398    0.0000 H   0  0  0  0  0  0  0  0  0  0  0  0
    1.4258   -7.8129    0.0000 H   0  0  0  0  0  0  0  0  0  0  0  0
    0.2988   -7.5109    0.0000 H   0  0  0  0  0  0  0  0  0  0  0  0
    4.8163  -14.0207    0.0000 H   0  0  0  0  0  0  0  0  0  0  0  0
    5.7126  -15.2379    0.0000 H   0  0  0  0  0  0  0  0  0  0  0  0
    6.4879  -14.6950    0.0000 H   0  0  0  0  0  0  0  0  0  0  0  0
    6.4879  -14.1307    0.0000 H   0  0  0  0  0  0  0  0  0  0  0  0
    5.2593  -12.8986    0.0000 H   0  0  0  0  0  0  0  0  0  0  0  0
    4.8890  -13.5399    0.0000 H   0  0  0  0  0  0  0  0  0  0  0  0
    7.1584  -13.5572    0.0000 H   0  0  0  0  0  0  0  0  0  0  0  0
    7.1327  -12.7478    0.0000 H   0  0  0  0  0  0  0  0  0  0  0  0
    5.9738  -11.6611    0.0000 H   0  0  0  0  0  0  0  0  0  0  0  0
    5.6035  -12.3024    0.0000 H   0  0  0  0  0  0  0  0  0  0  0  0
    7.9149  -12.2252    0.0000 H   0  0  0  0  0  0  0  0  0  0  0  0
    7.9180  -11.6590    0.0000 H   0  0  0  0  0  0  0  0  0  0  0  0
    6.6882  -10.4236    0.0000 H   0  0  0  0  0  0  0  0  0  0  0  0
    6.3180  -11.0649    0.0000 H   0  0  0  0  0  0  0  0  0  0  0  0
    8.5876  -11.0817    0.0000 H   0  0  0  0  0  0  0  0  0  0  0  0
    8.5615  -10.2726    0.0000 H   0  0  0  0  0  0  0  0  0  0  0  0
    7.4027   -9.1861    0.0000 H   0  0  0  0  0  0  0  0  0  0  0  0
    7.0324   -9.8274    0.0000 H   0  0  0  0  0  0  0  0  0  0  0  0
    9.3438   -9.7503    0.0000 H   0  0  0  0  0  0  0  0  0  0  0  0
    9.3470   -9.1841    0.0000 H   0  0  0  0  0  0  0  0  0  0  0  0
    7.8560   -9.0504    0.0000 H   0  0  0  0  0  0  0  0  0  0  0  0
    8.4394   -7.6420    0.0000 H   0  0  0  0  0  0  0  0  0  0  0  0
    7.4435   -7.5109    0.0000 H   0  0  0  0  0  0  0  0  0  0  0  0
    7.0592   -8.4389    0.0000 H   0  0  0  0  0  0  0  0  0  0  0  0
   10.0913   -8.4001    0.0000 H   0  0  0  0  0  0  0  0  0  0  0  0
    9.6742   -7.4979    0.0000 H   0  0  0  0  0  0  0  0  0  0  0  0
    8.6923   -7.6515    0.0000 H   0  0  0  0  0  0  0  0  0  0  0  0
  1  2  1  0  0  0  0
  2  3  1  0  0  0  0
  2  4  1  0  0  0  0
  4  5  1  0  0  0  0
  5  6  1  0  0  0  0
  6  7  1  0  0  0  0
  7  8  1  0  0  0  0
  8  9  1  0  0  0  0
  9 10  1  0  0  0  0
 10 11  1  0  0  0  0
 11 12  1  0  0  0  0
 12 13  1  0  0  0  0
 13 14  1  0  0  0  0
 14 15  1  0  0  0  0
 15 16  1  0  0  0  0
 16 17  1  0  0  0  0
 17 18  1  0  0  0  0
 18 19  1  0  0  0  0
 19 20  1  0  0  0  0
 20 21  1  0  0  0  0
 21 22  1  0  0  0  0
 22 23  1  0  0  0  0
 23 24  1  0  0  0  0
 24 25  1  0  0  0  0
 25 26  1  0  0  0  0
 26 27  1  0  0  0  0
 27 28  1  0  0  0  0
 27 29  1  0  0  0  0
 15 30  1  0  0  0  0
 30 31  1  0  0  0  0
 31 32  1  0  0  0  0
 32 33  1  0  0  0  0
 33 34  1  0  0  0  0
 34 35  1  0  0  0  0
 35 36  1  0  0  0  0
 36 37  1  0  0  0  0
 37 38  1  0  0  0  0
 38 39  1  0  0  0  0
 39 40  1  0  0  0  0
 40 41  1  0  0  0  0
 41 42  1  0  0  0  0
 41 43  1  0  0  0  0
  1 44  1  0  0  0  0
  1 45  1  0  0  0  0
  1 46  1  0  0  0  0
  2 47  1  0  0  0  0
  3 48  1  0  0  0  0
  3 49  1  0  0  0  0
  3 50  1  0  0  0  0
  4 51  1  0  0  0  0
  4 52  1  0  0  0  0
  5 53  1  0  0  0  0
  5 54  1  0  0  0  0
  6 55  1  0  0  0  0
  6 56  1  0  0  0  0
  7 57  1  0  0  0  0
  7 58  1  0  0  0  0
  8 59  1  0  0  0  0
  8 60  1  0  0  0  0
  9 61  1  0  0  0  0
  9 62  1  0  0  0  0
 10 63  1  0  0  0  0
 10 64  1  0  0  0  0
 11 65  1  0  0  0  0
 11 66  1  0  0  0  0
 12 67  1  0  0  0  0
 12 68  1  0  0  0  0
 13 69  1  0  0  0  0
 13 70  1  0  0  0  0
 17 71  1  0  0  0  0
 17 72  1  0  0  0  0
 18 73  1  0  0  0  0
 18 74  1  0  0  0  0
 19 75  1  0  0  0  0
 19 76  1  0  0  0  0
 20 77  1  0  0  0  0
 20 78  1  0  0  0  0
 21 79  1  0  0  0  0
 21 80  1  0  0  0  0
 22 81  1  0  0  0  0
 22 82  1  0  0  0  0
 23 83  1  0  0  0  0
 23 84  1  0  0  0  0
 24 85  1  0  0  0  0
 24 86  1  0  0  0  0
 25 87  1  0  0  0  0
 25 88  1  0  0  0  0
 26 89  1  0  0  0  0
 26 90  1  0  0  0  0
 27 91  1  0  0  0  0
 28 92  1  0  0  0  0
 28 93  1  0  0  0  0
 28 94  1  0  0  0  0
 29 95  1  0  0  0  0
 29 96  1  0  0  0  0
 29 97  1  0  0  0  0
 31 98  1  0  0  0  0
 31 99  1  0  0  0  0
 32100  1  0  0  0  0
 32101  1  0  0  0  0
 33102  1  0  0  0  0
 33103  1  0  0  0  0
 34104  1  0  0  0  0
 34105  1  0  0  0  0
 35106  1  0  0  0  0
 35107  1  0  0  0  0
 36108  1  0  0  0  0
 36109  1  0  0  0  0
 37110  1  0  0  0  0
 37111  1  0  0  0  0
 38112  1  0  0  0  0
 38113  1  0  0  0  0
 39114  1  0  0  0  0
 39115  1  0  0  0  0
 40116  1  0  0  0  0
 40117  1  0  0  0  0
 41118  1  0  0  0  0
 42119  1  0  0  0  0
 42120  1  0  0  0  0
 42121  1  0  0  0  0
 43122  1  0  0  0  0
 43123  1  0  0  0  0
 43124  1  0  0  0  0
M  END
>  <InChIKey>
IVINYWARLXOTLP-UHFFFAOYSA-N

>  <UN GHS>
Non-irritant

>  <CASRN>
77745-66-5

> <Outcome>
0

>  <Index>
329

>  <StandardizerResult>
Clear Stereo (ID: ClearStereo)
Wedge Clean (ID: WedgeClean)
Mesomerize (ID: Mesomerize)
Tautomerize (ID: Tautomerize)
Add Explicit Hydrogens (ID: AddExplicitH)
Neutralize (ID: Neutralize)
Clean 2D (ID: Clean2D)

> <knn Distance>
3.46410155296326

> <CpId>
329

$$$$
344
  Mrv1532301301811342D          

109111  0  0  0  0            999 V2000
    1.4096   -0.8335    0.0000 C   0  0  0  0  0  0  0  0  0  0  0  0
    1.4096   -1.6585    0.0000 C   0  0  0  0  0  0  0  0  0  0  0  0
    2.2346   -1.6585    0.0000 C   0  0  0  0  0  0  0  0  0  0  0  0
    0.5846   -1.6585    0.0000 C   0  0  0  0  0  0  0  0  0  0  0  0
    1.4096   -2.4835    0.0000 C   0  0  0  0  0  0  0  0  0  0  0  0
    0.6951   -2.8960    0.0000 C   0  0  0  0  0  0  0  0  0  0  0  0
    0.6951   -3.7210    0.0000 C   0  0  0  0  0  0  0  0  0  0  0  0
    1.4096   -4.1335    0.0000 C   0  0  0  0  0  0  0  0  0  0  0  0
    1.4096   -4.9585    0.0000 O   0  0  0  0  0  0  0  0  0  0  0  0
    0.6951   -5.3710    0.0000 P   0  0  0  0  0  0  0  0  0  0  0  0
    0.6951   -6.1960    0.0000 O   0  0  0  0  0  0  0  0  0  0  0  0
    1.4096   -6.6085    0.0000 C   0  0  0  0  0  0  0  0  0  0  0  0
    2.1241   -6.1960    0.0000 C   0  0  0  0  0  0  0  0  0  0  0  0
    2.8385   -6.6085    0.0000 C   0  0  0  0  0  0  0  0  0  0  0  0
    2.8385   -7.4335    0.0000 C   0  0  0  0  0  0  0  0  0  0  0  0
    2.1241   -7.8460    0.0000 C   0  0  0  0  0  0  0  0  0  0  0  0
    1.4096   -7.4335    0.0000 C   0  0  0  0  0  0  0  0  0  0  0  0
    0.6951   -7.8460    0.0000 C   0  0  0  0  0  0  0  0  0  0  0  0
   -0.0194   -8.2585    0.0000 C   0  0  0  0  0  0  0  0  0  0  0  0
    0.2826   -7.1316    0.0000 C   0  0  0  0  0  0  0  0  0  0  0  0
    1.1076   -8.5605    0.0000 C   0  0  0  0  0  0  0  0  0  0  0  0
    3.5530   -7.8460    0.0000 C   0  0  0  0  0  0  0  0  0  0  0  0
    4.2675   -8.2585    0.0000 C   0  0  0  0  0  0  0  0  0  0  0  0
    3.1405   -8.5605    0.0000 C   0  0  0  0  0  0  0  0  0  0  0  0
    3.9655   -7.1316    0.0000 C   0  0  0  0  0  0  0  0  0  0  0  0
   -0.0194   -4.9585    0.0000 O   0  0  0  0  0  0  0  0  0  0  0  0
   -0.7338   -5.3710    0.0000 C   0  0  0  0  0  0  0  0  0  0  0  0
   -0.7338   -6.1960    0.0000 C   0  0  0  0  0  0  0  0  0  0  0  0
   -1.4483   -6.6085    0.0000 C   0  0  0  0  0  0  0  0  0  0  0  0
   -2.1628   -6.1960    0.0000 C   0  0  0  0  0  0  0  0  0  0  0  0
   -2.1628   -5.3710    0.0000 C   0  0  0  0  0  0  0  0  0  0  0  0
   -1.4483   -4.9585    0.0000 C   0  0  0  0  0  0  0  0  0  0  0  0
   -1.4483   -4.1335    0.0000 C   0  0  0  0  0  0  0  0  0  0  0  0
   -1.4483   -3.3085    0.0000 C   0  0  0  0  0  0  0  0  0  0  0  0
   -0.6233   -4.1335    0.0000 C   0  0  0  0  0  0  0  0  0  0  0  0
   -2.2733   -4.1335    0.0000 C   0  0  0  0  0  0  0  0  0  0  0  0
   -2.8772   -6.6085    0.0000 C   0  0  0  0  0  0  0  0  0  0  0  0
   -3.5917   -7.0210    0.0000 C   0  0  0  0  0  0  0  0  0  0  0  0
   -3.2897   -5.8941    0.0000 C   0  0  0  0  0  0  0  0  0  0  0  0
   -2.4647   -7.3230    0.0000 C   0  0  0  0  0  0  0  0  0  0  0  0
    2.1241   -3.7210    0.0000 C   0  0  0  0  0  0  0  0  0  0  0  0
    2.1241   -2.8960    0.0000 C   0  0  0  0  0  0  0  0  0  0  0  0
    2.8385   -4.1335    0.0000 C   0  0  0  0  0  0  0  0  0  0  0  0
    3.5530   -4.5460    0.0000 C   0  0  0  0  0  0  0  0  0  0  0  0
    3.2510   -3.4191    0.0000 C   0  0  0  0  0  0  0  0  0  0  0  0
    2.4260   -4.8480    0.0000 C   0  0  0  0  0  0  0  0  0  0  0  0
    2.2346   -0.8335    0.0000 H   0  0  0  0  0  0  0  0  0  0  0  0
    1.4096   -0.0085    0.0000 H   0  0  0  0  0  0  0  0  0  0  0  0
    0.5846   -0.8335    0.0000 H   0  0  0  0  0  0  0  0  0  0  0  0
    1.9189   -2.4207    0.0000 H   0  0  0  0  0  0  0  0  0  0  0  0
    2.8180   -2.2419    0.0000 H   0  0  0  0  0  0  0  0  0  0  0  0
    2.9968   -1.3428    0.0000 H   0  0  0  0  0  0  0  0  0  0  0  0
   -0.1776   -1.3428    0.0000 H   0  0  0  0  0  0  0  0  0  0  0  0
    0.0012   -2.2419    0.0000 H   0  0  0  0  0  0  0  0  0  0  0  0
    0.9003   -2.4207    0.0000 H   0  0  0  0  0  0  0  0  0  0  0  0
   -0.0623   -3.2229    0.0000 H   0  0  0  0  0  0  0  0  0  0  0  0
    0.2620   -4.4232    0.0000 H   0  0  0  0  0  0  0  0  0  0  0  0
    2.1241   -5.3710    0.0000 H   0  0  0  0  0  0  0  0  0  0  0  0
    3.5530   -6.1960    0.0000 H   0  0  0  0  0  0  0  0  0  0  0  0
    2.1241   -8.6710    0.0000 H   0  0  0  0  0  0  0  0  0  0  0  0
   -0.4319   -7.5441    0.0000 H   0  0  0  0  0  0  0  0  0  0  0  0
   -0.7338   -8.6710    0.0000 H   0  0  0  0  0  0  0  0  0  0  0  0
    0.3931   -8.9730    0.0000 H   0  0  0  0  0  0  0  0  0  0  0  0
    1.1006   -7.0239    0.0000 H   0  0  0  0  0  0  0  0  0  0  0  0
    0.4961   -6.3347    0.0000 H   0  0  0  0  0  0  0  0  0  0  0  0
   -0.3719   -6.6293    0.0000 H   0  0  0  0  0  0  0  0  0  0  0  0
    1.2153   -9.3784    0.0000 H   0  0  0  0  0  0  0  0  0  0  0  0
    1.9045   -8.7740    0.0000 H   0  0  0  0  0  0  0  0  0  0  0  0
    1.6098   -7.9060    0.0000 H   0  0  0  0  0  0  0  0  0  0  0  0
    3.8550   -8.9730    0.0000 H   0  0  0  0  0  0  0  0  0  0  0  0
    4.9819   -8.6710    0.0000 H   0  0  0  0  0  0  0  0  0  0  0  0
    4.6800   -7.5441    0.0000 H   0  0  0  0  0  0  0  0  0  0  0  0
    2.6383   -7.9060    0.0000 H   0  0  0  0  0  0  0  0  0  0  0  0
    2.3436   -8.7740    0.0000 H   0  0  0  0  0  0  0  0  0  0  0  0
    3.0328   -9.3784    0.0000 H   0  0  0  0  0  0  0  0  0  0  0  0
    4.6200   -6.6293    0.0000 H   0  0  0  0  0  0  0  0  0  0  0  0
    3.7520   -6.3347    0.0000 H   0  0  0  0  0  0  0  0  0  0  0  0
    3.1476   -7.0239    0.0000 H   0  0  0  0  0  0  0  0  0  0  0  0
    0.0417   -5.9147    0.0000 H   0  0  0  0  0  0  0  0  0  0  0  0
   -1.4483   -7.4335    0.0000 H   0  0  0  0  0  0  0  0  0  0  0  0
   -2.8772   -4.9585    0.0000 H   0  0  0  0  0  0  0  0  0  0  0  0
   -0.6233   -3.3085    0.0000 H   0  0  0  0  0  0  0  0  0  0  0  0
   -1.4483   -2.4835    0.0000 H   0  0  0  0  0  0  0  0  0  0  0  0
   -2.2733   -3.3085    0.0000 H   0  0  0  0  0  0  0  0  0  0  0  0
   -1.1087   -4.8006    0.0000 H   0  0  0  0  0  0  0  0  0  0  0  0
   -0.3694   -4.9185    0.0000 H   0  0  0  0  0  0  0  0  0  0  0  0
    0.0446   -3.6493    0.0000 H   0  0  0  0  0  0  0  0  0  0  0  0
   -3.0355   -3.8178    0.0000 H   0  0  0  0  0  0  0  0  0  0  0  0
   -2.8567   -4.7169    0.0000 H   0  0  0  0  0  0  0  0  0  0  0  0
   -1.9576   -4.8957    0.0000 H   0  0  0  0  0  0  0  0  0  0  0  0
   -4.0042   -6.3066    0.0000 H   0  0  0  0  0  0  0  0  0  0  0  0
   -4.3062   -7.4335    0.0000 H   0  0  0  0  0  0  0  0  0  0  0  0
   -3.1792   -7.7355    0.0000 H   0  0  0  0  0  0  0  0  0  0  0  0
   -2.4718   -5.7864    0.0000 H   0  0  0  0  0  0  0  0  0  0  0  0
   -3.0762   -5.0972    0.0000 H   0  0  0  0  0  0  0  0  0  0  0  0
   -3.9443   -5.3918    0.0000 H   0  0  0  0  0  0  0  0  0  0  0  0
   -2.3571   -8.1409    0.0000 H   0  0  0  0  0  0  0  0  0  0  0  0
   -1.6678   -7.5365    0.0000 H   0  0  0  0  0  0  0  0  0  0  0  0
   -1.9625   -6.6685    0.0000 H   0  0  0  0  0  0  0  0  0  0  0  0
    2.8815   -3.2229    0.0000 H   0  0  0  0  0  0  0  0  0  0  0  0
    3.1405   -5.2605    0.0000 H   0  0  0  0  0  0  0  0  0  0  0  0
    4.2675   -4.9585    0.0000 H   0  0  0  0  0  0  0  0  0  0  0  0
    3.9655   -3.8316    0.0000 H   0  0  0  0  0  0  0  0  0  0  0  0
    4.0460   -3.1984    0.0000 H   0  0  0  0  0  0  0  0  0  0  0  0
    3.6507   -2.6973    0.0000 H   0  0  0  0  0  0  0  0  0  0  0  0
    3.0163   -2.6282    0.0000 H   0  0  0  0  0  0  0  0  0  0  0  0
    1.8957   -4.2160    0.0000 H   0  0  0  0  0  0  0  0  0  0  0  0
    1.6136   -4.7047    0.0000 H   0  0  0  0  0  0  0  0  0  0  0  0
    2.6396   -5.6449    0.0000 H   0  0  0  0  0  0  0  0  0  0  0  0
  1  2  1  0  0  0  0
  2  3  1  0  0  0  0
  2  4  1  0  0  0  0
  2  5  1  0  0  0  0
  5  6  4  0  0  0  0
  6  7  4  0  0  0  0
  7  8  4  0  0  0  0
  8  9  1  0  0  0  0
  9 10  1  0  0  0  0
 10 11  1  0  0  0  0
 11 12  1  0  0  0  0
 12 13  4  0  0  0  0
 13 14  4  0  0  0  0
 14 15  4  0  0  0  0
 15 16  4  0  0  0  0
 16 17  4  0  0  0  0
 12 17  4  0  0  0  0
 17 18  1  0  0  0  0
 18 19  1  0  0  0  0
 18 20  1  0  0  0  0
 18 21  1  0  0  0  0
 15 22  1  0  0  0  0
 22 23  1  0  0  0  0
 22 24  1  0  0  0  0
 22 25  1  0  0  0  0
 10 26  1  0  0  0  0
 26 27  1  0  0  0  0
 27 28  4  0  0  0  0
 28 29  4  0  0  0  0
 29 30  4  0  0  0  0
 30 31  4  0  0  0  0
 31 32  4  0  0  0  0
 27 32  4  0  0  0  0
 32 33  1  0  0  0  0
 33 34  1  0  0  0  0
 33 35  1  0  0  0  0
 33 36  1  0  0  0  0
 30 37  1  0  0  0  0
 37 38  1  0  0  0  0
 37 39  1  0  0  0  0
 37 40  1  0  0  0  0
  8 41  4  0  0  0  0
 41 42  4  0  0  0  0
  5 42  4  0  0  0  0
 41 43  1  0  0  0  0
 43 44  1  0  0  0  0
 43 45  1  0  0  0  0
 43 46  1  0  0  0  0
  1 47  1  0  0  0  0
  1 48  1  0  0  0  0
  1 49  1  0  0  0  0
  3 50  1  0  0  0  0
  3 51  1  0  0  0  0
  3 52  1  0  0  0  0
  4 53  1  0  0  0  0
  4 54  1  0  0  0  0
  4 55  1  0  0  0  0
  6 56  1  0  0  0  0
  7 57  1  0  0  0  0
 13 58  1  0  0  0  0
 14 59  1  0  0  0  0
 16 60  1  0  0  0  0
 19 61  1  0  0  0  0
 19 62  1  0  0  0  0
 19 63  1  0  0  0  0
 20 64  1  0  0  0  0
 20 65  1  0  0  0  0
 20 66  1  0  0  0  0
 21 67  1  0  0  0  0
 21 68  1  0  0  0  0
 21 69  1  0  0  0  0
 23 70  1  0  0  0  0
 23 71  1  0  0  0  0
 23 72  1  0  0  0  0
 24 73  1  0  0  0  0
 24 74  1  0  0  0  0
 24 75  1  0  0  0  0
 25 76  1  0  0  0  0
 25 77  1  0  0  0  0
 25 78  1  0  0  0  0
 28 79  1  0  0  0  0
 29 80  1  0  0  0  0
 31 81  1  0  0  0  0
 34 82  1  0  0  0  0
 34 83  1  0  0  0  0
 34 84  1  0  0  0  0
 35 85  1  0  0  0  0
 35 86  1  0  0  0  0
 35 87  1  0  0  0  0
 36 88  1  0  0  0  0
 36 89  1  0  0  0  0
 36 90  1  0  0  0  0
 38 91  1  0  0  0  0
 38 92  1  0  0  0  0
 38 93  1  0  0  0  0
 39 94  1  0  0  0  0
 39 95  1  0  0  0  0
 39 96  1  0  0  0  0
 40 97  1  0  0  0  0
 40 98  1  0  0  0  0
 40 99  1  0  0  0  0
 42100  1  0  0  0  0
 44101  1  0  0  0  0
 44102  1  0  0  0  0
 44103  1  0  0  0  0
 45104  1  0  0  0  0
 45105  1  0  0  0  0
 45106  1  0  0  0  0
 46107  1  0  0  0  0
 46108  1  0  0  0  0
 46109  1  0  0  0  0
M  END
>  <InChIKey>
JKIJEFPNVSHHEI-UHFFFAOYSA-N

>  <UN GHS>
Non-irritant

>  <CASRN>
31570-04-4

> <Outcome>
0

>  <Index>
344

>  <StandardizerResult>
Dearomatize (ID: Dearomatize)
Clear Stereo (ID: ClearStereo)
Wedge Clean (ID: WedgeClean)
Mesomerize (ID: Mesomerize)
Tautomerize (ID: Tautomerize)
Aromatize (ID: Aromatize)
Add Explicit Hydrogens (ID: AddExplicitH)
Neutralize (ID: Neutralize)
Clean 2D (ID: Clean2D)

> <knn Distance>
3.46410155296326

> <CpId>
344

$$$$
348
  Mrv1532301301811342D          

 57 56  0  0  0  0            999 V2000
   -5.0421    3.3770    0.0000 S   0  0  0  0  0  0  0  0  0  0  0  0
   -4.2171    3.3770    0.0000 C   0  0  0  0  0  0  0  0  0  0  0  0
   -3.8046    2.6626    0.0000 C   0  0  0  0  0  0  0  0  0  0  0  0
   -2.9796    2.6626    0.0000 C   0  0  0  0  0  0  0  0  0  0  0  0
   -2.5671    3.3770    0.0000 O   0  0  0  0  0  0  0  0  0  0  0  0
   -2.5671    1.9481    0.0000 O   0  0  0  0  0  0  0  0  0  0  0  0
   -1.7421    1.9481    0.0000 C   0  0  0  0  0  0  0  0  0  0  0  0
   -1.3296    1.2336    0.0000 C   0  0  0  0  0  0  0  0  0  0  0  0
   -0.9171    0.5192    0.0000 C   0  0  0  0  0  0  0  0  0  0  0  0
   -1.3296   -0.1953    0.0000 O   0  0  0  0  0  0  0  0  0  0  0  0
   -0.9171   -0.9098    0.0000 C   0  0  0  0  0  0  0  0  0  0  0  0
   -1.3296   -1.6243    0.0000 O   0  0  0  0  0  0  0  0  0  0  0  0
   -0.0921   -0.9098    0.0000 C   0  0  0  0  0  0  0  0  0  0  0  0
    0.3204   -1.6243    0.0000 C   0  0  0  0  0  0  0  0  0  0  0  0
    1.1454   -1.6243    0.0000 S   0  0  0  0  0  0  0  0  0  0  0  0
   -2.0441    0.8211    0.0000 C   0  0  0  0  0  0  0  0  0  0  0  0
   -2.0441   -0.0039    0.0000 O   0  0  0  0  0  0  0  0  0  0  0  0
   -2.7586   -0.4164    0.0000 C   0  0  0  0  0  0  0  0  0  0  0  0
   -3.4730   -0.0039    0.0000 O   0  0  0  0  0  0  0  0  0  0  0  0
   -2.7586   -1.2414    0.0000 C   0  0  0  0  0  0  0  0  0  0  0  0
   -2.0441   -1.6539    0.0000 C   0  0  0  0  0  0  0  0  0  0  0  0
   -2.0441   -2.4789    0.0000 S   0  0  0  0  0  0  0  0  0  0  0  0
   -0.6152    1.6461    0.0000 C   0  0  0  0  0  0  0  0  0  0  0  0
    0.0993    1.2336    0.0000 O   0  0  0  0  0  0  0  0  0  0  0  0
    0.0993    0.4086    0.0000 C   0  0  0  0  0  0  0  0  0  0  0  0
   -0.6152   -0.0039    0.0000 O   0  0  0  0  0  0  0  0  0  0  0  0
    0.8138   -0.0039    0.0000 C   0  0  0  0  0  0  0  0  0  0  0  0
    1.5283    0.4086    0.0000 C   0  0  0  0  0  0  0  0  0  0  0  0
    2.2427   -0.0039    0.0000 S   0  0  0  0  0  0  0  0  0  0  0  0
   -5.4546    4.0915    0.0000 H   0  0  0  0  0  0  0  0  0  0  0  0
   -3.5278    3.8304    0.0000 H   0  0  0  0  0  0  0  0  0  0  0  0
   -4.1692    4.2006    0.0000 H   0  0  0  0  0  0  0  0  0  0  0  0
   -4.4939    2.2092    0.0000 H   0  0  0  0  0  0  0  0  0  0  0  0
   -3.8526    1.8390    0.0000 H   0  0  0  0  0  0  0  0  0  0  0  0
   -1.0528    2.4014    0.0000 H   0  0  0  0  0  0  0  0  0  0  0  0
   -1.6942    2.7717    0.0000 H   0  0  0  0  0  0  0  0  0  0  0  0
   -0.1047    0.6624    0.0000 H   0  0  0  0  0  0  0  0  0  0  0  0
   -0.3868    1.1511    0.0000 H   0  0  0  0  0  0  0  0  0  0  0  0
    0.5972   -0.4564    0.0000 H   0  0  0  0  0  0  0  0  0  0  0  0
   -0.0442   -0.0862    0.0000 H   0  0  0  0  0  0  0  0  0  0  0  0
   -0.3689   -2.0776    0.0000 H   0  0  0  0  0  0  0  0  0  0  0  0
    0.2724   -2.4479    0.0000 H   0  0  0  0  0  0  0  0  0  0  0  0
    1.5579   -2.3387    0.0000 H   0  0  0  0  0  0  0  0  0  0  0  0
   -2.4974    1.5104    0.0000 H   0  0  0  0  0  0  0  0  0  0  0  0
   -2.8677    0.8691    0.0000 H   0  0  0  0  0  0  0  0  0  0  0  0
   -3.5822   -1.2893    0.0000 H   0  0  0  0  0  0  0  0  0  0  0  0
   -3.2119   -1.9307    0.0000 H   0  0  0  0  0  0  0  0  0  0  0  0
   -1.8471   -0.8527    0.0000 H   0  0  0  0  0  0  0  0  0  0  0  0
   -2.7586   -2.0664    0.0000 H   0  0  0  0  0  0  0  0  0  0  0  0
   -1.6316   -3.1933    0.0000 H   0  0  0  0  0  0  0  0  0  0  0  0
    0.1599    1.9287    0.0000 H   0  0  0  0  0  0  0  0  0  0  0  0
   -0.3338    2.4217    0.0000 H   0  0  0  0  0  0  0  0  0  0  0  0
    1.4192   -0.5643    0.0000 H   0  0  0  0  0  0  0  0  0  0  0  0
    0.8138    0.8211    0.0000 H   0  0  0  0  0  0  0  0  0  0  0  0
    2.1602    0.9389    0.0000 H   0  0  0  0  0  0  0  0  0  0  0  0
    1.6715    1.2211    0.0000 H   0  0  0  0  0  0  0  0  0  0  0  0
    2.6860   -0.6997    0.0000 H   0  0  0  0  0  0  0  0  0  0  0  0
  1  2  1  0  0  0  0
  2  3  1  0  0  0  0
  3  4  1  0  0  0  0
  4  5  2  0  0  0  0
  4  6  1  0  0  0  0
  6  7  1  0  0  0  0
  7  8  1  0  0  0  0
  8  9  1  0  0  0  0
  9 10  1  0  0  0  0
 10 11  1  0  0  0  0
 11 12  2  0  0  0  0
 11 13  1  0  0  0  0
 13 14  1  0  0  0  0
 14 15  1  0  0  0  0
  8 16  1  0  0  0  0
 16 17  1  0  0  0  0
 17 18  1  0  0  0  0
 18 19  2  0  0  0  0
 18 20  1  0  0  0  0
 20 21  1  0  0  0  0
 21 22  1  0  0  0  0
  8 23  1  0  0  0  0
 23 24  1  0  0  0  0
 24 25  1  0  0  0  0
 25 26  2  0  0  0  0
 25 27  1  0  0  0  0
 27 28  1  0  0  0  0
 28 29  1  0  0  0  0
  1 30  1  0  0  0  0
  2 31  1  0  0  0  0
  2 32  1  0  0  0  0
  3 33  1  0  0  0  0
  3 34  1  0  0  0  0
  7 35  1  0  0  0  0
  7 36  1  0  0  0  0
  9 37  1  0  0  0  0
  9 38  1  0  0  0  0
 13 39  1  0  0  0  0
 13 40  1  0  0  0  0
 14 41  1  0  0  0  0
 14 42  1  0  0  0  0
 15 43  1  0  0  0  0
 16 44  1  0  0  0  0
 16 45  1  0  0  0  0
 20 46  1  0  0  0  0
 20 47  1  0  0  0  0
 21 48  1  0  0  0  0
 21 49  1  0  0  0  0
 22 50  1  0  0  0  0
 23 51  1  0  0  0  0
 23 52  1  0  0  0  0
 27 53  1  0  0  0  0
 27 54  1  0  0  0  0
 28 55  1  0  0  0  0
 28 56  1  0  0  0  0
 29 57  1  0  0  0  0
M  END
>  <InChIKey>
JOBBTVPTPXRUBP-UHFFFAOYSA-N

>  <UN GHS>
Non-irritant

>  <CASRN>
7575-23-7

> <Outcome>
0

>  <Index>
348

>  <StandardizerResult>
Clear Stereo (ID: ClearStereo)
Wedge Clean (ID: WedgeClean)
Mesomerize (ID: Mesomerize)
Tautomerize (ID: Tautomerize)
Add Explicit Hydrogens (ID: AddExplicitH)
Neutralize (ID: Neutralize)
Clean 2D (ID: Clean2D)

> <knn Distance>
3.46410155296326

> <CpId>
348

$$$$
351
  Mrv1532301301811342D          

 19 19  0  0  0  0            999 V2000
    0.7145    2.0625    0.0000 C   0  0  0  0  0  0  0  0  0  0  0  0
    0.7145    1.2375    0.0000 C   0  0  0  0  0  0  0  0  0  0  0  0
    1.4290    0.8250    0.0000 C   0  0  0  0  0  0  0  0  0  0  0  0
    1.4290   -0.0000    0.0000 C   0  0  0  0  0  0  0  0  0  0  0  0
    0.7145   -0.4125    0.0000 C   0  0  0  0  0  0  0  0  0  0  0  0
    0.0000    0.0000    0.0000 C   0  0  0  0  0  0  0  0  0  0  0  0
    0.0000    0.8250    0.0000 C   0  0  0  0  0  0  0  0  0  0  0  0
    0.7145   -1.2375    0.0000 S   0  0  0  0  0  0  0  0  0  0  0  0
    0.7145   -2.0625    0.0000 O   0  0  0  0  0  0  0  0  0  0  0  0
   -0.1105   -1.2375    0.0000 O   0  0  0  0  0  0  0  0  0  0  0  0
    1.5395   -1.2375    0.0000 O   0  0  0  0  0  0  0  0  0  0  0  0
    1.5395    2.0625    0.0000 H   0  0  0  0  0  0  0  0  0  0  0  0
    0.7145    2.8875    0.0000 H   0  0  0  0  0  0  0  0  0  0  0  0
   -0.1105    2.0625    0.0000 H   0  0  0  0  0  0  0  0  0  0  0  0
    2.1434    1.2375    0.0000 H   0  0  0  0  0  0  0  0  0  0  0  0
    2.1434   -0.4125    0.0000 H   0  0  0  0  0  0  0  0  0  0  0  0
   -0.7145   -0.4125    0.0000 H   0  0  0  0  0  0  0  0  0  0  0  0
   -0.7145    1.2375    0.0000 H   0  0  0  0  0  0  0  0  0  0  0  0
    0.0000   -2.4750    0.0000 H   0  0  0  0  0  0  0  0  0  0  0  0
  1  2  1  0  0  0  0
  2  3  4  0  0  0  0
  3  4  4  0  0  0  0
  4  5  4  0  0  0  0
  5  6  4  0  0  0  0
  6  7  4  0  0  0  0
  2  7  4  0  0  0  0
  5  8  1  0  0  0  0
  8  9  1  0  0  0  0
  8 10  2  0  0  0  0
  8 11  2  0  0  0  0
  1 12  1  0  0  0  0
  1 13  1  0  0  0  0
  1 14  1  0  0  0  0
  3 15  1  0  0  0  0
  4 16  1  0  0  0  0
  6 17  1  0  0  0  0
  7 18  1  0  0  0  0
  9 19  1  0  0  0  0
M  END
>  <InChIKey>
JOXIMZWYDAKGHI-UHFFFAOYSA-M

>  <UN GHS>
Non-irritant

>  <CASRN>
657-84-1

> <Outcome>
0

>  <Index>
351

>  <StandardizerResult>
Dearomatize (ID: Dearomatize)
Clear Stereo (ID: ClearStereo)
Wedge Clean (ID: WedgeClean)
Mesomerize (ID: Mesomerize)
Tautomerize (ID: Tautomerize)
Aromatize (ID: Aromatize)
Add Explicit Hydrogens (ID: AddExplicitH)
Neutralize (ID: Neutralize)
Clean 2D (ID: Clean2D)

> <knn Distance>
3.46410155296326

> <CpId>
351

$$$$
359
  Mrv1532301301811342D          

 76 75  0  0  0  0            999 V2000
   -6.6761   -5.7438    0.0000 C   0  0  0  0  0  0  0  0  0  0  0  0
   -6.2636   -5.0293    0.0000 C   0  0  0  0  0  0  0  0  0  0  0  0
   -5.4386   -5.0293    0.0000 C   0  0  0  0  0  0  0  0  0  0  0  0
   -5.0261   -4.3148    0.0000 C   0  0  0  0  0  0  0  0  0  0  0  0
   -4.2011   -4.3148    0.0000 C   0  0  0  0  0  0  0  0  0  0  0  0
   -3.7886   -5.0293    0.0000 C   0  0  0  0  0  0  0  0  0  0  0  0
   -2.9636   -5.0293    0.0000 C   0  0  0  0  0  0  0  0  0  0  0  0
   -3.7886   -3.6004    0.0000 C   0  0  0  0  0  0  0  0  0  0  0  0
   -4.2011   -2.8859    0.0000 O   0  0  0  0  0  0  0  0  0  0  0  0
   -2.9636   -3.6004    0.0000 O   0  0  0  0  0  0  0  0  0  0  0  0
   -2.5511   -2.8859    0.0000 O   0  0  0  0  0  0  0  0  0  0  0  0
   -1.7261   -2.8859    0.0000 C   0  0  0  0  0  0  0  0  0  0  0  0
   -1.7261   -3.7109    0.0000 C   0  0  0  0  0  0  0  0  0  0  0  0
   -1.7261   -2.0609    0.0000 C   0  0  0  0  0  0  0  0  0  0  0  0
   -0.9011   -2.8859    0.0000 C   0  0  0  0  0  0  0  0  0  0  0  0
   -0.4886   -2.1714    0.0000 C   0  0  0  0  0  0  0  0  0  0  0  0
    0.3364   -2.1714    0.0000 C   0  0  0  0  0  0  0  0  0  0  0  0
    0.3364   -2.9964    0.0000 C   0  0  0  0  0  0  0  0  0  0  0  0
    0.3364   -1.3464    0.0000 C   0  0  0  0  0  0  0  0  0  0  0  0
    1.1614   -2.1714    0.0000 O   0  0  0  0  0  0  0  0  0  0  0  0
    1.5739   -1.4569    0.0000 O   0  0  0  0  0  0  0  0  0  0  0  0
    2.3989   -1.4569    0.0000 C   0  0  0  0  0  0  0  0  0  0  0  0
    2.8114   -2.1714    0.0000 O   0  0  0  0  0  0  0  0  0  0  0  0
    2.8114   -0.7425    0.0000 C   0  0  0  0  0  0  0  0  0  0  0  0
    2.3989   -0.0280    0.0000 C   0  0  0  0  0  0  0  0  0  0  0  0
    2.8114    0.6865    0.0000 C   0  0  0  0  0  0  0  0  0  0  0  0
    3.6364   -0.7425    0.0000 C   0  0  0  0  0  0  0  0  0  0  0  0
    4.0489   -0.0280    0.0000 C   0  0  0  0  0  0  0  0  0  0  0  0
    4.8739   -0.0280    0.0000 C   0  0  0  0  0  0  0  0  0  0  0  0
    5.2864    0.6865    0.0000 C   0  0  0  0  0  0  0  0  0  0  0  0
   -7.3905   -5.3313    0.0000 H   0  0  0  0  0  0  0  0  0  0  0  0
   -7.0886   -6.4582    0.0000 H   0  0  0  0  0  0  0  0  0  0  0  0
   -5.9616   -6.1563    0.0000 H   0  0  0  0  0  0  0  0  0  0  0  0
   -6.3115   -4.2057    0.0000 H   0  0  0  0  0  0  0  0  0  0  0  0
   -6.9528   -4.5759    0.0000 H   0  0  0  0  0  0  0  0  0  0  0  0
   -5.3906   -5.8529    0.0000 H   0  0  0  0  0  0  0  0  0  0  0  0
   -4.7493   -5.4826    0.0000 H   0  0  0  0  0  0  0  0  0  0  0  0
   -5.0740   -3.4912    0.0000 H   0  0  0  0  0  0  0  0  0  0  0  0
   -5.7153   -3.8615    0.0000 H   0  0  0  0  0  0  0  0  0  0  0  0
   -4.6136   -5.0293    0.0000 H   0  0  0  0  0  0  0  0  0  0  0  0
   -4.0707   -5.8045    0.0000 H   0  0  0  0  0  0  0  0  0  0  0  0
   -3.5064   -5.8045    0.0000 H   0  0  0  0  0  0  0  0  0  0  0  0
   -2.4196   -5.6496    0.0000 H   0  0  0  0  0  0  0  0  0  0  0  0
   -2.2318   -4.6484    0.0000 H   0  0  0  0  0  0  0  0  0  0  0  0
   -3.1596   -4.2279    0.0000 H   0  0  0  0  0  0  0  0  0  0  0  0
   -2.5511   -3.7109    0.0000 H   0  0  0  0  0  0  0  0  0  0  0  0
   -1.7261   -4.5359    0.0000 H   0  0  0  0  0  0  0  0  0  0  0  0
   -0.9011   -3.7109    0.0000 H   0  0  0  0  0  0  0  0  0  0  0  0
   -0.9011   -2.0609    0.0000 H   0  0  0  0  0  0  0  0  0  0  0  0
   -1.7261   -1.2359    0.0000 H   0  0  0  0  0  0  0  0  0  0  0  0
   -2.5511   -2.0609    0.0000 H   0  0  0  0  0  0  0  0  0  0  0  0
   -0.2691   -3.4162    0.0000 H   0  0  0  0  0  0  0  0  0  0  0  0
   -0.0886   -2.7426    0.0000 H   0  0  0  0  0  0  0  0  0  0  0  0
   -0.0154   -1.4956    0.0000 H   0  0  0  0  0  0  0  0  0  0  0  0
   -0.7707   -1.3962    0.0000 H   0  0  0  0  0  0  0  0  0  0  0  0
    0.3875   -3.8198    0.0000 H   0  0  0  0  0  0  0  0  0  0  0  0
    1.0673   -3.3791    0.0000 H   0  0  0  0  0  0  0  0  0  0  0  0
    1.0422   -2.5692    0.0000 H   0  0  0  0  0  0  0  0  0  0  0  0
    1.1264   -1.5842    0.0000 H   0  0  0  0  0  0  0  0  0  0  0  0
    0.7919   -0.6585    0.0000 H   0  0  0  0  0  0  0  0  0  0  0  0
   -0.1909   -0.7120    0.0000 H   0  0  0  0  0  0  0  0  0  0  0  0
    1.9864   -0.7425    0.0000 H   0  0  0  0  0  0  0  0  0  0  0  0
    1.8686    0.6040    0.0000 H   0  0  0  0  0  0  0  0  0  0  0  0
    1.5865    0.1153    0.0000 H   0  0  0  0  0  0  0  0  0  0  0  0
    3.4074    0.1160    0.0000 H   0  0  0  0  0  0  0  0  0  0  0  0
    3.5072    1.1297    0.0000 H   0  0  0  0  0  0  0  0  0  0  0  0
    2.5463    1.4677    0.0000 H   0  0  0  0  0  0  0  0  0  0  0  0
    3.6844   -1.5661    0.0000 H   0  0  0  0  0  0  0  0  0  0  0  0
    4.3257   -1.1958    0.0000 H   0  0  0  0  0  0  0  0  0  0  0  0
    4.1398    0.7920    0.0000 H   0  0  0  0  0  0  0  0  0  0  0  0
    4.4614   -0.7425    0.0000 H   0  0  0  0  0  0  0  0  0  0  0  0
    5.4042   -0.6600    0.0000 H   0  0  0  0  0  0  0  0  0  0  0  0
    5.6864   -0.1713    0.0000 H   0  0  0  0  0  0  0  0  0  0  0  0
    6.0956    0.8474    0.0000 H   0  0  0  0  0  0  0  0  0  0  0  0
    5.3224    1.5107    0.0000 H   0  0  0  0  0  0  0  0  0  0  0  0
    4.4944    0.9173    0.0000 H   0  0  0  0  0  0  0  0  0  0  0  0
  1  2  1  0  0  0  0
  2  3  1  0  0  0  0
  3  4  1  0  0  0  0
  4  5  1  0  0  0  0
  5  6  1  0  0  0  0
  6  7  1  0  0  0  0
  5  8  1  0  0  0  0
  8  9  2  0  0  0  0
  8 10  1  0  0  0  0
 10 11  1  0  0  0  0
 11 12  1  0  0  0  0
 12 13  1  0  0  0  0
 12 14  1  0  0  0  0
 12 15  1  0  0  0  0
 15 16  1  0  0  0  0
 16 17  1  0  0  0  0
 17 18  1  0  0  0  0
 17 19  1  0  0  0  0
 17 20  1  0  0  0  0
 20 21  1  0  0  0  0
 21 22  1  0  0  0  0
 22 23  2  0  0  0  0
 22 24  1  0  0  0  0
 24 25  1  0  0  0  0
 25 26  1  0  0  0  0
 24 27  1  0  0  0  0
 27 28  1  0  0  0  0
 28 29  1  0  0  0  0
 29 30  1  0  0  0  0
  1 31  1  0  0  0  0
  1 32  1  0  0  0  0
  1 33  1  0  0  0  0
  2 34  1  0  0  0  0
  2 35  1  0  0  0  0
  3 36  1  0  0  0  0
  3 37  1  0  0  0  0
  4 38  1  0  0  0  0
  4 39  1  0  0  0  0
  5 40  1  0  0  0  0
  6 41  1  0  0  0  0
  6 42  1  0  0  0  0
  7 43  1  0  0  0  0
  7 44  1  0  0  0  0
  7 45  1  0  0  0  0
 13 46  1  0  0  0  0
 13 47  1  0  0  0  0
 13 48  1  0  0  0  0
 14 49  1  0  0  0  0
 14 50  1  0  0  0  0
 14 51  1  0  0  0  0
 15 52  1  0  0  0  0
 15 53  1  0  0  0  0
 16 54  1  0  0  0  0
 16 55  1  0  0  0  0
 18 56  1  0  0  0  0
 18 57  1  0  0  0  0
 18 58  1  0  0  0  0
 19 59  1  0  0  0  0
 19 60  1  0  0  0  0
 19 61  1  0  0  0  0
 24 62  1  0  0  0  0
 25 63  1  0  0  0  0
 25 64  1  0  0  0  0
 26 65  1  0  0  0  0
 26 66  1  0  0  0  0
 26 67  1  0  0  0  0
 27 68  1  0  0  0  0
 27 69  1  0  0  0  0
 28 70  1  0  0  0  0
 28 71  1  0  0  0  0
 29 72  1  0  0  0  0
 29 73  1  0  0  0  0
 30 74  1  0  0  0  0
 30 75  1  0  0  0  0
 30 76  1  0  0  0  0
M  END
>  <InChIKey>
JUIBLDFFVYKUAC-UHFFFAOYSA-N

>  <UN GHS>
Non-irritant

>  <CASRN>
13052-09-0

> <Outcome>
0

>  <Index>
359

>  <StandardizerResult>
Clear Stereo (ID: ClearStereo)
Wedge Clean (ID: WedgeClean)
Mesomerize (ID: Mesomerize)
Tautomerize (ID: Tautomerize)
Add Explicit Hydrogens (ID: AddExplicitH)
Neutralize (ID: Neutralize)
Clean 2D (ID: Clean2D)

> <knn Distance>
3.46410155296326

> <CpId>
359

$$$$
393
  Mrv1532301301811342D          

 40 41  0  0  0  0            999 V2000
   -0.0460   -1.6401    0.0000 C   0  0  0  0  0  0  0  0  0  0  0  0
    0.6685   -1.2276    0.0000 C   0  0  0  0  0  0  0  0  0  0  0  0
    1.3829   -1.6401    0.0000 C   0  0  0  0  0  0  0  0  0  0  0  0
    1.3829   -2.4651    0.0000 C   0  0  0  0  0  0  0  0  0  0  0  0
    2.0504   -2.9500    0.0000 C   0  0  0  0  0  0  0  0  0  0  0  0
    1.7954   -3.7346    0.0000 C   0  0  0  0  0  0  0  0  0  0  0  0
    0.9704   -3.7346    0.0000 C   0  0  0  0  0  0  0  0  0  0  0  0
    0.7155   -2.9500    0.0000 C   0  0  0  0  0  0  0  0  0  0  0  0
   -0.0691   -2.6951    0.0000 O   0  0  0  0  0  0  0  0  0  0  0  0
    0.6685   -0.4026    0.0000 C   0  0  0  0  0  0  0  0  0  0  0  0
   -0.0460    0.0099    0.0000 C   0  0  0  0  0  0  0  0  0  0  0  0
   -0.0460    0.8349    0.0000 C   0  0  0  0  0  0  0  0  0  0  0  0
    0.6685    1.2474    0.0000 C   0  0  0  0  0  0  0  0  0  0  0  0
    0.6685    2.0724    0.0000 C   0  0  0  0  0  0  0  0  0  0  0  0
    1.3829    0.8349    0.0000 C   0  0  0  0  0  0  0  0  0  0  0  0
    1.3829    0.0099    0.0000 C   0  0  0  0  0  0  0  0  0  0  0  0
   -0.4585   -0.9256    0.0000 H   0  0  0  0  0  0  0  0  0  0  0  0
   -0.7605   -2.0526    0.0000 H   0  0  0  0  0  0  0  0  0  0  0  0
    0.3665   -2.3546    0.0000 H   0  0  0  0  0  0  0  0  0  0  0  0
    0.6685   -2.0526    0.0000 H   0  0  0  0  0  0  0  0  0  0  0  0
    2.2065   -1.5921    0.0000 H   0  0  0  0  0  0  0  0  0  0  0  0
    1.8363   -0.9508    0.0000 H   0  0  0  0  0  0  0  0  0  0  0  0
    2.1180   -2.0906    0.0000 H   0  0  0  0  0  0  0  0  0  0  0  0
    2.7442   -3.3963    0.0000 H   0  0  0  0  0  0  0  0  0  0  0  0
    2.8622   -2.8032    0.0000 H   0  0  0  0  0  0  0  0  0  0  0  0
    1.9103   -4.5516    0.0000 H   0  0  0  0  0  0  0  0  0  0  0  0
    2.5369   -4.0963    0.0000 H   0  0  0  0  0  0  0  0  0  0  0  0
    0.2289   -4.0963    0.0000 H   0  0  0  0  0  0  0  0  0  0  0  0
    0.8556   -4.5516    0.0000 H   0  0  0  0  0  0  0  0  0  0  0  0
    1.3829   -0.8151    0.0000 H   0  0  0  0  0  0  0  0  0  0  0  0
   -0.8696   -0.0381    0.0000 H   0  0  0  0  0  0  0  0  0  0  0  0
   -0.4994   -0.6794    0.0000 H   0  0  0  0  0  0  0  0  0  0  0  0
   -0.4994    1.5242    0.0000 H   0  0  0  0  0  0  0  0  0  0  0  0
   -0.8696    0.8829    0.0000 H   0  0  0  0  0  0  0  0  0  0  0  0
    1.4935    2.0724    0.0000 H   0  0  0  0  0  0  0  0  0  0  0  0
    0.6685    2.8974    0.0000 H   0  0  0  0  0  0  0  0  0  0  0  0
   -0.1565    2.0724    0.0000 H   0  0  0  0  0  0  0  0  0  0  0  0
    2.0974    1.2474    0.0000 H   0  0  0  0  0  0  0  0  0  0  0  0
    2.1582   -0.2723    0.0000 H   0  0  0  0  0  0  0  0  0  0  0  0
    2.1582    0.2921    0.0000 H   0  0  0  0  0  0  0  0  0  0  0  0
  1  2  1  0  0  0  0
  2  3  1  0  0  0  0
  3  4  1  0  0  0  0
  4  5  1  0  0  0  0
  5  6  1  0  0  0  0
  6  7  1  0  0  0  0
  7  8  1  0  0  0  0
  4  8  1  0  0  0  0
  8  9  2  0  0  0  0
  2 10  1  0  0  0  0
 10 11  1  0  0  0  0
 11 12  1  0  0  0  0
 12 13  1  0  0  0  0
 13 14  1  0  0  0  0
 13 15  2  0  0  0  0
 15 16  1  0  0  0  0
 10 16  1  0  0  0  0
  1 17  1  0  0  0  0
  1 18  1  0  0  0  0
  1 19  1  0  0  0  0
  2 20  1  0  0  0  0
  3 21  1  0  0  0  0
  3 22  1  0  0  0  0
  4 23  1  0  0  0  0
  5 24  1  0  0  0  0
  5 25  1  0  0  0  0
  6 26  1  0  0  0  0
  6 27  1  0  0  0  0
  7 28  1  0  0  0  0
  7 29  1  0  0  0  0
 10 30  1  0  0  0  0
 11 31  1  0  0  0  0
 11 32  1  0  0  0  0
 12 33  1  0  0  0  0
 12 34  1  0  0  0  0
 14 35  1  0  0  0  0
 14 36  1  0  0  0  0
 14 37  1  0  0  0  0
 15 38  1  0  0  0  0
 16 39  1  0  0  0  0
 16 40  1  0  0  0  0
M  END
>  <InChIKey>
KNHGOYVXAHUDHP-UHFFFAOYSA-N

>  <UN GHS>
Non-irritant

>  <CASRN>
95962-14-4

> <Outcome>
0

>  <Index>
393

>  <StandardizerResult>
Clear Stereo (ID: ClearStereo)
Wedge Clean (ID: WedgeClean)
Mesomerize (ID: Mesomerize)
Tautomerize (ID: Tautomerize)
Add Explicit Hydrogens (ID: AddExplicitH)
Neutralize (ID: Neutralize)
Clean 2D (ID: Clean2D)

> <knn Distance>
3.46410155296326

> <CpId>
393

$$$$
424
  Mrv1532301301811342D          

131130  0  0  0  0            999 V2000
   23.9946   14.7047    0.0000 C   0  0  0  0  0  0  0  0  0  0  0  0
   24.7091   14.2922    0.0000 C   0  0  0  0  0  0  0  0  0  0  0  0
   24.7091   13.4672    0.0000 C   0  0  0  0  0  0  0  0  0  0  0  0
   25.4236   14.7047    0.0000 C   0  0  0  0  0  0  0  0  0  0  0  0
   26.1380   14.2922    0.0000 C   0  0  0  0  0  0  0  0  0  0  0  0
   26.8525   14.7047    0.0000 C   0  0  0  0  0  0  0  0  0  0  0  0
   27.5670   14.2922    0.0000 C   0  0  0  0  0  0  0  0  0  0  0  0
   28.2815   14.7047    0.0000 C   0  0  0  0  0  0  0  0  0  0  0  0
   28.9959   14.2922    0.0000 C   0  0  0  0  0  0  0  0  0  0  0  0
   29.7104   14.7047    0.0000 C   0  0  0  0  0  0  0  0  0  0  0  0
   30.4249   14.2922    0.0000 C   0  0  0  0  0  0  0  0  0  0  0  0
   31.1393   14.7047    0.0000 C   0  0  0  0  0  0  0  0  0  0  0  0
   31.8538   14.2922    0.0000 C   0  0  0  0  0  0  0  0  0  0  0  0
   32.5683   14.7047    0.0000 C   0  0  0  0  0  0  0  0  0  0  0  0
   33.2828   14.2922    0.0000 C   0  0  0  0  0  0  0  0  0  0  0  0
   33.9972   14.7047    0.0000 C   0  0  0  0  0  0  0  0  0  0  0  0
   34.7117   14.2922    0.0000 C   0  0  0  0  0  0  0  0  0  0  0  0
   35.4262   14.7047    0.0000 C   0  0  0  0  0  0  0  0  0  0  0  0
   35.4262   15.5297    0.0000 O   0  0  0  0  0  0  0  0  0  0  0  0
   36.1406   14.2922    0.0000 O   0  0  0  0  0  0  0  0  0  0  0  0
   36.8551   14.7047    0.0000 C   0  0  0  0  0  0  0  0  0  0  0  0
   37.5696   14.2922    0.0000 C   0  0  0  0  0  0  0  0  0  0  0  0
   37.5696   13.4672    0.0000 O   0  0  0  0  0  0  0  0  0  0  0  0
   38.2840   14.7047    0.0000 C   0  0  0  0  0  0  0  0  0  0  0  0
   38.9985   14.2922    0.0000 O   0  0  0  0  0  0  0  0  0  0  0  0
   39.7130   14.7047    0.0000 C   0  0  0  0  0  0  0  0  0  0  0  0
   40.4275   14.2922    0.0000 C   0  0  0  0  0  0  0  0  0  0  0  0
   40.4275   13.4672    0.0000 O   0  0  0  0  0  0  0  0  0  0  0  0
   41.1419   14.7047    0.0000 C   0  0  0  0  0  0  0  0  0  0  0  0
   41.8564   14.2922    0.0000 O   0  0  0  0  0  0  0  0  0  0  0  0
   42.5709   14.7047    0.0000 C   0  0  0  0  0  0  0  0  0  0  0  0
   42.5709   15.5297    0.0000 O   0  0  0  0  0  0  0  0  0  0  0  0
   43.2853   14.2922    0.0000 C   0  0  0  0  0  0  0  0  0  0  0  0
   43.9998   14.7047    0.0000 C   0  0  0  0  0  0  0  0  0  0  0  0
   44.7143   14.2922    0.0000 C   0  0  0  0  0  0  0  0  0  0  0  0
   45.4288   14.7047    0.0000 C   0  0  0  0  0  0  0  0  0  0  0  0
   46.1432   14.2922    0.0000 C   0  0  0  0  0  0  0  0  0  0  0  0
   46.8577   14.7047    0.0000 C   0  0  0  0  0  0  0  0  0  0  0  0
   47.5722   14.2922    0.0000 C   0  0  0  0  0  0  0  0  0  0  0  0
   48.2866   14.7047    0.0000 C   0  0  0  0  0  0  0  0  0  0  0  0
   49.0011   14.2922    0.0000 C   0  0  0  0  0  0  0  0  0  0  0  0
   49.7156   14.7047    0.0000 C   0  0  0  0  0  0  0  0  0  0  0  0
   50.4301   14.2922    0.0000 C   0  0  0  0  0  0  0  0  0  0  0  0
   51.1445   14.7047    0.0000 C   0  0  0  0  0  0  0  0  0  0  0  0
   51.8590   14.2922    0.0000 C   0  0  0  0  0  0  0  0  0  0  0  0
   52.5735   14.7047    0.0000 C   0  0  0  0  0  0  0  0  0  0  0  0
   53.2879   14.2922    0.0000 C   0  0  0  0  0  0  0  0  0  0  0  0
   54.0024   14.7047    0.0000 C   0  0  0  0  0  0  0  0  0  0  0  0
   53.2879   13.4672    0.0000 C   0  0  0  0  0  0  0  0  0  0  0  0
   24.4071   15.4192    0.0000 H   0  0  0  0  0  0  0  0  0  0  0  0
   23.2802   15.1172    0.0000 H   0  0  0  0  0  0  0  0  0  0  0  0
   23.5821   13.9903    0.0000 H   0  0  0  0  0  0  0  0  0  0  0  0
   23.9946   13.8797    0.0000 H   0  0  0  0  0  0  0  0  0  0  0  0
   24.1257   12.8839    0.0000 H   0  0  0  0  0  0  0  0  0  0  0  0
   25.1216   12.7528    0.0000 H   0  0  0  0  0  0  0  0  0  0  0  0
   25.5060   13.6808    0.0000 H   0  0  0  0  0  0  0  0  0  0  0  0
   25.7938   15.4420    0.0000 H   0  0  0  0  0  0  0  0  0  0  0  0
   25.0533   15.4420    0.0000 H   0  0  0  0  0  0  0  0  0  0  0  0
   26.6348   13.6336    0.0000 H   0  0  0  0  0  0  0  0  0  0  0  0
   26.1380   15.1172    0.0000 H   0  0  0  0  0  0  0  0  0  0  0  0
   27.4845   15.2350    0.0000 H   0  0  0  0  0  0  0  0  0  0  0  0
   26.9958   15.5172    0.0000 H   0  0  0  0  0  0  0  0  0  0  0  0
   27.1967   13.5550    0.0000 H   0  0  0  0  0  0  0  0  0  0  0  0
   27.9372   13.5550    0.0000 H   0  0  0  0  0  0  0  0  0  0  0  0
   29.0045   15.1020    0.0000 H   0  0  0  0  0  0  0  0  0  0  0  0
   28.3164   15.5290    0.0000 H   0  0  0  0  0  0  0  0  0  0  0  0
   28.6257   13.5550    0.0000 H   0  0  0  0  0  0  0  0  0  0  0  0
   29.3662   13.5550    0.0000 H   0  0  0  0  0  0  0  0  0  0  0  0
   30.3401   15.2377    0.0000 H   0  0  0  0  0  0  0  0  0  0  0  0
   29.8482   15.5182    0.0000 H   0  0  0  0  0  0  0  0  0  0  0  0
   30.0546   13.5550    0.0000 H   0  0  0  0  0  0  0  0  0  0  0  0
   30.7951   13.5550    0.0000 H   0  0  0  0  0  0  0  0  0  0  0  0
   31.8625   15.1018    0.0000 H   0  0  0  0  0  0  0  0  0  0  0  0
   31.1748   15.5290    0.0000 H   0  0  0  0  0  0  0  0  0  0  0  0
   31.4836   13.5550    0.0000 H   0  0  0  0  0  0  0  0  0  0  0  0
   32.2241   13.5550    0.0000 H   0  0  0  0  0  0  0  0  0  0  0  0
   33.1980   15.2378    0.0000 H   0  0  0  0  0  0  0  0  0  0  0  0
   32.7060   15.5182    0.0000 H   0  0  0  0  0  0  0  0  0  0  0  0
   32.9125   13.5550    0.0000 H   0  0  0  0  0  0  0  0  0  0  0  0
   33.6530   13.5550    0.0000 H   0  0  0  0  0  0  0  0  0  0  0  0
   34.7204   15.1018    0.0000 H   0  0  0  0  0  0  0  0  0  0  0  0
   34.0327   15.5290    0.0000 H   0  0  0  0  0  0  0  0  0  0  0  0
   34.3414   13.5550    0.0000 H   0  0  0  0  0  0  0  0  0  0  0  0
   35.0820   13.5550    0.0000 H   0  0  0  0  0  0  0  0  0  0  0  0
   37.2254   15.4420    0.0000 H   0  0  0  0  0  0  0  0  0  0  0  0
   36.4848   15.4420    0.0000 H   0  0  0  0  0  0  0  0  0  0  0  0
   36.8551   13.8797    0.0000 H   0  0  0  0  0  0  0  0  0  0  0  0
   37.9821   12.7528    0.0000 H   0  0  0  0  0  0  0  0  0  0  0  0
   38.6543   15.4420    0.0000 H   0  0  0  0  0  0  0  0  0  0  0  0
   37.9138   15.4420    0.0000 H   0  0  0  0  0  0  0  0  0  0  0  0
   40.0833   15.4420    0.0000 H   0  0  0  0  0  0  0  0  0  0  0  0
   39.3427   15.4420    0.0000 H   0  0  0  0  0  0  0  0  0  0  0  0
   39.7130   13.8797    0.0000 H   0  0  0  0  0  0  0  0  0  0  0  0
   40.8400   12.7528    0.0000 H   0  0  0  0  0  0  0  0  0  0  0  0
   41.5122   15.4420    0.0000 H   0  0  0  0  0  0  0  0  0  0  0  0
   40.7717   15.4420    0.0000 H   0  0  0  0  0  0  0  0  0  0  0  0
   42.9151   13.5550    0.0000 H   0  0  0  0  0  0  0  0  0  0  0  0
   43.6556   13.5550    0.0000 H   0  0  0  0  0  0  0  0  0  0  0  0
   44.3701   15.4420    0.0000 H   0  0  0  0  0  0  0  0  0  0  0  0
   43.6296   15.4420    0.0000 H   0  0  0  0  0  0  0  0  0  0  0  0
   44.3440   13.5550    0.0000 H   0  0  0  0  0  0  0  0  0  0  0  0
   45.0845   13.5550    0.0000 H   0  0  0  0  0  0  0  0  0  0  0  0
   45.7990   15.4420    0.0000 H   0  0  0  0  0  0  0  0  0  0  0  0
   45.0585   15.4420    0.0000 H   0  0  0  0  0  0  0  0  0  0  0  0
   45.7730   13.5550    0.0000 H   0  0  0  0  0  0  0  0  0  0  0  0
   46.5135   13.5550    0.0000 H   0  0  0  0  0  0  0  0  0  0  0  0
   47.2280   15.4420    0.0000 H   0  0  0  0  0  0  0  0  0  0  0  0
   46.4874   15.4420    0.0000 H   0  0  0  0  0  0  0  0  0  0  0  0
   47.2019   13.5550    0.0000 H   0  0  0  0  0  0  0  0  0  0  0  0
   47.9424   13.5550    0.0000 H   0  0  0  0  0  0  0  0  0  0  0  0
   48.6569   15.4420    0.0000 H   0  0  0  0  0  0  0  0  0  0  0  0
   47.9164   15.4420    0.0000 H   0  0  0  0  0  0  0  0  0  0  0  0
   48.6309   13.5550    0.0000 H   0  0  0  0  0  0  0  0  0  0  0  0
   49.3714   13.5550    0.0000 H   0  0  0  0  0  0  0  0  0  0  0  0
   50.0858   15.4420    0.0000 H   0  0  0  0  0  0  0  0  0  0  0  0
   49.3453   15.4420    0.0000 H   0  0  0  0  0  0  0  0  0  0  0  0
   50.0598   13.5550    0.0000 H   0  0  0  0  0  0  0  0  0  0  0  0
   50.8003   13.5550    0.0000 H   0  0  0  0  0  0  0  0  0  0  0  0
   51.5148   15.4420    0.0000 H   0  0  0  0  0  0  0  0  0  0  0  0
   50.7743   15.4420    0.0000 H   0  0  0  0  0  0  0  0  0  0  0  0
   51.4887   13.5550    0.0000 H   0  0  0  0  0  0  0  0  0  0  0  0
   52.2293   13.5550    0.0000 H   0  0  0  0  0  0  0  0  0  0  0  0
   52.9437   15.4420    0.0000 H   0  0  0  0  0  0  0  0  0  0  0  0
   52.2032   15.4420    0.0000 H   0  0  0  0  0  0  0  0  0  0  0  0
   53.2879   15.1172    0.0000 H   0  0  0  0  0  0  0  0  0  0  0  0
   54.2159   13.9079    0.0000 H   0  0  0  0  0  0  0  0  0  0  0  0
   54.8274   14.7047    0.0000 H   0  0  0  0  0  0  0  0  0  0  0  0
   54.2159   15.5016    0.0000 H   0  0  0  0  0  0  0  0  0  0  0  0
   52.4629   13.4672    0.0000 H   0  0  0  0  0  0  0  0  0  0  0  0
   53.2879   12.6422    0.0000 H   0  0  0  0  0  0  0  0  0  0  0  0
   54.1129   13.4672    0.0000 H   0  0  0  0  0  0  0  0  0  0  0  0
  1  2  1  0  0  0  0
  2  3  1  0  0  0  0
  2  4  1  0  0  0  0
  4  5  1  0  0  0  0
  5  6  1  0  0  0  0
  6  7  1  0  0  0  0
  7  8  1  0  0  0  0
  8  9  1  0  0  0  0
  9 10  1  0  0  0  0
 10 11  1  0  0  0  0
 11 12  1  0  0  0  0
 12 13  1  0  0  0  0
 13 14  1  0  0  0  0
 14 15  1  0  0  0  0
 15 16  1  0  0  0  0
 16 17  1  0  0  0  0
 17 18  1  0  0  0  0
 18 19  2  0  0  0  0
 18 20  1  0  0  0  0
 20 21  1  0  0  0  0
 21 22  1  0  0  0  0
 22 23  1  0  0  0  0
 22 24  1  0  0  0  0
 24 25  1  0  0  0  0
 25 26  1  0  0  0  0
 26 27  1  0  0  0  0
 27 28  1  0  0  0  0
 27 29  1  0  0  0  0
 29 30  1  0  0  0  0
 30 31  1  0  0  0  0
 31 32  2  0  0  0  0
 31 33  1  0  0  0  0
 33 34  1  0  0  0  0
 34 35  1  0  0  0  0
 35 36  1  0  0  0  0
 36 37  1  0  0  0  0
 37 38  1  0  0  0  0
 38 39  1  0  0  0  0
 39 40  1  0  0  0  0
 40 41  1  0  0  0  0
 41 42  1  0  0  0  0
 42 43  1  0  0  0  0
 43 44  1  0  0  0  0
 44 45  1  0  0  0  0
 45 46  1  0  0  0  0
 46 47  1  0  0  0  0
 47 48  1  0  0  0  0
 47 49  1  0  0  0  0
  1 50  1  0  0  0  0
  1 51  1  0  0  0  0
  1 52  1  0  0  0  0
  2 53  1  0  0  0  0
  3 54  1  0  0  0  0
  3 55  1  0  0  0  0
  3 56  1  0  0  0  0
  4 57  1  0  0  0  0
  4 58  1  0  0  0  0
  5 59  1  0  0  0  0
  5 60  1  0  0  0  0
  6 61  1  0  0  0  0
  6 62  1  0  0  0  0
  7 63  1  0  0  0  0
  7 64  1  0  0  0  0
  8 65  1  0  0  0  0
  8 66  1  0  0  0  0
  9 67  1  0  0  0  0
  9 68  1  0  0  0  0
 10 69  1  0  0  0  0
 10 70  1  0  0  0  0
 11 71  1  0  0  0  0
 11 72  1  0  0  0  0
 12 73  1  0  0  0  0
 12 74  1  0  0  0  0
 13 75  1  0  0  0  0
 13 76  1  0  0  0  0
 14 77  1  0  0  0  0
 14 78  1  0  0  0  0
 15 79  1  0  0  0  0
 15 80  1  0  0  0  0
 16 81  1  0  0  0  0
 16 82  1  0  0  0  0
 17 83  1  0  0  0  0
 17 84  1  0  0  0  0
 21 85  1  0  0  0  0
 21 86  1  0  0  0  0
 22 87  1  0  0  0  0
 23 88  1  0  0  0  0
 24 89  1  0  0  0  0
 24 90  1  0  0  0  0
 26 91  1  0  0  0  0
 26 92  1  0  0  0  0
 27 93  1  0  0  0  0
 28 94  1  0  0  0  0
 29 95  1  0  0  0  0
 29 96  1  0  0  0  0
 33 97  1  0  0  0  0
 33 98  1  0  0  0  0
 34 99  1  0  0  0  0
 34100  1  0  0  0  0
 35101  1  0  0  0  0
 35102  1  0  0  0  0
 36103  1  0  0  0  0
 36104  1  0  0  0  0
 37105  1  0  0  0  0
 37106  1  0  0  0  0
 38107  1  0  0  0  0
 38108  1  0  0  0  0
 39109  1  0  0  0  0
 39110  1  0  0  0  0
 40111  1  0  0  0  0
 40112  1  0  0  0  0
 41113  1  0  0  0  0
 41114  1  0  0  0  0
 42115  1  0  0  0  0
 42116  1  0  0  0  0
 43117  1  0  0  0  0
 43118  1  0  0  0  0
 44119  1  0  0  0  0
 44120  1  0  0  0  0
 45121  1  0  0  0  0
 45122  1  0  0  0  0
 46123  1  0  0  0  0
 46124  1  0  0  0  0
 47125  1  0  0  0  0
 48126  1  0  0  0  0
 48127  1  0  0  0  0
 48128  1  0  0  0  0
 49129  1  0  0  0  0
 49130  1  0  0  0  0
 49131  1  0  0  0  0
M  END
>  <InChIKey>
LDDUCKDUDZVHLN-UHFFFAOYSA-N

>  <UN GHS>
Non-irritant

>  <CASRN>
67938-21-0

> <Outcome>
0

>  <Index>
424

>  <StandardizerResult>
Clear Stereo (ID: ClearStereo)
Wedge Clean (ID: WedgeClean)
Mesomerize (ID: Mesomerize)
Tautomerize (ID: Tautomerize)
Add Explicit Hydrogens (ID: AddExplicitH)
Neutralize (ID: Neutralize)
Clean 2D (ID: Clean2D)

> <knn Distance>
3.46410155296326

> <CpId>
424

$$$$
476
  Mrv1532301301811342D          

 42 42  0  0  0  0            999 V2000
   -2.1774    1.2726    0.0000 C   0  0  0  0  0  0  0  0  0  0  0  0
   -1.4630    1.6851    0.0000 C   0  0  0  0  0  0  0  0  0  0  0  0
   -1.4630    2.5101    0.0000 C   0  0  0  0  0  0  0  0  0  0  0  0
   -0.7485    1.2726    0.0000 C   0  0  0  0  0  0  0  0  0  0  0  0
   -0.0340    1.6851    0.0000 O   0  0  0  0  0  0  0  0  0  0  0  0
    0.6805    1.2726    0.0000 C   0  0  0  0  0  0  0  0  0  0  0  0
    0.6805    0.4476    0.0000 O   0  0  0  0  0  0  0  0  0  0  0  0
    1.3949    1.6851    0.0000 C   0  0  0  0  0  0  0  0  0  0  0  0
    1.3949    2.5101    0.0000 C   0  0  0  0  0  0  0  0  0  0  0  0
    2.1094    2.9226    0.0000 C   0  0  0  0  0  0  0  0  0  0  0  0
    2.8239    2.5101    0.0000 C   0  0  0  0  0  0  0  0  0  0  0  0
    2.8239    1.6851    0.0000 C   0  0  0  0  0  0  0  0  0  0  0  0
    2.1094    1.2726    0.0000 C   0  0  0  0  0  0  0  0  0  0  0  0
    2.1094    0.4476    0.0000 C   0  0  0  0  0  0  0  0  0  0  0  0
    1.3949    0.0351    0.0000 O   0  0  0  0  0  0  0  0  0  0  0  0
    2.8239    0.0351    0.0000 O   0  0  0  0  0  0  0  0  0  0  0  0
    3.5383    0.4476    0.0000 C   0  0  0  0  0  0  0  0  0  0  0  0
    4.2528    0.0351    0.0000 C   0  0  0  0  0  0  0  0  0  0  0  0
    4.9673    0.4476    0.0000 C   0  0  0  0  0  0  0  0  0  0  0  0
    4.2528   -0.7899    0.0000 C   0  0  0  0  0  0  0  0  0  0  0  0
   -2.5899    1.9871    0.0000 H   0  0  0  0  0  0  0  0  0  0  0  0
   -2.8919    0.8601    0.0000 H   0  0  0  0  0  0  0  0  0  0  0  0
   -1.7649    0.5581    0.0000 H   0  0  0  0  0  0  0  0  0  0  0  0
   -2.1774    2.0976    0.0000 H   0  0  0  0  0  0  0  0  0  0  0  0
   -0.6661    2.2966    0.0000 H   0  0  0  0  0  0  0  0  0  0  0  0
   -1.0505    3.2246    0.0000 H   0  0  0  0  0  0  0  0  0  0  0  0
   -2.0463    3.0935    0.0000 H   0  0  0  0  0  0  0  0  0  0  0  0
   -1.1187    0.5354    0.0000 H   0  0  0  0  0  0  0  0  0  0  0  0
   -0.3782    0.5354    0.0000 H   0  0  0  0  0  0  0  0  0  0  0  0
    0.6805    2.9226    0.0000 H   0  0  0  0  0  0  0  0  0  0  0  0
    2.1094    3.7476    0.0000 H   0  0  0  0  0  0  0  0  0  0  0  0
    3.5383    2.9226    0.0000 H   0  0  0  0  0  0  0  0  0  0  0  0
    3.5383    1.2726    0.0000 H   0  0  0  0  0  0  0  0  0  0  0  0
    2.8239    0.8601    0.0000 H   0  0  0  0  0  0  0  0  0  0  0  0
    4.2528    0.8601    0.0000 H   0  0  0  0  0  0  0  0  0  0  0  0
    4.9673   -0.3774    0.0000 H   0  0  0  0  0  0  0  0  0  0  0  0
    5.6817    0.0351    0.0000 H   0  0  0  0  0  0  0  0  0  0  0  0
    5.6817    0.8601    0.0000 H   0  0  0  0  0  0  0  0  0  0  0  0
    4.9673    1.2726    0.0000 H   0  0  0  0  0  0  0  0  0  0  0  0
    3.4559   -0.5764    0.0000 H   0  0  0  0  0  0  0  0  0  0  0  0
    3.8403   -1.5044    0.0000 H   0  0  0  0  0  0  0  0  0  0  0  0
    4.8362   -1.3733    0.0000 H   0  0  0  0  0  0  0  0  0  0  0  0
  1  2  1  0  0  0  0
  2  3  1  0  0  0  0
  2  4  1  0  0  0  0
  4  5  1  0  0  0  0
  5  6  1  0  0  0  0
  6  7  2  0  0  0  0
  6  8  1  0  0  0  0
  8  9  4  0  0  0  0
  9 10  4  0  0  0  0
 10 11  4  0  0  0  0
 11 12  4  0  0  0  0
 12 13  4  0  0  0  0
  8 13  4  0  0  0  0
 13 14  1  0  0  0  0
 14 15  2  0  0  0  0
 14 16  1  0  0  0  0
 16 17  1  0  0  0  0
 17 18  1  0  0  0  0
 18 19  1  0  0  0  0
 18 20  1  0  0  0  0
  1 21  1  0  0  0  0
  1 22  1  0  0  0  0
  1 23  1  0  0  0  0
  2 24  1  0  0  0  0
  3 25  1  0  0  0  0
  3 26  1  0  0  0  0
  3 27  1  0  0  0  0
  4 28  1  0  0  0  0
  4 29  1  0  0  0  0
  9 30  1  0  0  0  0
 10 31  1  0  0  0  0
 11 32  1  0  0  0  0
 12 33  1  0  0  0  0
 17 34  1  0  0  0  0
 17 35  1  0  0  0  0
 18 36  1  0  0  0  0
 19 37  1  0  0  0  0
 19 38  1  0  0  0  0
 19 39  1  0  0  0  0
 20 40  1  0  0  0  0
 20 41  1  0  0  0  0
 20 42  1  0  0  0  0
M  END
>  <InChIKey>
MGWAVDBGNNKXQV-UHFFFAOYSA-N

>  <UN GHS>
Non-irritant

>  <CASRN>
84-69-5

> <Outcome>
0

>  <Index>
476

>  <StandardizerResult>
Dearomatize (ID: Dearomatize)
Clear Stereo (ID: ClearStereo)
Wedge Clean (ID: WedgeClean)
Mesomerize (ID: Mesomerize)
Tautomerize (ID: Tautomerize)
Aromatize (ID: Aromatize)
Add Explicit Hydrogens (ID: AddExplicitH)
Neutralize (ID: Neutralize)
Clean 2D (ID: Clean2D)

> <knn Distance>
3.46410155296326

> <CpId>
476

$$$$
477
  Mrv1532301301811342D          

  4  3  0  0  0  0            999 V2000
    0.8250    0.0000    0.0000 O   0  0  0  0  0  0  0  0  0  0  0  0
    0.0000    0.0000    0.0000 O   0  0  0  0  0  0  0  0  0  0  0  0
    1.2375   -0.7145    0.0000 H   0  0  0  0  0  0  0  0  0  0  0  0
   -0.4125    0.7145    0.0000 H   0  0  0  0  0  0  0  0  0  0  0  0
  1  2  1  0  0  0  0
  1  3  1  0  0  0  0
  2  4  1  0  0  0  0
M  END
>  <InChIKey>
MHAJPDPJQMAIIY-UHFFFAOYSA-N

>  <UN GHS>
Non-irritant

>  <CASRN>
7722-84-1

> <Outcome>
0

>  <Index>
477

>  <StandardizerResult>
Mesomerize (ID: Mesomerize)
Tautomerize (ID: Tautomerize)
Add Explicit Hydrogens (ID: AddExplicitH)
Neutralize (ID: Neutralize)
Clean 2D (ID: Clean2D)

> <knn Distance>
3.46410155296326

> <CpId>
477

$$$$
543
  Mrv1532301301811342D          

 27 27  0  0  0  0            999 V2000
   -0.7177   -2.4016    0.0000 C   0  0  0  0  0  0  0  0  0  0  0  0
   -0.0033   -1.9891    0.0000 C   0  0  0  0  0  0  0  0  0  0  0  0
    0.7112   -2.4016    0.0000 C   0  0  0  0  0  0  0  0  0  0  0  0
    1.4257   -1.9891    0.0000 C   0  0  0  0  0  0  0  0  0  0  0  0
    2.1402   -2.4016    0.0000 C   0  0  0  0  0  0  0  0  0  0  0  0
    2.8546   -1.9891    0.0000 C   0  0  0  0  0  0  0  0  0  0  0  0
    2.9409   -1.1686    0.0000 C   0  0  0  0  0  0  0  0  0  0  0  0
    3.7478   -0.9971    0.0000 C   0  0  0  0  0  0  0  0  0  0  0  0
    4.1603   -1.7115    0.0000 C   0  0  0  0  0  0  0  0  0  0  0  0
    4.9808   -1.7978    0.0000 O   0  0  0  0  0  0  0  0  0  0  0  0
    3.6083   -2.3246    0.0000 O   0  0  0  0  0  0  0  0  0  0  0  0
   -1.1302   -1.6871    0.0000 H   0  0  0  0  0  0  0  0  0  0  0  0
   -1.4322   -2.8141    0.0000 H   0  0  0  0  0  0  0  0  0  0  0  0
   -0.3052   -3.1160    0.0000 H   0  0  0  0  0  0  0  0  0  0  0  0
    0.3670   -1.2518    0.0000 H   0  0  0  0  0  0  0  0  0  0  0  0
   -0.3735   -1.2518    0.0000 H   0  0  0  0  0  0  0  0  0  0  0  0
    0.3410   -3.1388    0.0000 H   0  0  0  0  0  0  0  0  0  0  0  0
    1.0815   -3.1388    0.0000 H   0  0  0  0  0  0  0  0  0  0  0  0
    1.7960   -1.2518    0.0000 H   0  0  0  0  0  0  0  0  0  0  0  0
    1.0554   -1.2518    0.0000 H   0  0  0  0  0  0  0  0  0  0  0  0
    1.7699   -3.1388    0.0000 H   0  0  0  0  0  0  0  0  0  0  0  0
    2.5104   -3.1388    0.0000 H   0  0  0  0  0  0  0  0  0  0  0  0
    2.8978   -2.8129    0.0000 H   0  0  0  0  0  0  0  0  0  0  0  0
    2.6587   -0.3933    0.0000 H   0  0  0  0  0  0  0  0  0  0  0  0
    2.1404   -0.9690    0.0000 H   0  0  0  0  0  0  0  0  0  0  0  0
    4.3979   -0.4891    0.0000 H   0  0  0  0  0  0  0  0  0  0  0  0
    3.6903   -0.1741    0.0000 H   0  0  0  0  0  0  0  0  0  0  0  0
  1  2  1  0  0  0  0
  2  3  1  0  0  0  0
  3  4  1  0  0  0  0
  4  5  1  0  0  0  0
  5  6  1  0  0  0  0
  6  7  1  0  0  0  0
  7  8  1  0  0  0  0
  8  9  1  0  0  0  0
  9 10  2  0  0  0  0
  9 11  1  0  0  0  0
  6 11  1  0  0  0  0
  1 12  1  0  0  0  0
  1 13  1  0  0  0  0
  1 14  1  0  0  0  0
  2 15  1  0  0  0  0
  2 16  1  0  0  0  0
  3 17  1  0  0  0  0
  3 18  1  0  0  0  0
  4 19  1  0  0  0  0
  4 20  1  0  0  0  0
  5 21  1  0  0  0  0
  5 22  1  0  0  0  0
  6 23  1  0  0  0  0
  7 24  1  0  0  0  0
  7 25  1  0  0  0  0
  8 26  1  0  0  0  0
  8 27  1  0  0  0  0
M  END
>  <InChIKey>
OALYTRUKMRCXNH-QMMMGPOBSA-N

>  <UN GHS>
Non-irritant

>  <CASRN>
104-61-0

> <Outcome>
0

>  <Index>
543

>  <StandardizerResult>
Clear Stereo (ID: ClearStereo)
Wedge Clean (ID: WedgeClean)
Mesomerize (ID: Mesomerize)
Tautomerize (ID: Tautomerize)
Add Explicit Hydrogens (ID: AddExplicitH)
Neutralize (ID: Neutralize)
Clean 2D (ID: Clean2D)

> <knn Distance>
3.46410155296326

> <CpId>
543

$$$$
590
  Mrv1532301301811342D          

 33 33  0  0  0  0            999 V2000
   -1.0091   -3.8058    0.0000 C   0  0  0  0  0  0  0  0  0  0  0  0
   -0.2947   -3.3933    0.0000 C   0  0  0  0  0  0  0  0  0  0  0  0
    0.4198   -3.8058    0.0000 C   0  0  0  0  0  0  0  0  0  0  0  0
    1.1343   -3.3933    0.0000 C   0  0  0  0  0  0  0  0  0  0  0  0
    1.8487   -3.8058    0.0000 C   0  0  0  0  0  0  0  0  0  0  0  0
    2.5632   -3.3933    0.0000 C   0  0  0  0  0  0  0  0  0  0  0  0
    3.2777   -3.8058    0.0000 C   0  0  0  0  0  0  0  0  0  0  0  0
    3.9922   -3.3933    0.0000 C   0  0  0  0  0  0  0  0  0  0  0  0
    4.0784   -2.5728    0.0000 C   0  0  0  0  0  0  0  0  0  0  0  0
    4.8854   -2.4013    0.0000 C   0  0  0  0  0  0  0  0  0  0  0  0
    5.2979   -3.1157    0.0000 C   0  0  0  0  0  0  0  0  0  0  0  0
    6.1183   -3.2020    0.0000 O   0  0  0  0  0  0  0  0  0  0  0  0
    4.7458   -3.7288    0.0000 O   0  0  0  0  0  0  0  0  0  0  0  0
   -1.4216   -3.0913    0.0000 H   0  0  0  0  0  0  0  0  0  0  0  0
   -1.7236   -4.2183    0.0000 H   0  0  0  0  0  0  0  0  0  0  0  0
   -0.5966   -4.5202    0.0000 H   0  0  0  0  0  0  0  0  0  0  0  0
    0.0756   -2.6560    0.0000 H   0  0  0  0  0  0  0  0  0  0  0  0
   -0.6649   -2.6560    0.0000 H   0  0  0  0  0  0  0  0  0  0  0  0
    0.0495   -4.5430    0.0000 H   0  0  0  0  0  0  0  0  0  0  0  0
    0.7901   -4.5430    0.0000 H   0  0  0  0  0  0  0  0  0  0  0  0
    1.5045   -2.6560    0.0000 H   0  0  0  0  0  0  0  0  0  0  0  0
    0.7640   -2.6560    0.0000 H   0  0  0  0  0  0  0  0  0  0  0  0
    1.4785   -4.5430    0.0000 H   0  0  0  0  0  0  0  0  0  0  0  0
    2.2190   -4.5430    0.0000 H   0  0  0  0  0  0  0  0  0  0  0  0
    2.9335   -2.6560    0.0000 H   0  0  0  0  0  0  0  0  0  0  0  0
    2.1930   -2.6560    0.0000 H   0  0  0  0  0  0  0  0  0  0  0  0
    2.9074   -4.5430    0.0000 H   0  0  0  0  0  0  0  0  0  0  0  0
    3.6479   -4.5430    0.0000 H   0  0  0  0  0  0  0  0  0  0  0  0
    4.0353   -4.2171    0.0000 H   0  0  0  0  0  0  0  0  0  0  0  0
    3.7962   -1.7975    0.0000 H   0  0  0  0  0  0  0  0  0  0  0  0
    3.2779   -2.3732    0.0000 H   0  0  0  0  0  0  0  0  0  0  0  0
    5.5355   -1.8933    0.0000 H   0  0  0  0  0  0  0  0  0  0  0  0
    4.8278   -1.5783    0.0000 H   0  0  0  0  0  0  0  0  0  0  0  0
  1  2  1  0  0  0  0
  2  3  1  0  0  0  0
  3  4  1  0  0  0  0
  4  5  1  0  0  0  0
  5  6  1  0  0  0  0
  6  7  1  0  0  0  0
  7  8  1  0  0  0  0
  8  9  1  0  0  0  0
  9 10  1  0  0  0  0
 10 11  1  0  0  0  0
 11 12  2  0  0  0  0
 11 13  1  0  0  0  0
  8 13  1  0  0  0  0
  1 14  1  0  0  0  0
  1 15  1  0  0  0  0
  1 16  1  0  0  0  0
  2 17  1  0  0  0  0
  2 18  1  0  0  0  0
  3 19  1  0  0  0  0
  3 20  1  0  0  0  0
  4 21  1  0  0  0  0
  4 22  1  0  0  0  0
  5 23  1  0  0  0  0
  5 24  1  0  0  0  0
  6 25  1  0  0  0  0
  6 26  1  0  0  0  0
  7 27  1  0  0  0  0
  7 28  1  0  0  0  0
  8 29  1  0  0  0  0
  9 30  1  0  0  0  0
  9 31  1  0  0  0  0
 10 32  1  0  0  0  0
 10 33  1  0  0  0  0
M  END
>  <InChIKey>
PHXATPHONSXBIL-JTQLQIEISA-N

>  <UN GHS>
Non-irritant

>  <CASRN>
104-67-6

> <Outcome>
0

>  <Index>
590

>  <StandardizerResult>
Clear Stereo (ID: ClearStereo)
Wedge Clean (ID: WedgeClean)
Mesomerize (ID: Mesomerize)
Tautomerize (ID: Tautomerize)
Add Explicit Hydrogens (ID: AddExplicitH)
Neutralize (ID: Neutralize)
Clean 2D (ID: Clean2D)

> <knn Distance>
3.46410155296326

> <CpId>
590

$$$$
609
  Mrv1532301301811342D          

 39 38  0  0  0  0            999 V2000
    0.5463   -2.0170    0.0000 C   0  0  0  0  0  0  0  0  0  0  0  0
    0.5463   -1.1920    0.0000 C   0  0  0  0  0  0  0  0  0  0  0  0
   -0.1682   -0.7795    0.0000 C   0  0  0  0  0  0  0  0  0  0  0  0
    1.2608   -0.7795    0.0000 Si  0  0  0  0  0  0  0  0  0  0  0  0
    1.9752   -0.3670    0.0000 O   0  0  0  0  0  0  0  0  0  0  0  0
    2.6897   -0.7795    0.0000 C   0  0  0  0  0  0  0  0  0  0  0  0
    2.6897   -1.6045    0.0000 O   0  0  0  0  0  0  0  0  0  0  0  0
    3.4042   -0.3670    0.0000 C   0  0  0  0  0  0  0  0  0  0  0  0
    3.4042    0.4580    0.0000 C   0  0  0  0  0  0  0  0  0  0  0  0
    1.6733   -1.4940    0.0000 C   0  0  0  0  0  0  0  0  0  0  0  0
    2.3407   -1.9789    0.0000 C   0  0  0  0  0  0  0  0  0  0  0  0
    1.2608   -2.2084    0.0000 C   0  0  0  0  0  0  0  0  0  0  0  0
    0.8483   -0.0650    0.0000 C   0  0  0  0  0  0  0  0  0  0  0  0
    1.2608    0.6494    0.0000 C   0  0  0  0  0  0  0  0  0  0  0  0
    0.0233   -0.0650    0.0000 C   0  0  0  0  0  0  0  0  0  0  0  0
   -0.1936   -1.6521    0.0000 H   0  0  0  0  0  0  0  0  0  0  0  0
   -0.1082   -2.5192    0.0000 H   0  0  0  0  0  0  0  0  0  0  0  0
    0.7073   -2.8262    0.0000 H   0  0  0  0  0  0  0  0  0  0  0  0
    0.5463   -0.3670    0.0000 H   0  0  0  0  0  0  0  0  0  0  0  0
   -0.6215   -0.0902    0.0000 H   0  0  0  0  0  0  0  0  0  0  0  0
   -0.9845   -0.6599    0.0000 H   0  0  0  0  0  0  0  0  0  0  0  0
   -0.8002   -1.3098    0.0000 H   0  0  0  0  0  0  0  0  0  0  0  0
    4.1187   -0.7795    0.0000 H   0  0  0  0  0  0  0  0  0  0  0  0
    4.1187    0.8705    0.0000 H   0  0  0  0  0  0  0  0  0  0  0  0
    2.6897    0.8705    0.0000 H   0  0  0  0  0  0  0  0  0  0  0  0
    2.2864   -0.9419    0.0000 H   0  0  0  0  0  0  0  0  0  0  0  0
    1.6245   -2.3883    0.0000 H   0  0  0  0  0  0  0  0  0  0  0  0
    2.4199   -2.8001    0.0000 H   0  0  0  0  0  0  0  0  0  0  0  0
    3.1220   -2.2440    0.0000 H   0  0  0  0  0  0  0  0  0  0  0  0
    1.4169   -3.0185    0.0000 H   0  0  0  0  0  0  0  0  0  0  0  0
    0.9451   -1.4462    0.0000 H   0  0  0  0  0  0  0  0  0  0  0  0
    2.0504   -1.9694    0.0000 H   0  0  0  0  0  0  0  0  0  0  0  0
    1.6733   -0.0650    0.0000 H   0  0  0  0  0  0  0  0  0  0  0  0
    2.0577    0.8630    0.0000 H   0  0  0  0  0  0  0  0  0  0  0  0
    1.2608    1.4744    0.0000 H   0  0  0  0  0  0  0  0  0  0  0  0
    0.4639    0.8630    0.0000 H   0  0  0  0  0  0  0  0  0  0  0  0
    0.6009    0.5240    0.0000 H   0  0  0  0  0  0  0  0  0  0  0  0
    0.0072    0.7598    0.0000 H   0  0  0  0  0  0  0  0  0  0  0  0
   -0.5769    0.5010    0.0000 H   0  0  0  0  0  0  0  0  0  0  0  0
  1  2  1  0  0  0  0
  2  3  1  0  0  0  0
  2  4  1  0  0  0  0
  4  5  1  0  0  0  0
  5  6  1  0  0  0  0
  6  7  2  0  0  0  0
  6  8  1  0  0  0  0
  8  9  2  0  0  0  0
  4 10  1  0  0  0  0
 10 11  1  0  0  0  0
 10 12  1  0  0  0  0
  4 13  1  0  0  0  0
 13 14  1  0  0  0  0
 13 15  1  0  0  0  0
  1 16  1  0  0  0  0
  1 17  1  0  0  0  0
  1 18  1  0  0  0  0
  2 19  1  0  0  0  0
  3 20  1  0  0  0  0
  3 21  1  0  0  0  0
  3 22  1  0  0  0  0
  8 23  1  4  0  0  0
  9 24  1  0  0  0  0
  9 25  1  0  0  0  0
 10 26  1  0  0  0  0
 11 27  1  0  0  0  0
 11 28  1  0  0  0  0
 11 29  1  0  0  0  0
 12 30  1  0  0  0  0
 12 31  1  0  0  0  0
 12 32  1  0  0  0  0
 13 33  1  0  0  0  0
 14 34  1  0  0  0  0
 14 35  1  0  0  0  0
 14 36  1  0  0  0  0
 15 37  1  0  0  0  0
 15 38  1  0  0  0  0
 15 39  1  0  0  0  0
M  END
>  <InChIKey>
PQSIXYSSKXAOFE-UHFFFAOYSA-N

>  <UN GHS>
Non-irritant

>  <CASRN>
157859-20-6

> <Outcome>
0

>  <Index>
609

>  <StandardizerResult>
Clear Stereo (ID: ClearStereo)
Wedge Clean (ID: WedgeClean)
Mesomerize (ID: Mesomerize)
Tautomerize (ID: Tautomerize)
Add Explicit Hydrogens (ID: AddExplicitH)
Neutralize (ID: Neutralize)
Clean 2D (ID: Clean2D)

> <knn Distance>
3.46410155296326

> <CpId>
609

$$$$
631
  Mrv1532301301811342D          

 97 96  0  0  0  0            999 V2000
   13.3114   15.1898    0.0000 C   0  0  0  0  0  0  0  0  0  0  0  0
   12.5970   14.7773    0.0000 C   0  0  0  0  0  0  0  0  0  0  0  0
   11.8825   15.1898    0.0000 C   0  0  0  0  0  0  0  0  0  0  0  0
   12.5970   13.9523    0.0000 C   0  0  0  0  0  0  0  0  0  0  0  0
   11.8825   13.5398    0.0000 C   0  0  0  0  0  0  0  0  0  0  0  0
   11.8825   12.7148    0.0000 C   0  0  0  0  0  0  0  0  0  0  0  0
   11.1680   12.3023    0.0000 C   0  0  0  0  0  0  0  0  0  0  0  0
   11.1680   11.4773    0.0000 C   0  0  0  0  0  0  0  0  0  0  0  0
   10.4535   11.0648    0.0000 C   0  0  0  0  0  0  0  0  0  0  0  0
   10.4535   10.2398    0.0000 C   0  0  0  0  0  0  0  0  0  0  0  0
    9.7391    9.8273    0.0000 O   0  0  0  0  0  0  0  0  0  0  0  0
    9.7391    9.0023    0.0000 P   0  0  0  0  0  0  0  0  0  0  0  0
    9.0246    8.5898    0.0000 O   0  0  0  0  0  0  0  0  0  0  0  0
    9.0246    7.7648    0.0000 C   0  0  0  0  0  0  0  0  0  0  0  0
    8.3101    7.3523    0.0000 C   0  0  0  0  0  0  0  0  0  0  0  0
    8.3101    6.5273    0.0000 C   0  0  0  0  0  0  0  0  0  0  0  0
    7.5957    6.1148    0.0000 C   0  0  0  0  0  0  0  0  0  0  0  0
    7.5957    5.2898    0.0000 C   0  0  0  0  0  0  0  0  0  0  0  0
    6.8812    4.8773    0.0000 C   0  0  0  0  0  0  0  0  0  0  0  0
    6.8812    4.0523    0.0000 C   0  0  0  0  0  0  0  0  0  0  0  0
    6.1667    3.6398    0.0000 C   0  0  0  0  0  0  0  0  0  0  0  0
    6.1667    2.8148    0.0000 C   0  0  0  0  0  0  0  0  0  0  0  0
    5.4522    4.0523    0.0000 C   0  0  0  0  0  0  0  0  0  0  0  0
   10.4535    8.5898    0.0000 O   0  0  0  0  0  0  0  0  0  0  0  0
   10.4535    7.7648    0.0000 C   0  0  0  0  0  0  0  0  0  0  0  0
   11.1680    7.3523    0.0000 C   0  0  0  0  0  0  0  0  0  0  0  0
   11.1680    6.5273    0.0000 C   0  0  0  0  0  0  0  0  0  0  0  0
   11.8825    6.1148    0.0000 C   0  0  0  0  0  0  0  0  0  0  0  0
   11.8825    5.2898    0.0000 C   0  0  0  0  0  0  0  0  0  0  0  0
   12.5970    4.8773    0.0000 C   0  0  0  0  0  0  0  0  0  0  0  0
   12.5970    4.0523    0.0000 C   0  0  0  0  0  0  0  0  0  0  0  0
   13.3114    3.6398    0.0000 C   0  0  0  0  0  0  0  0  0  0  0  0
   14.0259    4.0523    0.0000 C   0  0  0  0  0  0  0  0  0  0  0  0
   13.3114    2.8148    0.0000 C   0  0  0  0  0  0  0  0  0  0  0  0
   13.7239   14.4753    0.0000 H   0  0  0  0  0  0  0  0  0  0  0  0
   14.0259   15.6023    0.0000 H   0  0  0  0  0  0  0  0  0  0  0  0
   12.8989   15.9043    0.0000 H   0  0  0  0  0  0  0  0  0  0  0  0
   12.5970   15.6023    0.0000 H   0  0  0  0  0  0  0  0  0  0  0  0
   11.6690   15.9867    0.0000 H   0  0  0  0  0  0  0  0  0  0  0  0
   11.0575   15.1898    0.0000 H   0  0  0  0  0  0  0  0  0  0  0  0
   11.6690   14.3929    0.0000 H   0  0  0  0  0  0  0  0  0  0  0  0
   13.0503   13.2630    0.0000 H   0  0  0  0  0  0  0  0  0  0  0  0
   13.4206   13.9043    0.0000 H   0  0  0  0  0  0  0  0  0  0  0  0
   11.0637   13.4389    0.0000 H   0  0  0  0  0  0  0  0  0  0  0  0
   12.5970   13.1273    0.0000 H   0  0  0  0  0  0  0  0  0  0  0  0
   12.0257   11.9023    0.0000 H   0  0  0  0  0  0  0  0  0  0  0  0
   12.5145   12.1845    0.0000 H   0  0  0  0  0  0  0  0  0  0  0  0
   10.7147   12.9916    0.0000 H   0  0  0  0  0  0  0  0  0  0  0  0
   10.3444   12.3503    0.0000 H   0  0  0  0  0  0  0  0  0  0  0  0
   11.1505   10.6525    0.0000 H   0  0  0  0  0  0  0  0  0  0  0  0
   11.8644   11.0349    0.0000 H   0  0  0  0  0  0  0  0  0  0  0  0
   10.0002   11.7541    0.0000 H   0  0  0  0  0  0  0  0  0  0  0  0
    9.6299   11.1128    0.0000 H   0  0  0  0  0  0  0  0  0  0  0  0
   10.6003    9.4279    0.0000 H   0  0  0  0  0  0  0  0  0  0  0  0
   11.0891    9.7137    0.0000 H   0  0  0  0  0  0  0  0  0  0  0  0
    9.4779    7.0755    0.0000 H   0  0  0  0  0  0  0  0  0  0  0  0
    9.8482    7.7168    0.0000 H   0  0  0  0  0  0  0  0  0  0  0  0
    7.8568    8.0416    0.0000 H   0  0  0  0  0  0  0  0  0  0  0  0
    7.4865    7.4003    0.0000 H   0  0  0  0  0  0  0  0  0  0  0  0
    8.7635    5.8380    0.0000 H   0  0  0  0  0  0  0  0  0  0  0  0
    9.1337    6.4793    0.0000 H   0  0  0  0  0  0  0  0  0  0  0  0
    7.1423    6.8041    0.0000 H   0  0  0  0  0  0  0  0  0  0  0  0
    6.7721    6.1628    0.0000 H   0  0  0  0  0  0  0  0  0  0  0  0
    8.0490    4.6005    0.0000 H   0  0  0  0  0  0  0  0  0  0  0  0
    8.4193    5.2418    0.0000 H   0  0  0  0  0  0  0  0  0  0  0  0
    6.4278    5.5666    0.0000 H   0  0  0  0  0  0  0  0  0  0  0  0
    6.0576    4.9253    0.0000 H   0  0  0  0  0  0  0  0  0  0  0  0
    7.3345    3.3630    0.0000 H   0  0  0  0  0  0  0  0  0  0  0  0
    7.7048    4.0043    0.0000 H   0  0  0  0  0  0  0  0  0  0  0  0
    6.8812    3.2273    0.0000 H   0  0  0  0  0  0  0  0  0  0  0  0
    5.3698    3.0283    0.0000 H   0  0  0  0  0  0  0  0  0  0  0  0
    5.7542    2.1003    0.0000 H   0  0  0  0  0  0  0  0  0  0  0  0
    6.7501    2.2314    0.0000 H   0  0  0  0  0  0  0  0  0  0  0  0
    5.8647    4.7668    0.0000 H   0  0  0  0  0  0  0  0  0  0  0  0
    4.7378    4.4648    0.0000 H   0  0  0  0  0  0  0  0  0  0  0  0
    5.0397    3.3378    0.0000 H   0  0  0  0  0  0  0  0  0  0  0  0
   10.2717    6.9601    0.0000 H   0  0  0  0  0  0  0  0  0  0  0  0
   11.1680    8.1773    0.0000 H   0  0  0  0  0  0  0  0  0  0  0  0
   11.9433    7.0701    0.0000 H   0  0  0  0  0  0  0  0  0  0  0  0
   11.9433    7.6345    0.0000 H   0  0  0  0  0  0  0  0  0  0  0  0
   10.3444    6.4793    0.0000 H   0  0  0  0  0  0  0  0  0  0  0  0
   10.7147    5.8380    0.0000 H   0  0  0  0  0  0  0  0  0  0  0  0
   12.5881    5.6872    0.0000 H   0  0  0  0  0  0  0  0  0  0  0  0
   12.6138    6.4967    0.0000 H   0  0  0  0  0  0  0  0  0  0  0  0
   11.0589    5.2418    0.0000 H   0  0  0  0  0  0  0  0  0  0  0  0
   11.4291    4.6005    0.0000 H   0  0  0  0  0  0  0  0  0  0  0  0
   13.3734    4.5984    0.0000 H   0  0  0  0  0  0  0  0  0  0  0  0
   13.3703    5.1646    0.0000 H   0  0  0  0  0  0  0  0  0  0  0  0
   11.7734    4.0043    0.0000 H   0  0  0  0  0  0  0  0  0  0  0  0
   12.1436    3.3630    0.0000 H   0  0  0  0  0  0  0  0  0  0  0  0
   14.0259    3.2273    0.0000 H   0  0  0  0  0  0  0  0  0  0  0  0
   14.7218    3.6092    0.0000 H   0  0  0  0  0  0  0  0  0  0  0  0
   14.7734    4.4014    0.0000 H   0  0  0  0  0  0  0  0  0  0  0  0
   14.1328    4.8703    0.0000 H   0  0  0  0  0  0  0  0  0  0  0  0
   12.5145    3.0283    0.0000 H   0  0  0  0  0  0  0  0  0  0  0  0
   12.8989    2.1003    0.0000 H   0  0  0  0  0  0  0  0  0  0  0  0
   13.8948    2.2314    0.0000 H   0  0  0  0  0  0  0  0  0  0  0  0
  1  2  1  0  0  0  0
  2  3  1  0  0  0  0
  2  4  1  0  0  0  0
  4  5  1  0  0  0  0
  5  6  1  0  0  0  0
  6  7  1  0  0  0  0
  7  8  1  0  0  0  0
  8  9  1  0  0  0  0
  9 10  1  0  0  0  0
 10 11  1  0  0  0  0
 11 12  1  0  0  0  0
 12 13  1  0  0  0  0
 13 14  1  0  0  0  0
 14 15  1  0  0  0  0
 15 16  1  0  0  0  0
 16 17  1  0  0  0  0
 17 18  1  0  0  0  0
 18 19  1  0  0  0  0
 19 20  1  0  0  0  0
 20 21  1  0  0  0  0
 21 22  1  0  0  0  0
 21 23  1  0  0  0  0
 12 24  1  0  0  0  0
 24 25  1  0  0  0  0
 25 26  1  0  0  0  0
 26 27  1  0  0  0  0
 27 28  1  0  0  0  0
 28 29  1  0  0  0  0
 29 30  1  0  0  0  0
 30 31  1  0  0  0  0
 31 32  1  0  0  0  0
 32 33  1  0  0  0  0
 32 34  1  0  0  0  0
  1 35  1  0  0  0  0
  1 36  1  0  0  0  0
  1 37  1  0  0  0  0
  2 38  1  0  0  0  0
  3 39  1  0  0  0  0
  3 40  1  0  0  0  0
  3 41  1  0  0  0  0
  4 42  1  0  0  0  0
  4 43  1  0  0  0  0
  5 44  1  0  0  0  0
  5 45  1  0  0  0  0
  6 46  1  0  0  0  0
  6 47  1  0  0  0  0
  7 48  1  0  0  0  0
  7 49  1  0  0  0  0
  8 50  1  0  0  0  0
  8 51  1  0  0  0  0
  9 52  1  0  0  0  0
  9 53  1  0  0  0  0
 10 54  1  0  0  0  0
 10 55  1  0  0  0  0
 14 56  1  0  0  0  0
 14 57  1  0  0  0  0
 15 58  1  0  0  0  0
 15 59  1  0  0  0  0
 16 60  1  0  0  0  0
 16 61  1  0  0  0  0
 17 62  1  0  0  0  0
 17 63  1  0  0  0  0
 18 64  1  0  0  0  0
 18 65  1  0  0  0  0
 19 66  1  0  0  0  0
 19 67  1  0  0  0  0
 20 68  1  0  0  0  0
 20 69  1  0  0  0  0
 21 70  1  0  0  0  0
 22 71  1  0  0  0  0
 22 72  1  0  0  0  0
 22 73  1  0  0  0  0
 23 74  1  0  0  0  0
 23 75  1  0  0  0  0
 23 76  1  0  0  0  0
 25 77  1  0  0  0  0
 25 78  1  0  0  0  0
 26 79  1  0  0  0  0
 26 80  1  0  0  0  0
 27 81  1  0  0  0  0
 27 82  1  0  0  0  0
 28 83  1  0  0  0  0
 28 84  1  0  0  0  0
 29 85  1  0  0  0  0
 29 86  1  0  0  0  0
 30 87  1  0  0  0  0
 30 88  1  0  0  0  0
 31 89  1  0  0  0  0
 31 90  1  0  0  0  0
 32 91  1  0  0  0  0
 33 92  1  0  0  0  0
 33 93  1  0  0  0  0
 33 94  1  0  0  0  0
 34 95  1  0  0  0  0
 34 96  1  0  0  0  0
 34 97  1  0  0  0  0
M  END
>  <InChIKey>
QEDNBHNWMHJNAB-UHFFFAOYSA-N

>  <UN GHS>
Non-irritant

>  <CASRN>
25448-25-3

> <Outcome>
0

>  <Index>
631

>  <StandardizerResult>
Clear Stereo (ID: ClearStereo)
Wedge Clean (ID: WedgeClean)
Mesomerize (ID: Mesomerize)
Tautomerize (ID: Tautomerize)
Add Explicit Hydrogens (ID: AddExplicitH)
Neutralize (ID: Neutralize)
Clean 2D (ID: Clean2D)

> <knn Distance>
3.46410155296326

> <CpId>
631

$$$$
656
  Mrv1532301301811342D          

 45 45  0  0  0  0            999 V2000
    2.1434   -6.1875    0.0000 C   0  0  0  0  0  0  0  0  0  0  0  0
    2.8579   -6.6000    0.0000 C   0  0  0  0  0  0  0  0  0  0  0  0
    3.5724   -6.1875    0.0000 C   0  0  0  0  0  0  0  0  0  0  0  0
    4.2868   -6.6000    0.0000 C   0  0  0  0  0  0  0  0  0  0  0  0
    5.0013   -6.1875    0.0000 C   0  0  0  0  0  0  0  0  0  0  0  0
    5.7158   -6.6000    0.0000 C   0  0  0  0  0  0  0  0  0  0  0  0
    6.4302   -6.1875    0.0000 C   0  0  0  0  0  0  0  0  0  0  0  0
    7.1447   -6.6000    0.0000 C   0  0  0  0  0  0  0  0  0  0  0  0
    7.8592   -6.1875    0.0000 C   0  0  0  0  0  0  0  0  0  0  0  0
    8.5737   -6.6000    0.0000 C   0  0  0  0  0  0  0  0  0  0  0  0
    8.5737   -7.4250    0.0000 O   0  0  0  0  0  0  0  0  0  0  0  0
    9.2881   -6.1875    0.0000 O   0  0  0  0  0  0  0  0  0  0  0  0
   10.0026   -6.6000    0.0000 C   0  0  0  0  0  0  0  0  0  0  0  0
   10.7171   -6.1875    0.0000 C   0  0  0  0  0  0  0  0  0  0  0  0
   11.4315   -6.6000    0.0000 C   0  0  0  0  0  0  0  0  0  0  0  0
   11.4315   -7.4250    0.0000 C   0  0  0  0  0  0  0  0  0  0  0  0
   10.7171   -7.8375    0.0000 C   0  0  0  0  0  0  0  0  0  0  0  0
   10.0026   -7.4250    0.0000 C   0  0  0  0  0  0  0  0  0  0  0  0
   12.1460   -7.8375    0.0000 C   0  0  0  0  0  0  0  0  0  0  0  0
   12.8605   -7.4250    0.0000 O   0  0  0  0  0  0  0  0  0  0  0  0
   12.1460   -8.6625    0.0000 O   0  0  0  0  0  0  0  0  0  0  0  0
    2.5559   -5.4730    0.0000 H   0  0  0  0  0  0  0  0  0  0  0  0
    1.4289   -5.7750    0.0000 H   0  0  0  0  0  0  0  0  0  0  0  0
    1.7309   -6.9020    0.0000 H   0  0  0  0  0  0  0  0  0  0  0  0
    2.4876   -7.3372    0.0000 H   0  0  0  0  0  0  0  0  0  0  0  0
    3.2281   -7.3372    0.0000 H   0  0  0  0  0  0  0  0  0  0  0  0
    3.9426   -5.4503    0.0000 H   0  0  0  0  0  0  0  0  0  0  0  0
    3.2021   -5.4503    0.0000 H   0  0  0  0  0  0  0  0  0  0  0  0
    3.9166   -7.3372    0.0000 H   0  0  0  0  0  0  0  0  0  0  0  0
    4.6571   -7.3372    0.0000 H   0  0  0  0  0  0  0  0  0  0  0  0
    5.3716   -5.4503    0.0000 H   0  0  0  0  0  0  0  0  0  0  0  0
    4.6310   -5.4503    0.0000 H   0  0  0  0  0  0  0  0  0  0  0  0
    5.3455   -7.3372    0.0000 H   0  0  0  0  0  0  0  0  0  0  0  0
    6.0860   -7.3372    0.0000 H   0  0  0  0  0  0  0  0  0  0  0  0
    6.8005   -5.4503    0.0000 H   0  0  0  0  0  0  0  0  0  0  0  0
    6.0600   -5.4503    0.0000 H   0  0  0  0  0  0  0  0  0  0  0  0
    6.7745   -7.3372    0.0000 H   0  0  0  0  0  0  0  0  0  0  0  0
    7.5150   -7.3372    0.0000 H   0  0  0  0  0  0  0  0  0  0  0  0
    8.2294   -5.4503    0.0000 H   0  0  0  0  0  0  0  0  0  0  0  0
    7.4889   -5.4503    0.0000 H   0  0  0  0  0  0  0  0  0  0  0  0
   10.7171   -5.3625    0.0000 H   0  0  0  0  0  0  0  0  0  0  0  0
   12.1460   -6.1875    0.0000 H   0  0  0  0  0  0  0  0  0  0  0  0
   10.7171   -8.6625    0.0000 H   0  0  0  0  0  0  0  0  0  0  0  0
    9.2881   -7.8375    0.0000 H   0  0  0  0  0  0  0  0  0  0  0  0
   13.5750   -7.8375    0.0000 H   0  0  0  0  0  0  0  0  0  0  0  0
  1  2  1  0  0  0  0
  2  3  1  0  0  0  0
  3  4  1  0  0  0  0
  4  5  1  0  0  0  0
  5  6  1  0  0  0  0
  6  7  1  0  0  0  0
  7  8  1  0  0  0  0
  8  9  1  0  0  0  0
  9 10  1  0  0  0  0
 10 11  2  0  0  0  0
 10 12  1  0  0  0  0
 12 13  1  0  0  0  0
 13 14  4  0  0  0  0
 14 15  4  0  0  0  0
 15 16  4  0  0  0  0
 16 17  4  0  0  0  0
 17 18  4  0  0  0  0
 13 18  4  0  0  0  0
 16 19  1  0  0  0  0
 19 20  1  0  0  0  0
 19 21  2  0  0  0  0
  1 22  1  0  0  0  0
  1 23  1  0  0  0  0
  1 24  1  0  0  0  0
  2 25  1  0  0  0  0
  2 26  1  0  0  0  0
  3 27  1  0  0  0  0
  3 28  1  0  0  0  0
  4 29  1  0  0  0  0
  4 30  1  0  0  0  0
  5 31  1  0  0  0  0
  5 32  1  0  0  0  0
  6 33  1  0  0  0  0
  6 34  1  0  0  0  0
  7 35  1  0  0  0  0
  7 36  1  0  0  0  0
  8 37  1  0  0  0  0
  8 38  1  0  0  0  0
  9 39  1  0  0  0  0
  9 40  1  0  0  0  0
 14 41  1  0  0  0  0
 15 42  1  0  0  0  0
 17 43  1  0  0  0  0
 18 44  1  0  0  0  0
 20 45  1  0  0  0  0
M  END
>  <InChIKey>
QTMHHQFADWIZCP-UHFFFAOYSA-N

>  <UN GHS>
Non-irritant

>  <CASRN>
86960-46-5

> <Outcome>
0

>  <Index>
656

>  <StandardizerResult>
Dearomatize (ID: Dearomatize)
Clear Stereo (ID: ClearStereo)
Wedge Clean (ID: WedgeClean)
Mesomerize (ID: Mesomerize)
Tautomerize (ID: Tautomerize)
Aromatize (ID: Aromatize)
Add Explicit Hydrogens (ID: AddExplicitH)
Neutralize (ID: Neutralize)
Clean 2D (ID: Clean2D)

> <knn Distance>
3.46410155296326

> <CpId>
656

$$$$
657
  Mrv1532301301811342D          

 50 51  0  0  0  0            999 V2000
   -5.7082   -6.5763    0.0000 C   0  0  0  0  0  0  0  0  0  0  0  0
   -4.9937   -6.9888    0.0000 C   0  0  0  0  0  0  0  0  0  0  0  0
   -4.2793   -6.5763    0.0000 C   0  0  0  0  0  0  0  0  0  0  0  0
   -3.5648   -6.9888    0.0000 C   0  0  0  0  0  0  0  0  0  0  0  0
   -2.8503   -6.5763    0.0000 C   0  0  0  0  0  0  0  0  0  0  0  0
   -2.1358   -6.9888    0.0000 C   0  0  0  0  0  0  0  0  0  0  0  0
   -1.4214   -6.5763    0.0000 C   0  0  0  0  0  0  0  0  0  0  0  0
   -0.7069   -6.9888    0.0000 C   0  0  0  0  0  0  0  0  0  0  0  0
    0.0076   -6.5763    0.0000 O   0  0  0  0  0  0  0  0  0  0  0  0
    0.7220   -6.9888    0.0000 C   0  0  0  0  0  0  0  0  0  0  0  0
    1.4365   -6.5763    0.0000 C   0  0  0  0  0  0  0  0  0  0  0  0
    2.1510   -6.9888    0.0000 C   0  0  0  0  0  0  0  0  0  0  0  0
    2.1510   -7.8138    0.0000 C   0  0  0  0  0  0  0  0  0  0  0  0
    2.8655   -8.2263    0.0000 C   0  0  0  0  0  0  0  0  0  0  0  0
    2.8655   -9.0513    0.0000 O   0  0  0  0  0  0  0  0  0  0  0  0
    3.5799   -7.8138    0.0000 C   0  0  0  0  0  0  0  0  0  0  0  0
    3.5799   -6.9888    0.0000 C   0  0  0  0  0  0  0  0  0  0  0  0
    4.2944   -6.5763    0.0000 C   0  0  0  0  0  0  0  0  0  0  0  0
    5.0089   -6.9888    0.0000 C   0  0  0  0  0  0  0  0  0  0  0  0
    5.0089   -7.8138    0.0000 C   0  0  0  0  0  0  0  0  0  0  0  0
    4.2944   -8.2263    0.0000 C   0  0  0  0  0  0  0  0  0  0  0  0
    1.4365   -8.2263    0.0000 C   0  0  0  0  0  0  0  0  0  0  0  0
    1.4365   -9.0513    0.0000 O   0  0  0  0  0  0  0  0  0  0  0  0
    0.7220   -7.8138    0.0000 C   0  0  0  0  0  0  0  0  0  0  0  0
   -5.2957   -5.8619    0.0000 H   0  0  0  0  0  0  0  0  0  0  0  0
   -6.4227   -6.1638    0.0000 H   0  0  0  0  0  0  0  0  0  0  0  0
   -6.1207   -7.2908    0.0000 H   0  0  0  0  0  0  0  0  0  0  0  0
   -5.3640   -7.7261    0.0000 H   0  0  0  0  0  0  0  0  0  0  0  0
   -4.6235   -7.7261    0.0000 H   0  0  0  0  0  0  0  0  0  0  0  0
   -3.9090   -5.8391    0.0000 H   0  0  0  0  0  0  0  0  0  0  0  0
   -4.6495   -5.8391    0.0000 H   0  0  0  0  0  0  0  0  0  0  0  0
   -3.9350   -7.7261    0.0000 H   0  0  0  0  0  0  0  0  0  0  0  0
   -3.1945   -7.7261    0.0000 H   0  0  0  0  0  0  0  0  0  0  0  0
   -2.4801   -5.8391    0.0000 H   0  0  0  0  0  0  0  0  0  0  0  0
   -3.2206   -5.8391    0.0000 H   0  0  0  0  0  0  0  0  0  0  0  0
   -2.5061   -7.7261    0.0000 H   0  0  0  0  0  0  0  0  0  0  0  0
   -1.7656   -7.7261    0.0000 H   0  0  0  0  0  0  0  0  0  0  0  0
   -1.0511   -5.8391    0.0000 H   0  0  0  0  0  0  0  0  0  0  0  0
   -1.7916   -5.8391    0.0000 H   0  0  0  0  0  0  0  0  0  0  0  0
   -1.0772   -7.7261    0.0000 H   0  0  0  0  0  0  0  0  0  0  0  0
   -0.3366   -7.7261    0.0000 H   0  0  0  0  0  0  0  0  0  0  0  0
    1.4365   -5.7513    0.0000 H   0  0  0  0  0  0  0  0  0  0  0  0
    2.8655   -6.5763    0.0000 H   0  0  0  0  0  0  0  0  0  0  0  0
    2.8655   -7.4013    0.0000 H   0  0  0  0  0  0  0  0  0  0  0  0
    4.2944   -5.7513    0.0000 H   0  0  0  0  0  0  0  0  0  0  0  0
    5.7233   -6.5763    0.0000 H   0  0  0  0  0  0  0  0  0  0  0  0
    5.7233   -8.2263    0.0000 H   0  0  0  0  0  0  0  0  0  0  0  0
    4.2944   -9.0513    0.0000 H   0  0  0  0  0  0  0  0  0  0  0  0
    0.7220   -9.4638    0.0000 H   0  0  0  0  0  0  0  0  0  0  0  0
    0.0076   -8.2263    0.0000 H   0  0  0  0  0  0  0  0  0  0  0  0
  1  2  1  0  0  0  0
  2  3  1  0  0  0  0
  3  4  1  0  0  0  0
  4  5  1  0  0  0  0
  5  6  1  0  0  0  0
  6  7  1  0  0  0  0
  7  8  1  0  0  0  0
  8  9  1  0  0  0  0
  9 10  1  0  0  0  0
 10 11  4  0  0  0  0
 11 12  4  0  0  0  0
 12 13  4  0  0  0  0
 13 14  1  0  0  0  0
 14 15  2  0  0  0  0
 14 16  1  0  0  0  0
 16 17  4  0  0  0  0
 17 18  4  0  0  0  0
 18 19  4  0  0  0  0
 19 20  4  0  0  0  0
 20 21  4  0  0  0  0
 16 21  4  0  0  0  0
 13 22  4  0  0  0  0
 22 23  1  0  0  0  0
 22 24  4  0  0  0  0
 10 24  4  0  0  0  0
  1 25  1  0  0  0  0
  1 26  1  0  0  0  0
  1 27  1  0  0  0  0
  2 28  1  0  0  0  0
  2 29  1  0  0  0  0
  3 30  1  0  0  0  0
  3 31  1  0  0  0  0
  4 32  1  0  0  0  0
  4 33  1  0  0  0  0
  5 34  1  0  0  0  0
  5 35  1  0  0  0  0
  6 36  1  0  0  0  0
  6 37  1  0  0  0  0
  7 38  1  0  0  0  0
  7 39  1  0  0  0  0
  8 40  1  0  0  0  0
  8 41  1  0  0  0  0
 11 42  1  0  0  0  0
 12 43  1  0  0  0  0
 17 44  1  0  0  0  0
 18 45  1  0  0  0  0
 19 46  1  0  0  0  0
 20 47  1  0  0  0  0
 21 48  1  0  0  0  0
 23 49  1  0  0  0  0
 24 50  1  0  0  0  0
M  END
>  <InChIKey>
QUAMTGJKVDWJEQ-UHFFFAOYSA-N

>  <UN GHS>
Non-irritant

>  <CASRN>
1843-05-6

> <Outcome>
0

>  <Index>
657

>  <StandardizerResult>
Dearomatize (ID: Dearomatize)
Clear Stereo (ID: ClearStereo)
Wedge Clean (ID: WedgeClean)
Mesomerize (ID: Mesomerize)
Tautomerize (ID: Tautomerize)
Aromatize (ID: Aromatize)
Add Explicit Hydrogens (ID: AddExplicitH)
Neutralize (ID: Neutralize)
Clean 2D (ID: Clean2D)

> <knn Distance>
3.46410155296326

> <CpId>
657

$$$$
750
  Mrv1532301301811342D          

 46 48  0  0  0  0            999 V2000
   -0.9837    0.6718    0.0000 C   0  0  0  0  0  0  0  0  0  0  0  0
   -0.9837   -0.1532    0.0000 C   0  0  0  0  0  0  0  0  0  0  0  0
   -0.2692   -0.5657    0.0000 C   0  0  0  0  0  0  0  0  0  0  0  0
   -0.2692   -1.3907    0.0000 C   0  0  0  0  0  0  0  0  0  0  0  0
   -0.9837   -1.8032    0.0000 C   0  0  0  0  0  0  0  0  0  0  0  0
   -1.6982   -1.3907    0.0000 C   0  0  0  0  0  0  0  0  0  0  0  0
   -1.6982   -0.5657    0.0000 C   0  0  0  0  0  0  0  0  0  0  0  0
   -2.4127   -0.1532    0.0000 O   0  0  0  0  0  0  0  0  0  0  0  0
    0.4452   -1.8032    0.0000 C   0  0  0  0  0  0  0  0  0  0  0  0
    1.2577   -1.9465    0.0000 C   0  0  0  0  0  0  0  0  0  0  0  0
    1.5399   -2.7217    0.0000 C   0  0  0  0  0  0  0  0  0  0  0  0
    1.0096   -3.3537    0.0000 C   0  0  0  0  0  0  0  0  0  0  0  0
    0.1971   -3.2105    0.0000 C   0  0  0  0  0  0  0  0  0  0  0  0
   -0.0851   -2.4352    0.0000 C   0  0  0  0  0  0  0  0  0  0  0  0
    0.7274   -1.0280    0.0000 C   0  0  0  0  0  0  0  0  0  0  0  0
    0.1971   -0.3960    0.0000 C   0  0  0  0  0  0  0  0  0  0  0  0
    0.4793    0.3792    0.0000 C   0  0  0  0  0  0  0  0  0  0  0  0
    1.2917    0.5225    0.0000 C   0  0  0  0  0  0  0  0  0  0  0  0
    1.5739    1.2978    0.0000 O   0  0  0  0  0  0  0  0  0  0  0  0
    1.8220   -0.1095    0.0000 C   0  0  0  0  0  0  0  0  0  0  0  0
    2.6345    0.0338    0.0000 C   0  0  0  0  0  0  0  0  0  0  0  0
    1.5399   -0.8847    0.0000 C   0  0  0  0  0  0  0  0  0  0  0  0
   -0.1587    0.6718    0.0000 H   0  0  0  0  0  0  0  0  0  0  0  0
   -0.9837    1.4968    0.0000 H   0  0  0  0  0  0  0  0  0  0  0  0
   -1.8087    0.6718    0.0000 H   0  0  0  0  0  0  0  0  0  0  0  0
   -0.1973    0.2561    0.0000 H   0  0  0  0  0  0  0  0  0  0  0  0
   -0.9837   -2.6282    0.0000 H   0  0  0  0  0  0  0  0  0  0  0  0
   -2.4127   -1.8032    0.0000 H   0  0  0  0  0  0  0  0  0  0  0  0
   -2.4127    0.6718    0.0000 H   0  0  0  0  0  0  0  0  0  0  0  0
    2.0152   -1.6197    0.0000 H   0  0  0  0  0  0  0  0  0  0  0  0
    1.4480   -1.1437    0.0000 H   0  0  0  0  0  0  0  0  0  0  0  0
    2.2016   -3.2144    0.0000 H   0  0  0  0  0  0  0  0  0  0  0  0
    2.3302   -2.4851    0.0000 H   0  0  0  0  0  0  0  0  0  0  0  0
    0.9138   -4.1731    0.0000 H   0  0  0  0  0  0  0  0  0  0  0  0
    1.6096   -3.9199    0.0000 H   0  0  0  0  0  0  0  0  0  0  0  0
   -0.5604   -3.5372    0.0000 H   0  0  0  0  0  0  0  0  0  0  0  0
    0.0068   -4.0132    0.0000 H   0  0  0  0  0  0  0  0  0  0  0  0
   -0.5107   -1.7285    0.0000 H   0  0  0  0  0  0  0  0  0  0  0  0
    0.7274   -2.5785    0.0000 H   0  0  0  0  0  0  0  0  0  0  0  0
   -0.0164   -1.1929    0.0000 H   0  0  0  0  0  0  0  0  0  0  0  0
    0.5843    1.1975    0.0000 H   0  0  0  0  0  0  0  0  0  0  0  0
    2.3864    1.4410    0.0000 H   0  0  0  0  0  0  0  0  0  0  0  0
    2.7778   -0.7787    0.0000 H   0  0  0  0  0  0  0  0  0  0  0  0
    3.4470    0.1770    0.0000 H   0  0  0  0  0  0  0  0  0  0  0  0
    2.4912    0.8462    0.0000 H   0  0  0  0  0  0  0  0  0  0  0  0
    2.3596   -0.7921    0.0000 H   0  0  0  0  0  0  0  0  0  0  0  0
  1  2  1  0  0  0  0
  2  3  4  0  0  0  0
  3  4  4  0  0  0  0
  4  5  4  0  0  0  0
  5  6  4  0  0  0  0
  6  7  4  0  0  0  0
  2  7  4  0  0  0  0
  7  8  1  0  0  0  0
  4  9  1  0  0  0  0
  9 10  1  0  0  0  0
 10 11  1  0  0  0  0
 11 12  1  0  0  0  0
 12 13  1  0  0  0  0
 13 14  1  0  0  0  0
  9 14  1  0  0  0  0
  9 15  1  0  0  0  0
 15 16  4  0  0  0  0
 16 17  4  0  0  0  0
 17 18  4  0  0  0  0
 18 19  1  0  0  0  0
 18 20  4  0  0  0  0
 20 21  1  0  0  0  0
 20 22  4  0  0  0  0
 15 22  4  0  0  0  0
  1 23  1  0  0  0  0
  1 24  1  0  0  0  0
  1 25  1  0  0  0  0
  3 26  1  0  0  0  0
  5 27  1  0  0  0  0
  6 28  1  0  0  0  0
  8 29  1  0  0  0  0
 10 30  1  0  0  0  0
 10 31  1  0  0  0  0
 11 32  1  0  0  0  0
 11 33  1  0  0  0  0
 12 34  1  0  0  0  0
 12 35  1  0  0  0  0
 13 36  1  0  0  0  0
 13 37  1  0  0  0  0
 14 38  1  0  0  0  0
 14 39  1  0  0  0  0
 16 40  1  0  0  0  0
 17 41  1  0  0  0  0
 19 42  1  0  0  0  0
 21 43  1  0  0  0  0
 21 44  1  0  0  0  0
 21 45  1  0  0  0  0
 22 46  1  0  0  0  0
M  END
>  <InChIKey>
SVOBELCYOCEECO-UHFFFAOYSA-N

>  <UN GHS>
Non-irritant

>  <CASRN>
2362-14-3

> <Outcome>
0

>  <Index>
750

>  <StandardizerResult>
Dearomatize (ID: Dearomatize)
Clear Stereo (ID: ClearStereo)
Wedge Clean (ID: WedgeClean)
Mesomerize (ID: Mesomerize)
Tautomerize (ID: Tautomerize)
Aromatize (ID: Aromatize)
Add Explicit Hydrogens (ID: AddExplicitH)
Neutralize (ID: Neutralize)
Clean 2D (ID: Clean2D)

> <knn Distance>
3.46410155296326

> <CpId>
750

$$$$
796
  Mrv1532301301811342D          

  8  7  0  0  0  0            999 V2000
    1.2375    0.7145    0.0000 N   0  0  0  0  0  0  0  0  0  0  0  0
    0.8250   -0.0000    0.0000 C   0  0  0  0  0  0  0  0  0  0  0  0
    1.2375   -0.7145    0.0000 N   0  0  0  0  0  0  0  0  0  0  0  0
   -0.0000   -0.0000    0.0000 S   0  0  0  0  0  0  0  0  0  0  0  0
    2.0625    0.7145    0.0000 H   0  0  0  0  0  0  0  0  0  0  0  0
    0.8250    1.4289    0.0000 H   0  0  0  0  0  0  0  0  0  0  0  0
    0.8250   -1.4289    0.0000 H   0  0  0  0  0  0  0  0  0  0  0  0
    2.0625   -0.7145    0.0000 H   0  0  0  0  0  0  0  0  0  0  0  0
  1  2  1  0  0  0  0
  2  3  1  0  0  0  0
  2  4  2  0  0  0  0
  1  5  1  0  0  0  0
  1  6  1  0  0  0  0
  3  7  1  0  0  0  0
  3  8  1  0  0  0  0
M  END
>  <InChIKey>
UMGDCJDMYOKAJW-UHFFFAOYSA-N

>  <UN GHS>
Non-irritant

>  <CASRN>
62-56-6

> <Outcome>
0

>  <Index>
796

>  <StandardizerResult>
Clear Stereo (ID: ClearStereo)
Wedge Clean (ID: WedgeClean)
Mesomerize (ID: Mesomerize)
Tautomerize (ID: Tautomerize)
Add Explicit Hydrogens (ID: AddExplicitH)
Neutralize (ID: Neutralize)
Clean 2D (ID: Clean2D)

> <knn Distance>
3.46410155296326

> <CpId>
796

$$$$
861
  Mrv1532301301811342D          

 19 18  0  0  0  0            999 V2000
    4.7026    2.7181    0.0000 N   0  0  0  0  0  0  0  0  0  0  0  0
    4.7026    1.8931    0.0000 C   0  0  0  0  0  0  0  0  0  0  0  0
    3.9881    1.4806    0.0000 C   0  0  0  0  0  0  0  0  0  0  0  0
    3.2737    1.8931    0.0000 C   0  0  0  0  0  0  0  0  0  0  0  0
    2.5592    1.4806    0.0000 C   0  0  0  0  0  0  0  0  0  0  0  0
    1.8447    1.8931    0.0000 O   0  0  0  0  0  0  0  0  0  0  0  0
    2.5592    0.6556    0.0000 O   0  0  0  0  0  0  0  0  0  0  0  0
    5.4171    1.4806    0.0000 C   0  0  0  0  0  0  0  0  0  0  0  0
    6.1316    1.8931    0.0000 O   0  0  0  0  0  0  0  0  0  0  0  0
    5.4171    0.6556    0.0000 O   0  0  0  0  0  0  0  0  0  0  0  0
    5.4171    3.1306    0.0000 H   0  0  0  0  0  0  0  0  0  0  0  0
    3.9881    3.1306    0.0000 H   0  0  0  0  0  0  0  0  0  0  0  0
    3.9881    2.3056    0.0000 H   0  0  0  0  0  0  0  0  0  0  0  0
    3.6179    0.7434    0.0000 H   0  0  0  0  0  0  0  0  0  0  0  0
    4.3584    0.7434    0.0000 H   0  0  0  0  0  0  0  0  0  0  0  0
    3.1304    2.7056    0.0000 H   0  0  0  0  0  0  0  0  0  0  0  0
    2.6417    2.4234    0.0000 H   0  0  0  0  0  0  0  0  0  0  0  0
    1.0201    1.8669    0.0000 H   0  0  0  0  0  0  0  0  0  0  0  0
    6.8460    1.4806    0.0000 H   0  0  0  0  0  0  0  0  0  0  0  0
  1  2  1  0  0  0  0
  2  3  1  0  0  0  0
  3  4  1  0  0  0  0
  4  5  1  0  0  0  0
  5  6  1  0  0  0  0
  5  7  2  0  0  0  0
  2  8  1  0  0  0  0
  8  9  1  0  0  0  0
  8 10  2  0  0  0  0
  1 11  1  0  0  0  0
  1 12  1  0  0  0  0
  2 13  1  0  0  0  0
  3 14  1  0  0  0  0
  3 15  1  0  0  0  0
  4 16  1  0  0  0  0
  4 17  1  0  0  0  0
  6 18  1  0  0  0  0
  9 19  1  0  0  0  0
M  END
>  <InChIKey>
WHUUTDBJXJRKMK-UHFFFAOYSA-N

>  <UN GHS>
Non-irritant

>  <CASRN>
56-86-0

> <Outcome>
0

>  <Index>
861

>  <StandardizerResult>
Clear Stereo (ID: ClearStereo)
Wedge Clean (ID: WedgeClean)
Mesomerize (ID: Mesomerize)
Tautomerize (ID: Tautomerize)
Add Explicit Hydrogens (ID: AddExplicitH)
Neutralize (ID: Neutralize)
Clean 2D (ID: Clean2D)

> <knn Distance>
3.46410155296326

> <CpId>
861

$$$$
881
  Mrv1532301301811342D          

 26 27  0  0  0  0            999 V2000
   -0.7914    0.7468    0.0000 C   0  0  0  0  0  0  0  0  0  0  0  0
   -0.1594    0.2165    0.0000 C   0  0  0  0  0  0  0  0  0  0  0  0
   -0.7914   -0.3138    0.0000 C   0  0  0  0  0  0  0  0  0  0  0  0
    0.2531    0.9310    0.0000 C   0  0  0  0  0  0  0  0  0  0  0  0
    0.4317    0.2165    0.0000 C   0  0  0  0  0  0  0  0  0  0  0  0
    0.2531   -0.4979    0.0000 C   0  0  0  0  0  0  0  0  0  0  0  0
    1.0781   -0.4979    0.0000 C   0  0  0  0  0  0  0  0  0  0  0  0
    1.4906   -1.2124    0.0000 C   0  0  0  0  0  0  0  0  0  0  0  0
    1.4906    0.2165    0.0000 C   0  0  0  0  0  0  0  0  0  0  0  0
    1.0781    0.9310    0.0000 C   0  0  0  0  0  0  0  0  0  0  0  0
   -0.2611    1.3788    0.0000 H   0  0  0  0  0  0  0  0  0  0  0  0
   -1.4233    1.2771    0.0000 H   0  0  0  0  0  0  0  0  0  0  0  0
   -1.3217    0.1148    0.0000 H   0  0  0  0  0  0  0  0  0  0  0  0
   -1.5342   -0.6727    0.0000 H   0  0  0  0  0  0  0  0  0  0  0  0
   -0.7838   -1.1387    0.0000 H   0  0  0  0  0  0  0  0  0  0  0  0
   -0.0421   -0.6590    0.0000 H   0  0  0  0  0  0  0  0  0  0  0  0
    0.5424    1.7036    0.0000 H   0  0  0  0  0  0  0  0  0  0  0  0
    1.2250   -0.0102    0.0000 H   0  0  0  0  0  0  0  0  0  0  0  0
    1.2250    0.4433    0.0000 H   0  0  0  0  0  0  0  0  0  0  0  0
    0.4570   -1.2973    0.0000 H   0  0  0  0  0  0  0  0  0  0  0  0
    1.0781   -1.9269    0.0000 H   0  0  0  0  0  0  0  0  0  0  0  0
    2.3156   -1.2124    0.0000 H   0  0  0  0  0  0  0  0  0  0  0  0
    2.2279   -0.1537    0.0000 H   0  0  0  0  0  0  0  0  0  0  0  0
    2.2279    0.5868    0.0000 H   0  0  0  0  0  0  0  0  0  0  0  0
    1.8856    1.1003    0.0000 H   0  0  0  0  0  0  0  0  0  0  0  0
    1.5758    1.5890    0.0000 H   0  0  0  0  0  0  0  0  0  0  0  0
  1  2  1  0  0  0  0
  2  3  1  0  0  0  0
  2  4  1  0  0  0  0
  4  5  1  0  0  0  0
  5  6  1  0  0  0  0
  2  6  1  0  0  0  0
  6  7  1  0  0  0  0
  7  8  2  0  0  0  0
  7  9  1  0  0  0  0
  9 10  1  0  0  0  0
  4 10  1  0  0  0  0
  1 11  1  0  0  0  0
  1 12  1  0  0  0  0
  1 13  1  0  0  0  0
  3 14  1  0  0  0  0
  3 15  1  0  0  0  0
  3 16  1  0  0  0  0
  4 17  1  0  0  0  0
  5 18  1  0  0  0  0
  5 19  1  0  0  0  0
  6 20  1  0  0  0  0
  8 21  1  0  0  0  0
  8 22  1  0  0  0  0
  9 23  1  0  0  0  0
  9 24  1  0  0  0  0
 10 25  1  0  0  0  0
 10 26  1  0  0  0  0
M  END
>  <InChIKey>
WTARULDDTDQWMU-UHFFFAOYSA-N

>  <UN GHS>
Non-irritant

>  <CASRN>
127-91-3

> <Outcome>
0

>  <Index>
881

>  <StandardizerResult>
Clear Stereo (ID: ClearStereo)
Wedge Clean (ID: WedgeClean)
Mesomerize (ID: Mesomerize)
Tautomerize (ID: Tautomerize)
Add Explicit Hydrogens (ID: AddExplicitH)
Neutralize (ID: Neutralize)
Clean 2D (ID: Clean2D)

> <knn Distance>
3.46410155296326

> <CpId>
881

$$$$
929
  Mrv1532301301811342D          

 25 24  0  0  0  0            999 V2000
    0.8408    2.9195    0.0000 C   0  0  0  0  0  0  0  0  0  0  0  0
    1.2533    2.2050    0.0000 O   0  0  0  0  0  0  0  0  0  0  0  0
    0.8408    1.4905    0.0000 C   0  0  0  0  0  0  0  0  0  0  0  0
    0.0158    1.4905    0.0000 O   0  0  0  0  0  0  0  0  0  0  0  0
    1.2533    0.7761    0.0000 C   0  0  0  0  0  0  0  0  0  0  0  0
    0.8408    0.0616    0.0000 C   0  0  0  0  0  0  0  0  0  0  0  0
    0.0158    0.0616    0.0000 C   0  0  0  0  0  0  0  0  0  0  0  0
   -0.3967    0.7761    0.0000 C   0  0  0  0  0  0  0  0  0  0  0  0
   -0.3967   -0.6529    0.0000 O   0  0  0  0  0  0  0  0  0  0  0  0
    1.2533   -0.6529    0.0000 C   0  0  0  0  0  0  0  0  0  0  0  0
    2.0783   -0.6529    0.0000 O   0  0  0  0  0  0  0  0  0  0  0  0
    0.8408   -1.3674    0.0000 O   0  0  0  0  0  0  0  0  0  0  0  0
    1.2533   -2.0818    0.0000 C   0  0  0  0  0  0  0  0  0  0  0  0
    1.5553    3.3320    0.0000 H   0  0  0  0  0  0  0  0  0  0  0  0
    0.4283    3.6339    0.0000 H   0  0  0  0  0  0  0  0  0  0  0  0
    0.1263    2.5070    0.0000 H   0  0  0  0  0  0  0  0  0  0  0  0
    1.9905    0.4058    0.0000 H   0  0  0  0  0  0  0  0  0  0  0  0
    1.9905    1.1463    0.0000 H   0  0  0  0  0  0  0  0  0  0  0  0
   -0.8092    1.4905    0.0000 H   0  0  0  0  0  0  0  0  0  0  0  0
   -1.2217    0.7761    0.0000 H   0  0  0  0  0  0  0  0  0  0  0  0
   -0.8092    0.0616    0.0000 H   0  0  0  0  0  0  0  0  0  0  0  0
   -0.3967   -1.4779    0.0000 H   0  0  0  0  0  0  0  0  0  0  0  0
    0.5388   -2.4943    0.0000 H   0  0  0  0  0  0  0  0  0  0  0  0
    1.6658   -2.7963    0.0000 H   0  0  0  0  0  0  0  0  0  0  0  0
    1.9678   -1.6693    0.0000 H   0  0  0  0  0  0  0  0  0  0  0  0
  1  2  1  0  0  0  0
  2  3  1  0  0  0  0
  3  4  2  0  0  0  0
  3  5  1  0  0  0  0
  5  6  1  0  0  0  0
  6  7  2  0  0  0  0
  7  8  1  4  0  0  0
  7  9  1  0  0  0  0
  6 10  1  0  0  0  0
 10 11  2  0  0  0  0
 10 12  1  0  0  0  0
 12 13  1  0  0  0  0
  1 14  1  0  0  0  0
  1 15  1  0  0  0  0
  1 16  1  0  0  0  0
  5 17  1  0  0  0  0
  5 18  1  0  0  0  0
  8 19  1  0  0  0  0
  8 20  1  0  0  0  0
  8 21  1  0  0  0  0
  9 22  1  0  0  0  0
 13 23  1  0  0  0  0
 13 24  1  0  0  0  0
 13 25  1  0  0  0  0
M  END
>  <InChIKey>
XREKLQOUFWBSFH-UHFFFAOYSA-N

>  <UN GHS>
Non-irritant

>  <CASRN>
10420-33-4

> <Outcome>
0

>  <Index>
929

>  <StandardizerResult>
Clear Stereo (ID: ClearStereo)
Wedge Clean (ID: WedgeClean)
Mesomerize (ID: Mesomerize)
Tautomerize (ID: Tautomerize)
Add Explicit Hydrogens (ID: AddExplicitH)
Neutralize (ID: Neutralize)
Clean 2D (ID: Clean2D)

> <knn Distance>
3.46410155296326

> <CpId>
929

$$$$
930
  Mrv1532301301811342D          

 45 45  0  0  0  0            999 V2000
    4.6499    1.8541    0.0000 O   0  0  0  0  0  0  0  0  0  0  0  0
    4.2786    1.1173    0.0000 C   0  0  0  0  0  0  0  0  0  0  0  0
    5.0975    1.0170    0.0000 C   0  0  0  0  0  0  0  0  0  0  0  0
    5.2551    0.2072    0.0000 C   0  0  0  0  0  0  0  0  0  0  0  0
    4.5336   -0.1929    0.0000 C   0  0  0  0  0  0  0  0  0  0  0  0
    4.2031   -1.0331    0.0000 C   0  0  0  0  0  0  0  0  0  0  0  0
    3.3933   -1.1906    0.0000 C   0  0  0  0  0  0  0  0  0  0  0  0
    3.1249   -1.9708    0.0000 C   0  0  0  0  0  0  0  0  0  0  0  0
    2.3150   -2.1283    0.0000 C   0  0  0  0  0  0  0  0  0  0  0  0
    1.7737   -1.5058    0.0000 C   0  0  0  0  0  0  0  0  0  0  0  0
    0.9639   -1.6634    0.0000 C   0  0  0  0  0  0  0  0  0  0  0  0
    0.4225   -1.0409    0.0000 C   0  0  0  0  0  0  0  0  0  0  0  0
    0.6909   -0.2608    0.0000 C   0  0  0  0  0  0  0  0  0  0  0  0
    1.5007   -0.1032    0.0000 C   0  0  0  0  0  0  0  0  0  0  0  0
    2.0421   -0.7257    0.0000 O   0  0  0  0  0  0  0  0  0  0  0  0
    1.7691    0.6769    0.0000 O   0  0  0  0  0  0  0  0  0  0  0  0
    2.5789    0.8345    0.0000 C   0  0  0  0  0  0  0  0  0  0  0  0
    2.8474    1.6146    0.0000 C   0  0  0  0  0  0  0  0  0  0  0  0
    3.6572    1.7722    0.0000 O   0  0  0  0  0  0  0  0  0  0  0  0
    5.9218    0.9835    0.0000 H   0  0  0  0  0  0  0  0  0  0  0  0
    5.7156    1.5634    0.0000 H   0  0  0  0  0  0  0  0  0  0  0  0
    5.7517   -0.4516    0.0000 H   0  0  0  0  0  0  0  0  0  0  0  0
    6.0790    0.2505    0.0000 H   0  0  0  0  0  0  0  0  0  0  0  0
    4.1931    0.5585    0.0000 H   0  0  0  0  0  0  0  0  0  0  0  0
    3.7440    0.0461    0.0000 H   0  0  0  0  0  0  0  0  0  0  0  0
    4.3940   -1.8357    0.0000 H   0  0  0  0  0  0  0  0  0  0  0  0
    4.9577   -1.3665    0.0000 H   0  0  0  0  0  0  0  0  0  0  0  0
    3.1889   -0.3914    0.0000 H   0  0  0  0  0  0  0  0  0  0  0  0
    2.6301   -0.8773    0.0000 H   0  0  0  0  0  0  0  0  0  0  0  0
    3.3293   -2.7700    0.0000 H   0  0  0  0  0  0  0  0  0  0  0  0
    3.8880   -2.2841    0.0000 H   0  0  0  0  0  0  0  0  0  0  0  0
    1.7251   -2.7050    0.0000 H   0  0  0  0  0  0  0  0  0  0  0  0
    2.4253   -2.9459    0.0000 H   0  0  0  0  0  0  0  0  0  0  0  0
    1.2323   -0.8833    0.0000 H   0  0  0  0  0  0  0  0  0  0  0  0
    2.5835   -1.3482    0.0000 H   0  0  0  0  0  0  0  0  0  0  0  0
    0.3739   -2.2401    0.0000 H   0  0  0  0  0  0  0  0  0  0  0  0
    1.0741   -2.4810    0.0000 H   0  0  0  0  0  0  0  0  0  0  0  0
   -0.3719   -0.8183    0.0000 H   0  0  0  0  0  0  0  0  0  0  0  0
   -0.2305   -1.5452    0.0000 H   0  0  0  0  0  0  0  0  0  0  0  0
    0.4865    0.5385    0.0000 H   0  0  0  0  0  0  0  0  0  0  0  0
   -0.0723    0.0526    0.0000 H   0  0  0  0  0  0  0  0  0  0  0  0
    2.7834    0.0352    0.0000 H   0  0  0  0  0  0  0  0  0  0  0  0
    3.3421    0.5212    0.0000 H   0  0  0  0  0  0  0  0  0  0  0  0
    2.6430    2.4139    0.0000 H   0  0  0  0  0  0  0  0  0  0  0  0
    2.0842    1.9280    0.0000 H   0  0  0  0  0  0  0  0  0  0  0  0
  1  2  2  0  0  0  0
  2  3  1  0  0  0  0
  3  4  1  0  0  0  0
  4  5  1  0  0  0  0
  5  6  1  0  0  0  0
  6  7  1  0  0  0  0
  7  8  1  0  0  0  0
  8  9  1  0  0  0  0
  9 10  1  0  0  0  0
 10 11  1  0  0  0  0
 11 12  1  0  0  0  0
 12 13  1  0  0  0  0
 13 14  1  0  0  0  0
 14 15  2  0  0  0  0
 14 16  1  0  0  0  0
 16 17  1  0  0  0  0
 17 18  1  0  0  0  0
 18 19  1  0  0  0  0
  2 19  1  0  0  0  0
  3 20  1  0  0  0  0
  3 21  1  0  0  0  0
  4 22  1  0  0  0  0
  4 23  1  0  0  0  0
  5 24  1  0  0  0  0
  5 25  1  0  0  0  0
  6 26  1  0  0  0  0
  6 27  1  0  0  0  0
  7 28  1  0  0  0  0
  7 29  1  0  0  0  0
  8 30  1  0  0  0  0
  8 31  1  0  0  0  0
  9 32  1  0  0  0  0
  9 33  1  0  0  0  0
 10 34  1  0  0  0  0
 10 35  1  0  0  0  0
 11 36  1  0  0  0  0
 11 37  1  0  0  0  0
 12 38  1  0  0  0  0
 12 39  1  0  0  0  0
 13 40  1  0  0  0  0
 13 41  1  0  0  0  0
 17 42  1  0  0  0  0
 17 43  1  0  0  0  0
 18 44  1  0  0  0  0
 18 45  1  0  0  0  0
M  END
>  <InChIKey>
XRHCAGNSDHCHFJ-UHFFFAOYSA-N

>  <UN GHS>
Non-irritant

>  <CASRN>
105-95-3

> <Outcome>
0

>  <Index>
930

>  <StandardizerResult>
Clear Stereo (ID: ClearStereo)
Wedge Clean (ID: WedgeClean)
Mesomerize (ID: Mesomerize)
Tautomerize (ID: Tautomerize)
Add Explicit Hydrogens (ID: AddExplicitH)
Neutralize (ID: Neutralize)
Clean 2D (ID: Clean2D)

> <knn Distance>
3.46410155296326

> <CpId>
930

$$$$
1129
  Mrv1532301301811342D          

 30 30  0  0  0  0            999 V2000
   -1.4294    4.9497    0.0000 C   0  0  0  0  0  0  0  0  0  0  0  0
   -0.7150    4.5372    0.0000 C   0  0  0  0  0  0  0  0  0  0  0  0
   -0.7150    3.7122    0.0000 O   0  0  0  0  0  0  0  0  0  0  0  0
   -0.0005    3.2997    0.0000 C   0  0  0  0  0  0  0  0  0  0  0  0
    0.7140    3.7122    0.0000 O   0  0  0  0  0  0  0  0  0  0  0  0
   -0.0005    2.4747    0.0000 C   0  0  0  0  0  0  0  0  0  0  0  0
    0.7140    2.0622    0.0000 C   0  0  0  0  0  0  0  0  0  0  0  0
    0.7140    1.2372    0.0000 C   0  0  0  0  0  0  0  0  0  0  0  0
    1.4284    0.8247    0.0000 C   0  0  0  0  0  0  0  0  0  0  0  0
    1.4284   -0.0003    0.0000 C   0  0  0  0  0  0  0  0  0  0  0  0
    0.7140   -0.4128    0.0000 C   0  0  0  0  0  0  0  0  0  0  0  0
    0.7140   -1.2378    0.0000 O   0  0  0  0  0  0  0  0  0  0  0  0
   -0.0005   -0.0003    0.0000 C   0  0  0  0  0  0  0  0  0  0  0  0
   -0.7150   -0.4128    0.0000 O   0  0  0  0  0  0  0  0  0  0  0  0
   -1.4294   -0.0003    0.0000 C   0  0  0  0  0  0  0  0  0  0  0  0
   -0.0005    0.8247    0.0000 C   0  0  0  0  0  0  0  0  0  0  0  0
   -1.0169    5.6642    0.0000 H   0  0  0  0  0  0  0  0  0  0  0  0
   -2.1439    5.3622    0.0000 H   0  0  0  0  0  0  0  0  0  0  0  0
   -1.8419    4.2352    0.0000 H   0  0  0  0  0  0  0  0  0  0  0  0
    0.1086    4.5852    0.0000 H   0  0  0  0  0  0  0  0  0  0  0  0
   -0.2616    5.2265    0.0000 H   0  0  0  0  0  0  0  0  0  0  0  0
   -0.7150    2.0622    0.0000 H   0  0  0  0  0  0  0  0  0  0  0  0
    1.4284    2.4747    0.0000 H   0  0  0  0  0  0  0  0  0  0  0  0
    2.1429    1.2372    0.0000 H   0  0  0  0  0  0  0  0  0  0  0  0
    2.1429   -0.4128    0.0000 H   0  0  0  0  0  0  0  0  0  0  0  0
   -0.0005   -1.6503    0.0000 H   0  0  0  0  0  0  0  0  0  0  0  0
   -1.0169    0.7142    0.0000 H   0  0  0  0  0  0  0  0  0  0  0  0
   -2.1439    0.4122    0.0000 H   0  0  0  0  0  0  0  0  0  0  0  0
   -1.8419   -0.7148    0.0000 H   0  0  0  0  0  0  0  0  0  0  0  0
   -0.7150    1.2372    0.0000 H   0  0  0  0  0  0  0  0  0  0  0  0
  1  2  1  0  0  0  0
  2  3  1  0  0  0  0
  3  4  1  0  0  0  0
  4  5  2  0  0  0  0
  6  4  1  4  0  0  0
  6  7  2  0  0  0  0
  7  8  1  0  0  0  0
  8  9  4  0  0  0  0
  9 10  4  0  0  0  0
 10 11  4  0  0  0  0
 11 12  1  0  0  0  0
 11 13  4  0  0  0  0
 13 14  1  0  0  0  0
 14 15  1  0  0  0  0
 13 16  4  0  0  0  0
  8 16  4  0  0  0  0
  1 17  1  0  0  0  0
  1 18  1  0  0  0  0
  1 19  1  0  0  0  0
  2 20  1  0  0  0  0
  2 21  1  0  0  0  0
  6 22  1  0  0  0  0
  7 23  1  0  0  0  0
  9 24  1  0  0  0  0
 10 25  1  0  0  0  0
 12 26  1  0  0  0  0
 15 27  1  0  0  0  0
 15 28  1  0  0  0  0
 15 29  1  0  0  0  0
 16 30  1  0  0  0  0
M  END
>  <InChIKey>
InChI=1S/C12H14O4/c1-3-16-12(14)7-5-9-4-6-10(13)11(8-9)15-2/h4-8,13H,3H2,1-2H3

>  <CASRN>
4046-02-0

> <Outcome>
0

>  <Index>
1129

>  <StandardizerResult>
Dearomatize (ID: Dearomatize)
Clear Stereo (ID: ClearStereo)
Wedge Clean (ID: WedgeClean)
Mesomerize (ID: Mesomerize)
Tautomerize (ID: Tautomerize)
Aromatize (ID: Aromatize)
Add Explicit Hydrogens (ID: AddExplicitH)
Neutralize (ID: Neutralize)
Clean 2D (ID: Clean2D)

> <knn Distance>
3.46410155296326

> <CpId>
1129

$$$$
1139
  Mrv1532301301811342D          

 20 19  0  0  0  0            999 V2000
    1.2144    2.1779    0.0000 C   0  0  0  0  0  0  0  0  0  0  0  0
    0.8019    1.4634    0.0000 N   0  0  0  0  0  0  0  0  0  0  0  0
   -0.0231    1.4634    0.0000 C   0  0  0  0  0  0  0  0  0  0  0  0
    1.2144    0.7489    0.0000 C   0  0  0  0  0  0  0  0  0  0  0  0
    2.0394    0.7489    0.0000 O   0  0  0  0  0  0  0  0  0  0  0  0
    0.8019    0.0345    0.0000 N   0  0  0  0  0  0  0  0  0  0  0  0
    1.2144   -0.6800    0.0000 C   0  0  0  0  0  0  0  0  0  0  0  0
   -0.0231    0.0345    0.0000 C   0  0  0  0  0  0  0  0  0  0  0  0
    1.9288    1.7654    0.0000 H   0  0  0  0  0  0  0  0  0  0  0  0
    1.6269    2.8924    0.0000 H   0  0  0  0  0  0  0  0  0  0  0  0
    0.4999    2.5904    0.0000 H   0  0  0  0  0  0  0  0  0  0  0  0
   -0.0231    2.2884    0.0000 H   0  0  0  0  0  0  0  0  0  0  0  0
   -0.8481    1.4634    0.0000 H   0  0  0  0  0  0  0  0  0  0  0  0
   -0.0231    0.6384    0.0000 H   0  0  0  0  0  0  0  0  0  0  0  0
    0.4999   -1.0925    0.0000 H   0  0  0  0  0  0  0  0  0  0  0  0
    1.6269   -1.3945    0.0000 H   0  0  0  0  0  0  0  0  0  0  0  0
    1.9288   -0.2675    0.0000 H   0  0  0  0  0  0  0  0  0  0  0  0
   -0.7853    0.3502    0.0000 H   0  0  0  0  0  0  0  0  0  0  0  0
   -0.6065   -0.5489    0.0000 H   0  0  0  0  0  0  0  0  0  0  0  0
    0.2926   -0.7277    0.0000 H   0  0  0  0  0  0  0  0  0  0  0  0
  1  2  1  0  0  0  0
  2  3  1  0  0  0  0
  2  4  1  0  0  0  0
  4  5  2  0  0  0  0
  4  6  1  0  0  0  0
  6  7  1  0  0  0  0
  6  8  1  0  0  0  0
  1  9  1  0  0  0  0
  1 10  1  0  0  0  0
  1 11  1  0  0  0  0
  3 12  1  0  0  0  0
  3 13  1  0  0  0  0
  3 14  1  0  0  0  0
  7 15  1  0  0  0  0
  7 16  1  0  0  0  0
  7 17  1  0  0  0  0
  8 18  1  0  0  0  0
  8 19  1  0  0  0  0
  8 20  1  0  0  0  0
M  END
>  <InChIKey>
InChI=1S/C5H12N2O/c1-6(2)5(8)7(3)4/h1-4H3

>  <CASRN>
632-22-4

> <Outcome>
0

>  <Index>
1139

>  <StandardizerResult>
Clear Stereo (ID: ClearStereo)
Wedge Clean (ID: WedgeClean)
Mesomerize (ID: Mesomerize)
Tautomerize (ID: Tautomerize)
Add Explicit Hydrogens (ID: AddExplicitH)
Neutralize (ID: Neutralize)
Clean 2D (ID: Clean2D)

> <knn Distance>
3.46410155296326

> <CpId>
1139

$$$$
1174
  Mrv1532301301811342D          

 48 50  0  0  0  0            999 V2000
   -2.1136    1.1975    0.0000 C   0  0  0  0  0  0  0  0  0  0  0  0
   -1.3991    0.7850    0.0000 O   0  0  0  0  0  0  0  0  0  0  0  0
   -1.3991   -0.0400    0.0000 C   0  0  0  0  0  0  0  0  0  0  0  0
   -0.6847   -0.4525    0.0000 C   0  0  0  0  0  0  0  0  0  0  0  0
   -0.6847   -1.2775    0.0000 C   0  0  0  0  0  0  0  0  0  0  0  0
   -1.3991   -1.6900    0.0000 C   0  0  0  0  0  0  0  0  0  0  0  0
   -2.1136   -1.2775    0.0000 C   0  0  0  0  0  0  0  0  0  0  0  0
   -2.1136   -0.4525    0.0000 C   0  0  0  0  0  0  0  0  0  0  0  0
   -1.3991   -2.5150    0.0000 C   0  0  0  0  0  0  0  0  0  0  0  0
   -2.1136   -2.9275    0.0000 Cl  0  0  0  0  0  0  0  0  0  0  0  0
   -0.6847   -2.9275    0.0000 C   0  0  0  0  0  0  0  0  0  0  0  0
   -0.6847   -3.7525    0.0000 C   0  0  0  0  0  0  0  0  0  0  0  0
    0.0298   -4.1650    0.0000 C   0  0  0  0  0  0  0  0  0  0  0  0
    0.0298   -4.9900    0.0000 C   0  0  0  0  0  0  0  0  0  0  0  0
   -0.6847   -5.4025    0.0000 C   0  0  0  0  0  0  0  0  0  0  0  0
   -0.6847   -6.2275    0.0000 O   0  0  0  0  0  0  0  0  0  0  0  0
    0.0298   -6.6400    0.0000 C   0  0  0  0  0  0  0  0  0  0  0  0
   -1.3991   -4.9900    0.0000 C   0  0  0  0  0  0  0  0  0  0  0  0
   -1.3991   -4.1650    0.0000 C   0  0  0  0  0  0  0  0  0  0  0  0
    0.0298   -2.5150    0.0000 C   0  0  0  0  0  0  0  0  0  0  0  0
    0.0298   -1.6900    0.0000 C   0  0  0  0  0  0  0  0  0  0  0  0
    0.7443   -1.2775    0.0000 C   0  0  0  0  0  0  0  0  0  0  0  0
    1.4587   -1.6900    0.0000 C   0  0  0  0  0  0  0  0  0  0  0  0
    2.1732   -1.2775    0.0000 O   0  0  0  0  0  0  0  0  0  0  0  0
    2.8877   -1.6900    0.0000 C   0  0  0  0  0  0  0  0  0  0  0  0
    1.4587   -2.5150    0.0000 C   0  0  0  0  0  0  0  0  0  0  0  0
    0.7443   -2.9275    0.0000 C   0  0  0  0  0  0  0  0  0  0  0  0
   -1.7011    1.9120    0.0000 H   0  0  0  0  0  0  0  0  0  0  0  0
   -2.8281    1.6100    0.0000 H   0  0  0  0  0  0  0  0  0  0  0  0
   -2.5261    0.4831    0.0000 H   0  0  0  0  0  0  0  0  0  0  0  0
    0.0298   -0.0400    0.0000 H   0  0  0  0  0  0  0  0  0  0  0  0
   -0.6847   -2.1025    0.0000 H   0  0  0  0  0  0  0  0  0  0  0  0
   -2.8281   -1.6900    0.0000 H   0  0  0  0  0  0  0  0  0  0  0  0
   -2.8281   -0.0400    0.0000 H   0  0  0  0  0  0  0  0  0  0  0  0
    0.7443   -3.7525    0.0000 H   0  0  0  0  0  0  0  0  0  0  0  0
    0.7443   -5.4025    0.0000 H   0  0  0  0  0  0  0  0  0  0  0  0
   -0.3827   -7.3544    0.0000 H   0  0  0  0  0  0  0  0  0  0  0  0
    0.7443   -7.0525    0.0000 H   0  0  0  0  0  0  0  0  0  0  0  0
    0.4423   -5.9255    0.0000 H   0  0  0  0  0  0  0  0  0  0  0  0
   -2.1136   -5.4025    0.0000 H   0  0  0  0  0  0  0  0  0  0  0  0
   -2.1136   -3.7525    0.0000 H   0  0  0  0  0  0  0  0  0  0  0  0
    0.0298   -0.8650    0.0000 H   0  0  0  0  0  0  0  0  0  0  0  0
    1.1568   -0.5630    0.0000 H   0  0  0  0  0  0  0  0  0  0  0  0
    2.4752   -2.4044    0.0000 H   0  0  0  0  0  0  0  0  0  0  0  0
    3.6022   -2.1025    0.0000 H   0  0  0  0  0  0  0  0  0  0  0  0
    3.3002   -0.9755    0.0000 H   0  0  0  0  0  0  0  0  0  0  0  0
    2.1732   -2.9275    0.0000 H   0  0  0  0  0  0  0  0  0  0  0  0
    0.0298   -3.3400    0.0000 H   0  0  0  0  0  0  0  0  0  0  0  0
  1  2  1  0  0  0  0
  2  3  1  0  0  0  0
  3  4  4  0  0  0  0
  4  5  4  0  0  0  0
  5  6  4  0  0  0  0
  6  7  4  0  0  0  0
  7  8  4  0  0  0  0
  3  8  4  0  0  0  0
  6  9  1  0  0  0  0
  9 10  1  0  0  0  0
  9 11  2  0  0  0  0
 11 12  1  0  0  0  0
 12 13  4  0  0  0  0
 13 14  4  0  0  0  0
 14 15  4  0  0  0  0
 15 16  1  0  0  0  0
 16 17  1  0  0  0  0
 15 18  4  0  0  0  0
 18 19  4  0  0  0  0
 12 19  4  0  0  0  0
 11 20  1  0  0  0  0
 20 21  4  0  0  0  0
 21 22  4  0  0  0  0
 22 23  4  0  0  0  0
 23 24  1  0  0  0  0
 24 25  1  0  0  0  0
 23 26  4  0  0  0  0
 26 27  4  0  0  0  0
 20 27  4  0  0  0  0
  1 28  1  0  0  0  0
  1 29  1  0  0  0  0
  1 30  1  0  0  0  0
  4 31  1  0  0  0  0
  5 32  1  0  0  0  0
  7 33  1  0  0  0  0
  8 34  1  0  0  0  0
 13 35  1  0  0  0  0
 14 36  1  0  0  0  0
 17 37  1  0  0  0  0
 17 38  1  0  0  0  0
 17 39  1  0  0  0  0
 18 40  1  0  0  0  0
 19 41  1  0  0  0  0
 21 42  1  0  0  0  0
 22 43  1  0  0  0  0
 25 44  1  0  0  0  0
 25 45  1  0  0  0  0
 25 46  1  0  0  0  0
 26 47  1  0  0  0  0
 27 48  1  0  0  0  0
M  END
>  <InChIKey>
InChI=1S/C23H21ClO3/c1-25-19-10-4-16(5-11-19)22(17-6-12-20(26-2)13-7-17)23(24)18-8-14-21(27-3)15-9-18/h4-15H,1-3H3

>  <CASRN>
569-57-3

> <Outcome>
0

>  <Index>
1174

>  <StandardizerResult>
Dearomatize (ID: Dearomatize)
Clear Stereo (ID: ClearStereo)
Wedge Clean (ID: WedgeClean)
Mesomerize (ID: Mesomerize)
Tautomerize (ID: Tautomerize)
Aromatize (ID: Aromatize)
Add Explicit Hydrogens (ID: AddExplicitH)
Neutralize (ID: Neutralize)
Clean 2D (ID: Clean2D)

> <knn Distance>
3.46410155296326

> <CpId>
1174

$$$$
1188
  Mrv1532301301811342D          

 30 32  0  0  0  0            999 V2000
    2.8579   -2.4750    0.0000 O   0  0  0  0  0  0  0  0  0  0  0  0
    2.1434   -2.8875    0.0000 C   0  0  0  0  0  0  0  0  0  0  0  0
    1.4289   -2.4750    0.0000 O   0  0  0  0  0  0  0  0  0  0  0  0
    1.4289   -1.6500    0.0000 C   0  0  0  0  0  0  0  0  0  0  0  0
    0.7145   -1.2375    0.0000 C   0  0  0  0  0  0  0  0  0  0  0  0
    0.7145   -0.4125    0.0000 C   0  0  0  0  0  0  0  0  0  0  0  0
    1.4289   -0.0000    0.0000 C   0  0  0  0  0  0  0  0  0  0  0  0
    2.1434   -0.4125    0.0000 C   0  0  0  0  0  0  0  0  0  0  0  0
    2.8579   -0.0000    0.0000 C   0  0  0  0  0  0  0  0  0  0  0  0
    3.5724   -0.4125    0.0000 C   0  0  0  0  0  0  0  0  0  0  0  0
    3.5724   -1.2375    0.0000 C   0  0  0  0  0  0  0  0  0  0  0  0
    2.8579   -1.6500    0.0000 N   0  0  0  0  0  0  0  0  0  0  0  0
    2.1434   -1.2375    0.0000 C   0  0  0  0  0  0  0  0  0  0  0  0
    2.1434   -3.7125    0.0000 C   0  0  0  0  0  0  0  0  0  0  0  0
    2.8579   -4.1250    0.0000 C   0  0  0  0  0  0  0  0  0  0  0  0
    2.8579   -4.9500    0.0000 C   0  0  0  0  0  0  0  0  0  0  0  0
    2.1434   -5.3625    0.0000 C   0  0  0  0  0  0  0  0  0  0  0  0
    1.4289   -4.9500    0.0000 C   0  0  0  0  0  0  0  0  0  0  0  0
    1.4289   -4.1250    0.0000 C   0  0  0  0  0  0  0  0  0  0  0  0
   -0.0000   -1.6500    0.0000 H   0  0  0  0  0  0  0  0  0  0  0  0
   -0.0000   -0.0000    0.0000 H   0  0  0  0  0  0  0  0  0  0  0  0
    1.4289    0.8250    0.0000 H   0  0  0  0  0  0  0  0  0  0  0  0
    2.8579    0.8250    0.0000 H   0  0  0  0  0  0  0  0  0  0  0  0
    4.2868   -0.0000    0.0000 H   0  0  0  0  0  0  0  0  0  0  0  0
    4.2868   -1.6500    0.0000 H   0  0  0  0  0  0  0  0  0  0  0  0
    3.5724   -3.7125    0.0000 H   0  0  0  0  0  0  0  0  0  0  0  0
    3.5724   -5.3625    0.0000 H   0  0  0  0  0  0  0  0  0  0  0  0
    2.1434   -6.1875    0.0000 H   0  0  0  0  0  0  0  0  0  0  0  0
    0.7145   -5.3625    0.0000 H   0  0  0  0  0  0  0  0  0  0  0  0
    0.7145   -3.7125    0.0000 H   0  0  0  0  0  0  0  0  0  0  0  0
  1  2  2  0  0  0  0
  2  3  1  0  0  0  0
  3  4  1  0  0  0  0
  4  5  4  0  0  0  0
  5  6  4  0  0  0  0
  6  7  4  0  0  0  0
  7  8  4  0  0  0  0
  8  9  4  0  0  0  0
  9 10  4  0  0  0  0
 10 11  4  0  0  0  0
 11 12  4  0  0  0  0
 12 13  4  0  0  0  0
  4 13  4  0  0  0  0
  8 13  4  0  0  0  0
  2 14  1  0  0  0  0
 14 15  4  0  0  0  0
 15 16  4  0  0  0  0
 16 17  4  0  0  0  0
 17 18  4  0  0  0  0
 18 19  4  0  0  0  0
 14 19  4  0  0  0  0
  5 20  1  0  0  0  0
  6 21  1  0  0  0  0
  7 22  1  0  0  0  0
  9 23  1  0  0  0  0
 10 24  1  0  0  0  0
 11 25  1  0  0  0  0
 15 26  1  0  0  0  0
 16 27  1  0  0  0  0
 17 28  1  0  0  0  0
 18 29  1  0  0  0  0
 19 30  1  0  0  0  0
M  END
>  <InChIKey>
InChI=1S/C16H11NO2/c18-16(13-6-2-1-3-7-13)19-14-10-4-8-12-9-5-11-17-15(12)14/h1-11H

>  <CASRN>
86-75-9

> <Outcome>
0

>  <Index>
1188

>  <StandardizerResult>
Dearomatize (ID: Dearomatize)
Clear Stereo (ID: ClearStereo)
Wedge Clean (ID: WedgeClean)
Mesomerize (ID: Mesomerize)
Tautomerize (ID: Tautomerize)
Aromatize (ID: Aromatize)
Add Explicit Hydrogens (ID: AddExplicitH)
Neutralize (ID: Neutralize)
Clean 2D (ID: Clean2D)

> <knn Distance>
3.46410155296326

> <CpId>
1188

$$$$
1193
  Mrv1532301301811342D          

 24 23  0  0  0  0            999 V2000
    0.9647    1.4415    0.0000 O   0  0  0  0  0  0  0  0  0  0  0  0
    1.6792    1.8540    0.0000 C   0  0  0  0  0  0  0  0  0  0  0  0
    2.3937    1.4415    0.0000 C   0  0  0  0  0  0  0  0  0  0  0  0
    2.3937    0.6165    0.0000 O   0  0  0  0  0  0  0  0  0  0  0  0
    3.1081    1.8540    0.0000 C   0  0  0  0  0  0  0  0  0  0  0  0
    3.1081    2.6790    0.0000 O   0  0  0  0  0  0  0  0  0  0  0  0
    3.8226    1.4415    0.0000 C   0  0  0  0  0  0  0  0  0  0  0  0
    3.8226    0.6165    0.0000 O   0  0  0  0  0  0  0  0  0  0  0  0
    4.5371    1.8540    0.0000 C   0  0  0  0  0  0  0  0  0  0  0  0
    4.5371    2.6790    0.0000 O   0  0  0  0  0  0  0  0  0  0  0  0
    5.2516    1.4415    0.0000 C   0  0  0  0  0  0  0  0  0  0  0  0
    5.9660    1.8540    0.0000 O   0  0  0  0  0  0  0  0  0  0  0  0
    0.2503    1.8540    0.0000 H   0  0  0  0  0  0  0  0  0  0  0  0
    2.0495    2.5912    0.0000 H   0  0  0  0  0  0  0  0  0  0  0  0
    1.3089    2.5912    0.0000 H   0  0  0  0  0  0  0  0  0  0  0  0
    1.6792    1.0290    0.0000 H   0  0  0  0  0  0  0  0  0  0  0  0
    2.8062   -0.0980    0.0000 H   0  0  0  0  0  0  0  0  0  0  0  0
    2.3937    2.2665    0.0000 H   0  0  0  0  0  0  0  0  0  0  0  0
    3.5206    3.3935    0.0000 H   0  0  0  0  0  0  0  0  0  0  0  0
    3.1081    1.0290    0.0000 H   0  0  0  0  0  0  0  0  0  0  0  0
    4.2351   -0.0980    0.0000 H   0  0  0  0  0  0  0  0  0  0  0  0
    4.8813    0.7042    0.0000 H   0  0  0  0  0  0  0  0  0  0  0  0
    5.6218    0.7042    0.0000 H   0  0  0  0  0  0  0  0  0  0  0  0
    6.6805    1.4415    0.0000 H   0  0  0  0  0  0  0  0  0  0  0  0
  1  2  1  0  0  0  0
  2  3  1  0  0  0  0
  3  4  1  0  0  0  0
  3  5  1  0  0  0  0
  5  6  1  0  0  0  0
  5  7  1  0  0  0  0
  7  8  1  0  0  0  0
  7  9  1  0  0  0  0
  9 10  2  0  0  0  0
  9 11  1  0  0  0  0
 11 12  1  0  0  0  0
  1 13  1  0  0  0  0
  2 14  1  0  0  0  0
  2 15  1  0  0  0  0
  3 16  1  0  0  0  0
  4 17  1  0  0  0  0
  5 18  1  0  0  0  0
  6 19  1  0  0  0  0
  7 20  1  0  0  0  0
  8 21  1  0  0  0  0
 11 22  1  0  0  0  0
 11 23  1  0  0  0  0
 12 24  1  0  0  0  0
M  END
>  <InChIKey>
InChI=1S/C6H12O6/c7-1-3(9)5(11)6(12)4(10)2-8/h3,5-9,11-12H,1-2H2

>  <CASRN>
87-79-6

> <Outcome>
0

>  <Index>
1193

>  <StandardizerResult>
Clear Stereo (ID: ClearStereo)
Wedge Clean (ID: WedgeClean)
Mesomerize (ID: Mesomerize)
Tautomerize (ID: Tautomerize)
Add Explicit Hydrogens (ID: AddExplicitH)
Neutralize (ID: Neutralize)
Clean 2D (ID: Clean2D)

> <knn Distance>
3.46410155296326

> <CpId>
1193

$$$$
1267
  Mrv1532301301811342D          

 15 15  0  0  0  0            999 V2000
    0.7145    2.0625    0.0000 N   0  0  0  0  0  0  0  0  0  0  0  0
    0.7145    1.2375    0.0000 C   0  0  0  0  0  0  0  0  0  0  0  0
    1.4289    0.8250    0.0000 C   0  0  0  0  0  0  0  0  0  0  0  0
    1.4289   -0.0000    0.0000 C   0  0  0  0  0  0  0  0  0  0  0  0
    0.7145   -0.4125    0.0000 C   0  0  0  0  0  0  0  0  0  0  0  0
   -0.0000   -0.0000    0.0000 C   0  0  0  0  0  0  0  0  0  0  0  0
   -0.0000    0.8250    0.0000 C   0  0  0  0  0  0  0  0  0  0  0  0
   -0.7145    1.2375    0.0000 O   0  0  0  0  0  0  0  0  0  0  0  0
    1.4289    2.4750    0.0000 H   0  0  0  0  0  0  0  0  0  0  0  0
   -0.0000    2.4750    0.0000 H   0  0  0  0  0  0  0  0  0  0  0  0
    2.1434    1.2375    0.0000 H   0  0  0  0  0  0  0  0  0  0  0  0
    2.1434   -0.4125    0.0000 H   0  0  0  0  0  0  0  0  0  0  0  0
    0.7145   -1.2375    0.0000 H   0  0  0  0  0  0  0  0  0  0  0  0
   -0.7145   -0.4125    0.0000 H   0  0  0  0  0  0  0  0  0  0  0  0
   -0.7145    2.0625    0.0000 H   0  0  0  0  0  0  0  0  0  0  0  0
  1  2  1  0  0  0  0
  2  3  4  0  0  0  0
  3  4  4  0  0  0  0
  4  5  4  0  0  0  0
  5  6  4  0  0  0  0
  6  7  4  0  0  0  0
  2  7  4  0  0  0  0
  7  8  1  0  0  0  0
  1  9  1  0  0  0  0
  1 10  1  0  0  0  0
  3 11  1  0  0  0  0
  4 12  1  0  0  0  0
  5 13  1  0  0  0  0
  6 14  1  0  0  0  0
  8 15  1  0  0  0  0
M  END
>  <InChIKey>
InChI=1S/C6H7NO/c7-5-3-1-2-4-6(5)8/h1-4,8H,7H2

>  <UN GHS>
Non-irritant

>  <CASRN>
95-55-6

> <Outcome>
0

>  <Index>
1267

>  <StandardizerResult>
Dearomatize (ID: Dearomatize)
Clear Stereo (ID: ClearStereo)
Wedge Clean (ID: WedgeClean)
Mesomerize (ID: Mesomerize)
Tautomerize (ID: Tautomerize)
Aromatize (ID: Aromatize)
Add Explicit Hydrogens (ID: AddExplicitH)
Neutralize (ID: Neutralize)
Clean 2D (ID: Clean2D)

> <knn Distance>
3.46410155296326

> <CpId>
1267

$$$$
1268
  Mrv1532301301811342D          

 21 21  0  0  0  0            999 V2000
   -0.0000    2.4750    0.0000 C   0  0  0  0  0  0  0  0  0  0  0  0
    0.7145    2.0625    0.0000 O   0  0  0  0  0  0  0  0  0  0  0  0
    0.7145    1.2375    0.0000 C   0  0  0  0  0  0  0  0  0  0  0  0
    1.4289    0.8250    0.0000 C   0  0  0  0  0  0  0  0  0  0  0  0
    1.4289    0.0000    0.0000 C   0  0  0  0  0  0  0  0  0  0  0  0
    0.7145   -0.4125    0.0000 C   0  0  0  0  0  0  0  0  0  0  0  0
    0.7145   -1.2375    0.0000 N   0  0  0  0  0  0  0  0  0  0  0  0
   -0.0000    0.0000    0.0000 C   0  0  0  0  0  0  0  0  0  0  0  0
   -0.7145   -0.4125    0.0000 C   0  0  0  0  0  0  0  0  0  0  0  0
   -0.0000    0.8250    0.0000 C   0  0  0  0  0  0  0  0  0  0  0  0
    0.4125    3.1895    0.0000 H   0  0  0  0  0  0  0  0  0  0  0  0
   -0.7145    2.8875    0.0000 H   0  0  0  0  0  0  0  0  0  0  0  0
   -0.4125    1.7605    0.0000 H   0  0  0  0  0  0  0  0  0  0  0  0
    2.1434    1.2375    0.0000 H   0  0  0  0  0  0  0  0  0  0  0  0
    2.1434   -0.4125    0.0000 H   0  0  0  0  0  0  0  0  0  0  0  0
   -0.0000   -1.6500    0.0000 H   0  0  0  0  0  0  0  0  0  0  0  0
    1.4289   -1.6500    0.0000 H   0  0  0  0  0  0  0  0  0  0  0  0
   -1.1270    0.3020    0.0000 H   0  0  0  0  0  0  0  0  0  0  0  0
   -1.4289   -0.8250    0.0000 H   0  0  0  0  0  0  0  0  0  0  0  0
   -0.3020   -1.1270    0.0000 H   0  0  0  0  0  0  0  0  0  0  0  0
   -0.7145    1.2375    0.0000 H   0  0  0  0  0  0  0  0  0  0  0  0
  1  2  1  0  0  0  0
  2  3  1  0  0  0  0
  3  4  4  0  0  0  0
  4  5  4  0  0  0  0
  5  6  4  0  0  0  0
  6  7  1  0  0  0  0
  6  8  4  0  0  0  0
  8  9  1  0  0  0  0
  8 10  4  0  0  0  0
  3 10  4  0  0  0  0
  1 11  1  0  0  0  0
  1 12  1  0  0  0  0
  1 13  1  0  0  0  0
  4 14  1  0  0  0  0
  5 15  1  0  0  0  0
  7 16  1  0  0  0  0
  7 17  1  0  0  0  0
  9 18  1  0  0  0  0
  9 19  1  0  0  0  0
  9 20  1  0  0  0  0
 10 21  1  0  0  0  0
M  END
>  <InChIKey>
InChI=1S/C8H11NO/c1-6-5-7(10-2)3-4-8(6)9/h3-5H,9H2,1-2H3

>  <CASRN>
102-50-1

> <Outcome>
0

>  <Index>
1268

>  <StandardizerResult>
Dearomatize (ID: Dearomatize)
Clear Stereo (ID: ClearStereo)
Wedge Clean (ID: WedgeClean)
Mesomerize (ID: Mesomerize)
Tautomerize (ID: Tautomerize)
Aromatize (ID: Aromatize)
Add Explicit Hydrogens (ID: AddExplicitH)
Neutralize (ID: Neutralize)
Clean 2D (ID: Clean2D)

> <knn Distance>
3.46410155296326

> <CpId>
1268

$$$$
1280
  Mrv1532301301811342D          

 25 27  0  0  0  0            999 V2000
    4.7673    0.0702    0.0000 N   0  0  0  0  0  0  0  0  0  0  0  0
    3.9604    0.2417    0.0000 C   0  0  0  0  0  0  0  0  0  0  0  0
    3.7054    1.0264    0.0000 C   0  0  0  0  0  0  0  0  0  0  0  0
    2.8985    1.1979    0.0000 C   0  0  0  0  0  0  0  0  0  0  0  0
    2.3464    0.5848    0.0000 C   0  0  0  0  0  0  0  0  0  0  0  0
    2.6014   -0.1998    0.0000 C   0  0  0  0  0  0  0  0  0  0  0  0
    1.9339   -0.6847    0.0000 C   0  0  0  0  0  0  0  0  0  0  0  0
    1.2665   -0.1998    0.0000 C   0  0  0  0  0  0  0  0  0  0  0  0
    0.4595   -0.3714    0.0000 C   0  0  0  0  0  0  0  0  0  0  0  0
   -0.0925    0.2417    0.0000 C   0  0  0  0  0  0  0  0  0  0  0  0
    0.1624    1.0264    0.0000 C   0  0  0  0  0  0  0  0  0  0  0  0
    0.9694    1.1979    0.0000 C   0  0  0  0  0  0  0  0  0  0  0  0
    1.5214    0.5848    0.0000 C   0  0  0  0  0  0  0  0  0  0  0  0
    3.4083   -0.3714    0.0000 C   0  0  0  0  0  0  0  0  0  0  0  0
    5.0223   -0.7144    0.0000 H   0  0  0  0  0  0  0  0  0  0  0  0
    5.3194    0.6833    0.0000 H   0  0  0  0  0  0  0  0  0  0  0  0
    4.2575    1.6395    0.0000 H   0  0  0  0  0  0  0  0  0  0  0  0
    2.6435    1.9825    0.0000 H   0  0  0  0  0  0  0  0  0  0  0  0
    1.5466   -1.4132    0.0000 H   0  0  0  0  0  0  0  0  0  0  0  0
    2.3212   -1.4132    0.0000 H   0  0  0  0  0  0  0  0  0  0  0  0
    0.2046   -1.1560    0.0000 H   0  0  0  0  0  0  0  0  0  0  0  0
   -0.8995    0.0702    0.0000 H   0  0  0  0  0  0  0  0  0  0  0  0
   -0.3896    1.6395    0.0000 H   0  0  0  0  0  0  0  0  0  0  0  0
    1.2243    1.9825    0.0000 H   0  0  0  0  0  0  0  0  0  0  0  0
    3.6633   -1.1560    0.0000 H   0  0  0  0  0  0  0  0  0  0  0  0
  1  2  1  0  0  0  0
  2  3  4  0  0  0  0
  3  4  4  0  0  0  0
  4  5  4  0  0  0  0
  5  6  4  0  0  0  0
  6  7  1  0  0  0  0
  7  8  1  0  0  0  0
  8  9  4  0  0  0  0
  9 10  4  0  0  0  0
 10 11  4  0  0  0  0
 11 12  4  0  0  0  0
 12 13  4  0  0  0  0
  5 13  1  0  0  0  0
  8 13  4  0  0  0  0
  6 14  4  0  0  0  0
  2 14  4  0  0  0  0
  1 15  1  0  0  0  0
  1 16  1  0  0  0  0
  3 17  1  0  0  0  0
  4 18  1  0  0  0  0
  7 19  1  0  0  0  0
  7 20  1  0  0  0  0
  9 21  1  0  0  0  0
 10 22  1  0  0  0  0
 11 23  1  0  0  0  0
 12 24  1  0  0  0  0
 14 25  1  0  0  0  0
M  END
>  <InChIKey>
InChI=1S/C13H11N/c14-11-5-6-13-10(8-11)7-9-3-1-2-4-12(9)13/h1-6,8H,7,14H2

>  <CASRN>
153-78-6

> <Outcome>
0

>  <Index>
1280

>  <StandardizerResult>
Dearomatize (ID: Dearomatize)
Clear Stereo (ID: ClearStereo)
Wedge Clean (ID: WedgeClean)
Mesomerize (ID: Mesomerize)
Tautomerize (ID: Tautomerize)
Aromatize (ID: Aromatize)
Add Explicit Hydrogens (ID: AddExplicitH)
Neutralize (ID: Neutralize)
Clean 2D (ID: Clean2D)

> <knn Distance>
3.46410155296326

> <CpId>
1280

$$$$
1375
  Mrv1532301301811342D          

 26 26  0  0  0  0            999 V2000
   -0.7902    2.9192    0.0000 C   0  0  0  0  0  0  0  0  0  0  0  0
   -0.0757    2.5067    0.0000 C   0  0  0  0  0  0  0  0  0  0  0  0
   -0.4882    1.7923    0.0000 C   0  0  0  0  0  0  0  0  0  0  0  0
    0.3368    3.2212    0.0000 N   0  0  0  0  0  0  0  0  0  0  0  0
    0.6388    2.0942    0.0000 C   0  0  0  0  0  0  0  0  0  0  0  0
    0.6388    1.2692    0.0000 C   0  0  0  0  0  0  0  0  0  0  0  0
    1.3533    0.8567    0.0000 C   0  0  0  0  0  0  0  0  0  0  0  0
    1.3533    0.0317    0.0000 C   0  0  0  0  0  0  0  0  0  0  0  0
    0.6388   -0.3808    0.0000 C   0  0  0  0  0  0  0  0  0  0  0  0
   -0.0757    0.0317    0.0000 C   0  0  0  0  0  0  0  0  0  0  0  0
   -0.0757    0.8567    0.0000 C   0  0  0  0  0  0  0  0  0  0  0  0
   -0.3777    3.6337    0.0000 H   0  0  0  0  0  0  0  0  0  0  0  0
   -1.5046    3.3317    0.0000 H   0  0  0  0  0  0  0  0  0  0  0  0
   -1.2027    2.2048    0.0000 H   0  0  0  0  0  0  0  0  0  0  0  0
   -1.1427    1.2900    0.0000 H   0  0  0  0  0  0  0  0  0  0  0  0
   -0.2747    0.9954    0.0000 H   0  0  0  0  0  0  0  0  0  0  0  0
    0.3298    1.6846    0.0000 H   0  0  0  0  0  0  0  0  0  0  0  0
    1.1337    3.0077    0.0000 H   0  0  0  0  0  0  0  0  0  0  0  0
    0.9202    3.8046    0.0000 H   0  0  0  0  0  0  0  0  0  0  0  0
    1.4624    2.1422    0.0000 H   0  0  0  0  0  0  0  0  0  0  0  0
    1.0921    2.7835    0.0000 H   0  0  0  0  0  0  0  0  0  0  0  0
    2.0677    1.2692    0.0000 H   0  0  0  0  0  0  0  0  0  0  0  0
    2.0677   -0.3808    0.0000 H   0  0  0  0  0  0  0  0  0  0  0  0
    0.6388   -1.2058    0.0000 H   0  0  0  0  0  0  0  0  0  0  0  0
   -0.7902   -0.3808    0.0000 H   0  0  0  0  0  0  0  0  0  0  0  0
   -0.8070    0.4749    0.0000 H   0  0  0  0  0  0  0  0  0  0  0  0
  1  2  1  0  0  0  0
  2  3  1  0  0  0  0
  2  4  1  0  0  0  0
  2  5  1  0  0  0  0
  5  6  1  0  0  0  0
  6  7  4  0  0  0  0
  7  8  4  0  0  0  0
  8  9  4  0  0  0  0
  9 10  4  0  0  0  0
 10 11  4  0  0  0  0
  6 11  4  0  0  0  0
  1 12  1  0  0  0  0
  1 13  1  0  0  0  0
  1 14  1  0  0  0  0
  3 15  1  0  0  0  0
  3 16  1  0  0  0  0
  3 17  1  0  0  0  0
  4 18  1  0  0  0  0
  4 19  1  0  0  0  0
  5 20  1  0  0  0  0
  5 21  1  0  0  0  0
  7 22  1  0  0  0  0
  8 23  1  0  0  0  0
  9 24  1  0  0  0  0
 10 25  1  0  0  0  0
 11 26  1  0  0  0  0
M  END
>  <InChIKey>
InChI=1S/C10H15N/c1-10(2,11)8-9-6-4-3-5-7-9/h3-7H,8,11H2,1-2H3

>  <CASRN>
122-09-8

> <Outcome>
0

>  <Index>
1375

>  <StandardizerResult>
Dearomatize (ID: Dearomatize)
Clear Stereo (ID: ClearStereo)
Wedge Clean (ID: WedgeClean)
Mesomerize (ID: Mesomerize)
Tautomerize (ID: Tautomerize)
Aromatize (ID: Aromatize)
Add Explicit Hydrogens (ID: AddExplicitH)
Neutralize (ID: Neutralize)
Clean 2D (ID: Clean2D)

> <knn Distance>
3.46410155296326

> <CpId>
1375

$$$$
1451
  Mrv1532301301811342D          

 26 25  0  0  0  0            999 V2000
    0.9826    1.4289    0.0000 O   0  0  0  0  0  0  0  0  0  0  0  0
    1.6971    1.8414    0.0000 C   0  0  0  0  0  0  0  0  0  0  0  0
    2.4115    1.4289    0.0000 C   0  0  0  0  0  0  0  0  0  0  0  0
    2.4115    0.6039    0.0000 O   0  0  0  0  0  0  0  0  0  0  0  0
    3.1260    1.8414    0.0000 C   0  0  0  0  0  0  0  0  0  0  0  0
    3.1260    2.6664    0.0000 O   0  0  0  0  0  0  0  0  0  0  0  0
    3.8405    1.4289    0.0000 C   0  0  0  0  0  0  0  0  0  0  0  0
    3.8405    0.6039    0.0000 O   0  0  0  0  0  0  0  0  0  0  0  0
    4.5550    1.8414    0.0000 C   0  0  0  0  0  0  0  0  0  0  0  0
    4.5550    2.6664    0.0000 O   0  0  0  0  0  0  0  0  0  0  0  0
    5.2694    1.4289    0.0000 C   0  0  0  0  0  0  0  0  0  0  0  0
    5.9839    1.8414    0.0000 O   0  0  0  0  0  0  0  0  0  0  0  0
    0.2681    1.8414    0.0000 H   0  0  0  0  0  0  0  0  0  0  0  0
    2.0673    2.5786    0.0000 H   0  0  0  0  0  0  0  0  0  0  0  0
    1.3268    2.5786    0.0000 H   0  0  0  0  0  0  0  0  0  0  0  0
    1.6971    1.0164    0.0000 H   0  0  0  0  0  0  0  0  0  0  0  0
    2.8240   -0.1106    0.0000 H   0  0  0  0  0  0  0  0  0  0  0  0
    2.4115    2.2539    0.0000 H   0  0  0  0  0  0  0  0  0  0  0  0
    3.5385    3.3809    0.0000 H   0  0  0  0  0  0  0  0  0  0  0  0
    3.1260    1.0164    0.0000 H   0  0  0  0  0  0  0  0  0  0  0  0
    4.2530   -0.1106    0.0000 H   0  0  0  0  0  0  0  0  0  0  0  0
    3.8405    2.2539    0.0000 H   0  0  0  0  0  0  0  0  0  0  0  0
    4.9675    3.3809    0.0000 H   0  0  0  0  0  0  0  0  0  0  0  0
    4.8992    0.6917    0.0000 H   0  0  0  0  0  0  0  0  0  0  0  0
    5.6397    0.6917    0.0000 H   0  0  0  0  0  0  0  0  0  0  0  0
    6.6984    1.4289    0.0000 H   0  0  0  0  0  0  0  0  0  0  0  0
  1  2  1  0  0  0  0
  2  3  1  0  0  0  0
  3  4  1  0  0  0  0
  3  5  1  0  0  0  0
  5  6  1  0  0  0  0
  5  7  1  0  0  0  0
  7  8  1  0  0  0  0
  7  9  1  0  0  0  0
  9 10  1  0  0  0  0
  9 11  1  0  0  0  0
 11 12  1  0  0  0  0
  1 13  1  0  0  0  0
  2 14  1  0  0  0  0
  2 15  1  0  0  0  0
  3 16  1  0  0  0  0
  4 17  1  0  0  0  0
  5 18  1  0  0  0  0
  6 19  1  0  0  0  0
  7 20  1  0  0  0  0
  8 21  1  0  0  0  0
  9 22  1  0  0  0  0
 10 23  1  0  0  0  0
 11 24  1  0  0  0  0
 11 25  1  0  0  0  0
 12 26  1  0  0  0  0
M  END
>  <InChIKey>
InChI=1S/C6H14O6/c7-1-3(9)5(11)6(12)4(10)2-8/h3-12H,1-2H2

>  <CASRN>
50-70-4 69-65-8

> <Outcome>
0

>  <Index>
1451

>  <StandardizerResult>
Clear Stereo (ID: ClearStereo)
Wedge Clean (ID: WedgeClean)
Mesomerize (ID: Mesomerize)
Tautomerize (ID: Tautomerize)
Add Explicit Hydrogens (ID: AddExplicitH)
Neutralize (ID: Neutralize)
Clean 2D (ID: Clean2D)

> <knn Distance>
3.46410155296326

> <CpId>
1451

$$$$
1487
  Mrv1532301301811342D          

 38 39  0  0  0  0            999 V2000
   -1.7726   -1.1602    0.0000 C   0  0  0  0  0  0  0  0  0  0  0  0
   -1.3601   -1.8747    0.0000 C   0  0  0  0  0  0  0  0  0  0  0  0
   -1.7726   -2.5892    0.0000 C   0  0  0  0  0  0  0  0  0  0  0  0
   -0.5351   -1.8747    0.0000 O   0  0  0  0  0  0  0  0  0  0  0  0
   -0.1226   -1.1602    0.0000 C   0  0  0  0  0  0  0  0  0  0  0  0
   -0.5351   -0.4458    0.0000 O   0  0  0  0  0  0  0  0  0  0  0  0
    0.7024   -1.1602    0.0000 C   0  0  0  0  0  0  0  0  0  0  0  0
    1.5274   -1.1602    0.0000 O   0  0  0  0  0  0  0  0  0  0  0  0
    0.7024   -1.9852    0.0000 C   0  0  0  0  0  0  0  0  0  0  0  0
    1.4169   -2.3977    0.0000 C   0  0  0  0  0  0  0  0  0  0  0  0
    1.4169   -3.2227    0.0000 C   0  0  0  0  0  0  0  0  0  0  0  0
    0.7024   -3.6352    0.0000 C   0  0  0  0  0  0  0  0  0  0  0  0
    0.7024   -4.4602    0.0000 Br  0  0  0  0  0  0  0  0  0  0  0  0
   -0.0120   -3.2227    0.0000 C   0  0  0  0  0  0  0  0  0  0  0  0
   -0.0120   -2.3977    0.0000 C   0  0  0  0  0  0  0  0  0  0  0  0
    0.7024   -0.3352    0.0000 C   0  0  0  0  0  0  0  0  0  0  0  0
   -0.0120    0.0773    0.0000 C   0  0  0  0  0  0  0  0  0  0  0  0
   -0.0120    0.9023    0.0000 C   0  0  0  0  0  0  0  0  0  0  0  0
    0.7024    1.3148    0.0000 C   0  0  0  0  0  0  0  0  0  0  0  0
    0.7024    2.1398    0.0000 Br  0  0  0  0  0  0  0  0  0  0  0  0
    1.4169    0.9023    0.0000 C   0  0  0  0  0  0  0  0  0  0  0  0
    1.4169    0.0773    0.0000 C   0  0  0  0  0  0  0  0  0  0  0  0
   -1.0581   -0.7477    0.0000 H   0  0  0  0  0  0  0  0  0  0  0  0
   -2.1851   -0.4458    0.0000 H   0  0  0  0  0  0  0  0  0  0  0  0
   -2.4870   -1.5727    0.0000 H   0  0  0  0  0  0  0  0  0  0  0  0
   -2.1851   -1.8747    0.0000 H   0  0  0  0  0  0  0  0  0  0  0  0
   -2.5694   -2.8027    0.0000 H   0  0  0  0  0  0  0  0  0  0  0  0
   -1.7726   -3.4142    0.0000 H   0  0  0  0  0  0  0  0  0  0  0  0
   -0.9757   -2.8027    0.0000 H   0  0  0  0  0  0  0  0  0  0  0  0
    1.9399   -1.8747    0.0000 H   0  0  0  0  0  0  0  0  0  0  0  0
    2.1791   -2.7135    0.0000 H   0  0  0  0  0  0  0  0  0  0  0  0
    1.8526   -3.9233    0.0000 H   0  0  0  0  0  0  0  0  0  0  0  0
   -0.7265   -3.6352    0.0000 H   0  0  0  0  0  0  0  0  0  0  0  0
   -0.7742   -2.7135    0.0000 H   0  0  0  0  0  0  0  0  0  0  0  0
   -0.7742    0.3930    0.0000 H   0  0  0  0  0  0  0  0  0  0  0  0
   -0.4477    1.6029    0.0000 H   0  0  0  0  0  0  0  0  0  0  0  0
    2.1314    1.3148    0.0000 H   0  0  0  0  0  0  0  0  0  0  0  0
    2.1314   -0.3352    0.0000 H   0  0  0  0  0  0  0  0  0  0  0  0
  1  2  1  0  0  0  0
  2  3  1  0  0  0  0
  2  4  1  0  0  0  0
  4  5  1  0  0  0  0
  5  6  2  0  0  0  0
  5  7  1  0  0  0  0
  7  8  1  0  0  0  0
  7  9  1  0  0  0  0
  9 10  4  0  0  0  0
 10 11  4  0  0  0  0
 11 12  4  0  0  0  0
 12 13  1  0  0  0  0
 12 14  4  0  0  0  0
 14 15  4  0  0  0  0
  9 15  4  0  0  0  0
  7 16  1  0  0  0  0
 16 17  4  0  0  0  0
 17 18  4  0  0  0  0
 18 19  4  0  0  0  0
 19 20  1  0  0  0  0
 19 21  4  0  0  0  0
 21 22  4  0  0  0  0
 16 22  4  0  0  0  0
  1 23  1  0  0  0  0
  1 24  1  0  0  0  0
  1 25  1  0  0  0  0
  2 26  1  0  0  0  0
  3 27  1  0  0  0  0
  3 28  1  0  0  0  0
  3 29  1  0  0  0  0
  8 30  1  0  0  0  0
 10 31  1  0  0  0  0
 11 32  1  0  0  0  0
 14 33  1  0  0  0  0
 15 34  1  0  0  0  0
 17 35  1  0  0  0  0
 18 36  1  0  0  0  0
 21 37  1  0  0  0  0
 22 38  1  0  0  0  0
M  END
>  <InChIKey>
InChI=1S/C17H16Br2O3/c1-11(2)22-16(20)17(21,12-3-7-14(18)8-4-12)13-5-9-15(19)10-6-13/h3-11,21H,1-2H3

>  <CASRN>
18181-80-1

> <Outcome>
0

>  <Index>
1487

>  <StandardizerResult>
Dearomatize (ID: Dearomatize)
Clear Stereo (ID: ClearStereo)
Wedge Clean (ID: WedgeClean)
Mesomerize (ID: Mesomerize)
Tautomerize (ID: Tautomerize)
Aromatize (ID: Aromatize)
Add Explicit Hydrogens (ID: AddExplicitH)
Neutralize (ID: Neutralize)
Clean 2D (ID: Clean2D)

> <knn Distance>
3.46410155296326

> <CpId>
1487

$$$$
1492
  Mrv1532301301811342D          

 51 51  0  0  0  0            999 V2000
    5.7632    3.3597    0.0000 C   0  0  0  0  0  0  0  0  0  0  0  0
    5.7632    2.5347    0.0000 C   0  0  0  0  0  0  0  0  0  0  0  0
    6.4776    2.1222    0.0000 C   0  0  0  0  0  0  0  0  0  0  0  0
    7.1921    2.5347    0.0000 C   0  0  0  0  0  0  0  0  0  0  0  0
    7.9066    2.1222    0.0000 O   0  0  0  0  0  0  0  0  0  0  0  0
    5.0487    2.1222    0.0000 C   0  0  0  0  0  0  0  0  0  0  0  0
    4.3342    2.5347    0.0000 C   0  0  0  0  0  0  0  0  0  0  0  0
    3.6198    2.1222    0.0000 C   0  0  0  0  0  0  0  0  0  0  0  0
    2.9053    2.5347    0.0000 C   0  0  0  0  0  0  0  0  0  0  0  0
    2.9053    3.3597    0.0000 C   0  0  0  0  0  0  0  0  0  0  0  0
    2.1908    2.1222    0.0000 C   0  0  0  0  0  0  0  0  0  0  0  0
    2.1908    1.2972    0.0000 C   0  0  0  0  0  0  0  0  0  0  0  0
    1.4763    0.8847    0.0000 C   0  0  0  0  0  0  0  0  0  0  0  0
    1.4763    0.0597    0.0000 C   0  0  0  0  0  0  0  0  0  0  0  0
    2.1908   -0.3528    0.0000 C   0  0  0  0  0  0  0  0  0  0  0  0
    0.7619   -0.3528    0.0000 C   0  0  0  0  0  0  0  0  0  0  0  0
    0.0474    0.0597    0.0000 C   0  0  0  0  0  0  0  0  0  0  0  0
    0.0474    0.8847    0.0000 C   0  0  0  0  0  0  0  0  0  0  0  0
    0.7619    1.2972    0.0000 C   0  0  0  0  0  0  0  0  0  0  0  0
    0.3746    2.0256    0.0000 C   0  0  0  0  0  0  0  0  0  0  0  0
    1.1492    2.0256    0.0000 C   0  0  0  0  0  0  0  0  0  0  0  0
    6.5882    3.3597    0.0000 H   0  0  0  0  0  0  0  0  0  0  0  0
    5.7632    4.1847    0.0000 H   0  0  0  0  0  0  0  0  0  0  0  0
    4.9382    3.3597    0.0000 H   0  0  0  0  0  0  0  0  0  0  0  0
    6.4776    1.2972    0.0000 H   0  0  0  0  0  0  0  0  0  0  0  0
    7.5624    3.2719    0.0000 H   0  0  0  0  0  0  0  0  0  0  0  0
    6.8219    3.2719    0.0000 H   0  0  0  0  0  0  0  0  0  0  0  0
    7.9066    1.2972    0.0000 H   0  0  0  0  0  0  0  0  0  0  0  0
    5.0487    1.2972    0.0000 H   0  0  0  0  0  0  0  0  0  0  0  0
    4.3342    3.3597    0.0000 H   0  0  0  0  0  0  0  0  0  0  0  0
    3.6198    1.2972    0.0000 H   0  0  0  0  0  0  0  0  0  0  0  0
    3.7303    3.3597    0.0000 H   0  0  0  0  0  0  0  0  0  0  0  0
    2.9053    4.1847    0.0000 H   0  0  0  0  0  0  0  0  0  0  0  0
    2.0803    3.3597    0.0000 H   0  0  0  0  0  0  0  0  0  0  0  0
    1.4763    2.5347    0.0000 H   0  0  0  0  0  0  0  0  0  0  0  0
    2.9053    0.8847    0.0000 H   0  0  0  0  0  0  0  0  0  0  0  0
    1.7783   -1.0673    0.0000 H   0  0  0  0  0  0  0  0  0  0  0  0
    2.9053   -0.7653    0.0000 H   0  0  0  0  0  0  0  0  0  0  0  0
    2.6033    0.3616    0.0000 H   0  0  0  0  0  0  0  0  0  0  0  0
    0.3916   -1.0901    0.0000 H   0  0  0  0  0  0  0  0  0  0  0  0
    1.1321   -1.0901    0.0000 H   0  0  0  0  0  0  0  0  0  0  0  0
   -0.7762    0.0117    0.0000 H   0  0  0  0  0  0  0  0  0  0  0  0
   -0.4059   -0.6296    0.0000 H   0  0  0  0  0  0  0  0  0  0  0  0
   -0.4059    1.5739    0.0000 H   0  0  0  0  0  0  0  0  0  0  0  0
   -0.7762    0.9326    0.0000 H   0  0  0  0  0  0  0  0  0  0  0  0
    0.8766    2.6802    0.0000 H   0  0  0  0  0  0  0  0  0  0  0  0
    0.1606    2.8224    0.0000 H   0  0  0  0  0  0  0  0  0  0  0  0
   -0.3879    2.3408    0.0000 H   0  0  0  0  0  0  0  0  0  0  0  0
    1.3741    1.2318    0.0000 H   0  0  0  0  0  0  0  0  0  0  0  0
    1.8610    1.6086    0.0000 H   0  0  0  0  0  0  0  0  0  0  0  0
    1.9515    2.2176    0.0000 H   0  0  0  0  0  0  0  0  0  0  0  0
  1  2  1  0  0  0  0
  2  3  2  0  0  0  0
  3  4  1  4  0  0  0
  4  5  1  0  0  0  0
  6  2  1  4  0  0  0
  6  7  2  0  0  0  0
  8  7  1  4  0  0  0
  8  9  2  0  0  0  0
  9 10  1  0  0  0  0
 11  9  1  4  0  0  0
 11 12  2  0  0  0  0
 12 13  1  0  0  0  0
 13 14  2  0  0  0  0
 14 15  1  0  0  0  0
 14 16  1  0  0  0  0
 16 17  1  0  0  0  0
 17 18  1  0  0  0  0
 18 19  1  0  0  0  0
 13 19  1  0  0  0  0
 19 20  1  0  0  0  0
 19 21  1  0  0  0  0
  1 22  1  0  0  0  0
  1 23  1  0  0  0  0
  1 24  1  0  0  0  0
  3 25  1  0  0  0  0
  4 26  1  0  0  0  0
  4 27  1  0  0  0  0
  5 28  1  0  0  0  0
  6 29  1  0  0  0  0
  7 30  1  0  0  0  0
  8 31  1  0  0  0  0
 10 32  1  0  0  0  0
 10 33  1  0  0  0  0
 10 34  1  0  0  0  0
 11 35  1  0  0  0  0
 12 36  1  0  0  0  0
 15 37  1  0  0  0  0
 15 38  1  0  0  0  0
 15 39  1  0  0  0  0
 16 40  1  0  0  0  0
 16 41  1  0  0  0  0
 17 42  1  0  0  0  0
 17 43  1  0  0  0  0
 18 44  1  0  0  0  0
 18 45  1  0  0  0  0
 20 46  1  0  0  0  0
 20 47  1  0  0  0  0
 20 48  1  0  0  0  0
 21 49  1  0  0  0  0
 21 50  1  0  0  0  0
 21 51  1  0  0  0  0
M  END
>  <InChIKey>
InChI=1S/C20H30O/c1-16(8-6-9-17(2)13-15-21)11-12-19-18(3)10-7-14-20(19,4)5/h6,8-9,11-13,21H,7,10,14-15H2,1-5H3

>  <CASRN>
68-26-8

> <Outcome>
0

>  <Index>
1492

>  <StandardizerResult>
Clear Stereo (ID: ClearStereo)
Wedge Clean (ID: WedgeClean)
Mesomerize (ID: Mesomerize)
Tautomerize (ID: Tautomerize)
Add Explicit Hydrogens (ID: AddExplicitH)
Neutralize (ID: Neutralize)
Clean 2D (ID: Clean2D)

> <knn Distance>
3.46410155296326

> <CpId>
1492

$$$$
1508
  Mrv1532301301811342D          

 18 18  0  0  0  0            999 V2000
   -0.0000    3.3000    0.0000 N   0  0  0  0  0  0  0  0  0  0  0  0
   -0.0000    2.4750    0.0000 C   0  0  0  0  0  0  0  0  0  0  0  0
   -0.7145    2.0625    0.0000 S   0  0  0  0  0  0  0  0  0  0  0  0
    0.7145    2.0625    0.0000 N   0  0  0  0  0  0  0  0  0  0  0  0
    0.7145    1.2375    0.0000 C   0  0  0  0  0  0  0  0  0  0  0  0
    1.4289    0.8250    0.0000 C   0  0  0  0  0  0  0  0  0  0  0  0
    1.4289    0.0000    0.0000 C   0  0  0  0  0  0  0  0  0  0  0  0
    0.7145   -0.4125    0.0000 C   0  0  0  0  0  0  0  0  0  0  0  0
   -0.0000    0.0000    0.0000 C   0  0  0  0  0  0  0  0  0  0  0  0
   -0.0000    0.8250    0.0000 C   0  0  0  0  0  0  0  0  0  0  0  0
    0.7145    3.7125    0.0000 H   0  0  0  0  0  0  0  0  0  0  0  0
   -0.7145    3.7125    0.0000 H   0  0  0  0  0  0  0  0  0  0  0  0
    1.4289    2.4750    0.0000 H   0  0  0  0  0  0  0  0  0  0  0  0
    2.1434    1.2375    0.0000 H   0  0  0  0  0  0  0  0  0  0  0  0
    2.1434   -0.4125    0.0000 H   0  0  0  0  0  0  0  0  0  0  0  0
    0.7145   -1.2375    0.0000 H   0  0  0  0  0  0  0  0  0  0  0  0
   -0.7145   -0.4125    0.0000 H   0  0  0  0  0  0  0  0  0  0  0  0
   -0.7145    1.2375    0.0000 H   0  0  0  0  0  0  0  0  0  0  0  0
  1  2  1  0  0  0  0
  2  3  2  0  0  0  0
  2  4  1  0  0  0  0
  4  5  1  0  0  0  0
  5  6  4  0  0  0  0
  6  7  4  0  0  0  0
  7  8  4  0  0  0  0
  8  9  4  0  0  0  0
  9 10  4  0  0  0  0
  5 10  4  0  0  0  0
  1 11  1  0  0  0  0
  1 12  1  0  0  0  0
  4 13  1  0  0  0  0
  6 14  1  0  0  0  0
  7 15  1  0  0  0  0
  8 16  1  0  0  0  0
  9 17  1  0  0  0  0
 10 18  1  0  0  0  0
M  END
>  <InChIKey>
InChI=1S/C7H8N2S/c8-7(10)9-6-4-2-1-3-5-6/h1-5H,(H3,8,9,10)

>  <UN GHS>
Non-irritant

>  <CASRN>
103-85-5

> <Outcome>
0

>  <Index>
1508

>  <StandardizerResult>
Dearomatize (ID: Dearomatize)
Clear Stereo (ID: ClearStereo)
Wedge Clean (ID: WedgeClean)
Mesomerize (ID: Mesomerize)
Tautomerize (ID: Tautomerize)
Aromatize (ID: Aromatize)
Add Explicit Hydrogens (ID: AddExplicitH)
Neutralize (ID: Neutralize)
Clean 2D (ID: Clean2D)

> <knn Distance>
3.46410155296326

> <CpId>
1508

$$$$
1544
  Mrv1532301301811342D          

 27 26  0  0  0  0            999 V2000
    2.4835    1.4507    0.0000 C   0  0  0  0  0  0  0  0  0  0  0  0
    2.0710    0.7363    0.0000 O   0  0  0  0  0  0  0  0  0  0  0  0
    1.2460    0.7363    0.0000 C   0  0  0  0  0  0  0  0  0  0  0  0
    0.8335    1.4507    0.0000 O   0  0  0  0  0  0  0  0  0  0  0  0
    0.8335    0.0218    0.0000 C   0  0  0  0  0  0  0  0  0  0  0  0
    0.0085    0.0218    0.0000 C   0  0  0  0  0  0  0  0  0  0  0  0
   -0.4040    0.7363    0.0000 C   0  0  0  0  0  0  0  0  0  0  0  0
   -0.4040   -0.6927    0.0000 O   0  0  0  0  0  0  0  0  0  0  0  0
   -1.2290   -0.6927    0.0000 P   0  0  0  0  0  0  0  0  0  0  0  0
   -1.2290    0.1323    0.0000 O   0  0  0  0  0  0  0  0  0  0  0  0
   -2.0540   -0.6927    0.0000 O   0  0  0  0  0  0  0  0  0  0  0  0
   -2.4665   -1.4072    0.0000 C   0  0  0  0  0  0  0  0  0  0  0  0
   -1.2290   -1.5177    0.0000 O   0  0  0  0  0  0  0  0  0  0  0  0
   -1.9435   -1.9302    0.0000 C   0  0  0  0  0  0  0  0  0  0  0  0
    3.1980    1.0382    0.0000 H   0  0  0  0  0  0  0  0  0  0  0  0
    2.8960    2.1652    0.0000 H   0  0  0  0  0  0  0  0  0  0  0  0
    1.7690    1.8632    0.0000 H   0  0  0  0  0  0  0  0  0  0  0  0
    1.2460   -0.6927    0.0000 H   0  0  0  0  0  0  0  0  0  0  0  0
    0.3105    1.1488    0.0000 H   0  0  0  0  0  0  0  0  0  0  0  0
   -0.8165    1.4507    0.0000 H   0  0  0  0  0  0  0  0  0  0  0  0
   -1.1185    0.3238    0.0000 H   0  0  0  0  0  0  0  0  0  0  0  0
   -2.9249   -0.7212    0.0000 H   0  0  0  0  0  0  0  0  0  0  0  0
   -3.2844   -1.5148    0.0000 H   0  0  0  0  0  0  0  0  0  0  0  0
   -2.7317   -2.1884    0.0000 H   0  0  0  0  0  0  0  0  0  0  0  0
   -1.9039   -2.7542    0.0000 H   0  0  0  0  0  0  0  0  0  0  0  0
   -1.3562   -2.5096    0.0000 H   0  0  0  0  0  0  0  0  0  0  0  0
   -1.8358   -1.1122    0.0000 H   0  0  0  0  0  0  0  0  0  0  0  0
  1  2  1  0  0  0  0
  2  3  1  0  0  0  0
  3  4  2  0  0  0  0
  5  3  1  4  0  0  0
  5  6  2  0  0  0  0
  6  7  1  0  0  0  0
  6  8  1  0  0  0  0
  8  9  1  0  0  0  0
  9 10  2  0  0  0  0
  9 11  1  0  0  0  0
 11 12  1  0  0  0  0
  9 13  1  0  0  0  0
 13 14  1  0  0  0  0
  1 15  1  0  0  0  0
  1 16  1  0  0  0  0
  1 17  1  0  0  0  0
  5 18  1  0  0  0  0
  7 19  1  0  0  0  0
  7 20  1  0  0  0  0
  7 21  1  0  0  0  0
 12 22  1  0  0  0  0
 12 23  1  0  0  0  0
 12 24  1  0  0  0  0
 14 25  1  0  0  0  0
 14 26  1  0  0  0  0
 14 27  1  0  0  0  0
M  END
>  <InChIKey>
InChI=1S/C7H13O6P/c1-6(5-7(8)10-2)13-14(9,11-3)12-4/h5H,1-4H3

>  <CASRN>
7786-34-7

> <Outcome>
0

>  <Index>
1544

>  <StandardizerResult>
Clear Stereo (ID: ClearStereo)
Wedge Clean (ID: WedgeClean)
Mesomerize (ID: Mesomerize)
Tautomerize (ID: Tautomerize)
Add Explicit Hydrogens (ID: AddExplicitH)
Neutralize (ID: Neutralize)
Clean 2D (ID: Clean2D)

> <knn Distance>
3.46410155296326

> <CpId>
1544

$$$$
1634
  Mrv1532301301811342D          

 26 28  0  0  0  0            999 V2000
    0.7145   -0.4125    0.0000 O   0  0  0  0  0  0  0  0  0  0  0  0
    0.7145   -1.2375    0.0000 C   0  0  0  0  0  0  0  0  0  0  0  0
    1.1270   -1.9520    0.0000 C   0  0  0  0  0  0  0  0  0  0  0  0
    0.3020   -1.9520    0.0000 C   0  0  0  0  0  0  0  0  0  0  0  0
   -0.4125   -2.3645    0.0000 C   0  0  0  0  0  0  0  0  0  0  0  0
   -0.4125   -3.1895    0.0000 C   0  0  0  0  0  0  0  0  0  0  0  0
   -1.1270   -3.6020    0.0000 C   0  0  0  0  0  0  0  0  0  0  0  0
   -1.8414   -3.1895    0.0000 C   0  0  0  0  0  0  0  0  0  0  0  0
   -1.8414   -2.3645    0.0000 C   0  0  0  0  0  0  0  0  0  0  0  0
   -1.1270   -1.9520    0.0000 C   0  0  0  0  0  0  0  0  0  0  0  0
    1.8414   -2.3645    0.0000 C   0  0  0  0  0  0  0  0  0  0  0  0
    2.5559   -1.9520    0.0000 C   0  0  0  0  0  0  0  0  0  0  0  0
    3.2704   -2.3645    0.0000 C   0  0  0  0  0  0  0  0  0  0  0  0
    3.2704   -3.1895    0.0000 C   0  0  0  0  0  0  0  0  0  0  0  0
    2.5559   -3.6020    0.0000 C   0  0  0  0  0  0  0  0  0  0  0  0
    1.8414   -3.1895    0.0000 C   0  0  0  0  0  0  0  0  0  0  0  0
    0.3020   -3.6020    0.0000 H   0  0  0  0  0  0  0  0  0  0  0  0
   -1.1270   -4.4270    0.0000 H   0  0  0  0  0  0  0  0  0  0  0  0
   -2.5559   -3.6020    0.0000 H   0  0  0  0  0  0  0  0  0  0  0  0
   -2.5559   -1.9520    0.0000 H   0  0  0  0  0  0  0  0  0  0  0  0
   -1.1270   -1.1270    0.0000 H   0  0  0  0  0  0  0  0  0  0  0  0
    2.5559   -1.1270    0.0000 H   0  0  0  0  0  0  0  0  0  0  0  0
    3.9849   -1.9520    0.0000 H   0  0  0  0  0  0  0  0  0  0  0  0
    3.9849   -3.6020    0.0000 H   0  0  0  0  0  0  0  0  0  0  0  0
    2.5559   -4.4270    0.0000 H   0  0  0  0  0  0  0  0  0  0  0  0
    1.1270   -3.6020    0.0000 H   0  0  0  0  0  0  0  0  0  0  0  0
  1  2  2  0  0  0  0
  2  3  1  0  0  0  0
  3  4  2  0  0  0  0
  2  4  1  0  0  0  0
  4  5  1  0  0  0  0
  5  6  4  0  0  0  0
  6  7  4  0  0  0  0
  7  8  4  0  0  0  0
  8  9  4  0  0  0  0
  9 10  4  0  0  0  0
  5 10  4  0  0  0  0
  3 11  1  0  0  0  0
 11 12  4  0  0  0  0
 12 13  4  0  0  0  0
 13 14  4  0  0  0  0
 14 15  4  0  0  0  0
 15 16  4  0  0  0  0
 11 16  4  0  0  0  0
  6 17  1  0  0  0  0
  7 18  1  0  0  0  0
  8 19  1  0  0  0  0
  9 20  1  0  0  0  0
 10 21  1  0  0  0  0
 12 22  1  0  0  0  0
 13 23  1  0  0  0  0
 14 24  1  0  0  0  0
 15 25  1  0  0  0  0
 16 26  1  0  0  0  0
M  END
>  <InChIKey>
InChI=1S/C15H10O/c16-15-13(11-7-3-1-4-8-11)14(15)12-9-5-2-6-10-12/h1-10H

>  <CASRN>
886-38-4

> <Outcome>
0

>  <Index>
1634

>  <StandardizerResult>
Dearomatize (ID: Dearomatize)
Clear Stereo (ID: ClearStereo)
Wedge Clean (ID: WedgeClean)
Mesomerize (ID: Mesomerize)
Tautomerize (ID: Tautomerize)
Aromatize (ID: Aromatize)
Add Explicit Hydrogens (ID: AddExplicitH)
Neutralize (ID: Neutralize)
Clean 2D (ID: Clean2D)

> <knn Distance>
3.46410155296326

> <CpId>
1634

$$$$
1641
  Mrv1532301301811342D          

 66 65  0  0  0  0            999 V2000
   -1.6625    3.9765    0.0000 C   0  0  0  0  0  0  0  0  0  0  0  0
   -0.9481    3.5640    0.0000 C   0  0  0  0  0  0  0  0  0  0  0  0
   -0.2336    3.9765    0.0000 C   0  0  0  0  0  0  0  0  0  0  0  0
    0.4809    3.5640    0.0000 C   0  0  0  0  0  0  0  0  0  0  0  0
    1.1954    3.9765    0.0000 C   0  0  0  0  0  0  0  0  0  0  0  0
    1.9098    3.5640    0.0000 C   0  0  0  0  0  0  0  0  0  0  0  0
    2.6243    3.9765    0.0000 C   0  0  0  0  0  0  0  0  0  0  0  0
    2.6243    4.8015    0.0000 O   0  0  0  0  0  0  0  0  0  0  0  0
    3.3388    3.5640    0.0000 C   0  0  0  0  0  0  0  0  0  0  0  0
    4.0532    3.9765    0.0000 C   0  0  0  0  0  0  0  0  0  0  0  0
    4.7677    3.5640    0.0000 C   0  0  0  0  0  0  0  0  0  0  0  0
    5.4822    3.9765    0.0000 C   0  0  0  0  0  0  0  0  0  0  0  0
    6.1966    3.5640    0.0000 C   0  0  0  0  0  0  0  0  0  0  0  0
    6.9111    3.9765    0.0000 C   0  0  0  0  0  0  0  0  0  0  0  0
    7.6256    3.5640    0.0000 C   0  0  0  0  0  0  0  0  0  0  0  0
    8.3401    3.9765    0.0000 C   0  0  0  0  0  0  0  0  0  0  0  0
    9.0545    3.5640    0.0000 C   0  0  0  0  0  0  0  0  0  0  0  0
    9.7690    3.9765    0.0000 C   0  0  0  0  0  0  0  0  0  0  0  0
   10.4835    3.5640    0.0000 C   0  0  0  0  0  0  0  0  0  0  0  0
   10.4835    2.7390    0.0000 O   0  0  0  0  0  0  0  0  0  0  0  0
   11.1979    3.9765    0.0000 O   0  0  0  0  0  0  0  0  0  0  0  0
   11.9124    3.5640    0.0000 C   0  0  0  0  0  0  0  0  0  0  0  0
   12.6269    3.9765    0.0000 C   0  0  0  0  0  0  0  0  0  0  0  0
   12.6269    4.8015    0.0000 O   0  0  0  0  0  0  0  0  0  0  0  0
   13.3414    3.5640    0.0000 C   0  0  0  0  0  0  0  0  0  0  0  0
   14.0558    3.9765    0.0000 O   0  0  0  0  0  0  0  0  0  0  0  0
   -1.2500    4.6910    0.0000 H   0  0  0  0  0  0  0  0  0  0  0  0
   -2.3770    4.3890    0.0000 H   0  0  0  0  0  0  0  0  0  0  0  0
   -2.0750    3.2621    0.0000 H   0  0  0  0  0  0  0  0  0  0  0  0
   -1.3183    2.8268    0.0000 H   0  0  0  0  0  0  0  0  0  0  0  0
   -0.5778    2.8268    0.0000 H   0  0  0  0  0  0  0  0  0  0  0  0
    0.1367    4.7138    0.0000 H   0  0  0  0  0  0  0  0  0  0  0  0
   -0.6038    4.7138    0.0000 H   0  0  0  0  0  0  0  0  0  0  0  0
    0.1106    2.8268    0.0000 H   0  0  0  0  0  0  0  0  0  0  0  0
    0.8511    2.8268    0.0000 H   0  0  0  0  0  0  0  0  0  0  0  0
    1.5656    4.7138    0.0000 H   0  0  0  0  0  0  0  0  0  0  0  0
    0.8251    4.7138    0.0000 H   0  0  0  0  0  0  0  0  0  0  0  0
    1.5396    2.8268    0.0000 H   0  0  0  0  0  0  0  0  0  0  0  0
    2.2801    2.8268    0.0000 H   0  0  0  0  0  0  0  0  0  0  0  0
    1.9098    4.3890    0.0000 H   0  0  0  0  0  0  0  0  0  0  0  0
    3.0368    5.5160    0.0000 H   0  0  0  0  0  0  0  0  0  0  0  0
    2.9685    2.8268    0.0000 H   0  0  0  0  0  0  0  0  0  0  0  0
    3.7090    2.8268    0.0000 H   0  0  0  0  0  0  0  0  0  0  0  0
    4.0532    4.8015    0.0000 H   0  0  0  0  0  0  0  0  0  0  0  0
    4.7677    2.7390    0.0000 H   0  0  0  0  0  0  0  0  0  0  0  0
    5.8524    4.7138    0.0000 H   0  0  0  0  0  0  0  0  0  0  0  0
    5.1119    4.7138    0.0000 H   0  0  0  0  0  0  0  0  0  0  0  0
    5.8264    2.8268    0.0000 H   0  0  0  0  0  0  0  0  0  0  0  0
    6.5669    2.8268    0.0000 H   0  0  0  0  0  0  0  0  0  0  0  0
    7.2814    4.7138    0.0000 H   0  0  0  0  0  0  0  0  0  0  0  0
    6.5409    4.7138    0.0000 H   0  0  0  0  0  0  0  0  0  0  0  0
    7.2553    2.8268    0.0000 H   0  0  0  0  0  0  0  0  0  0  0  0
    7.9959    2.8268    0.0000 H   0  0  0  0  0  0  0  0  0  0  0  0
    8.7103    4.7138    0.0000 H   0  0  0  0  0  0  0  0  0  0  0  0
    7.9698    4.7138    0.0000 H   0  0  0  0  0  0  0  0  0  0  0  0
    8.6843    2.8268    0.0000 H   0  0  0  0  0  0  0  0  0  0  0  0
    9.4248    2.8268    0.0000 H   0  0  0  0  0  0  0  0  0  0  0  0
   10.1393    4.7138    0.0000 H   0  0  0  0  0  0  0  0  0  0  0  0
    9.3987    4.7138    0.0000 H   0  0  0  0  0  0  0  0  0  0  0  0
   11.5422    2.8268    0.0000 H   0  0  0  0  0  0  0  0  0  0  0  0
   12.2827    2.8268    0.0000 H   0  0  0  0  0  0  0  0  0  0  0  0
   11.9124    4.3890    0.0000 H   0  0  0  0  0  0  0  0  0  0  0  0
   13.0394    5.5160    0.0000 H   0  0  0  0  0  0  0  0  0  0  0  0
   12.9711    2.8268    0.0000 H   0  0  0  0  0  0  0  0  0  0  0  0
   13.7116    2.8268    0.0000 H   0  0  0  0  0  0  0  0  0  0  0  0
   14.7703    3.5640    0.0000 H   0  0  0  0  0  0  0  0  0  0  0  0
  1  2  1  0  0  0  0
  2  3  1  0  0  0  0
  3  4  1  0  0  0  0
  4  5  1  0  0  0  0
  5  6  1  0  0  0  0
  6  7  1  0  0  0  0
  7  8  1  0  0  0  0
  7  9  1  0  0  0  0
 10  9  1  4  0  0  0
 10 11  2  0  0  0  0
 11 12  1  0  0  0  0
 12 13  1  0  0  0  0
 13 14  1  0  0  0  0
 14 15  1  0  0  0  0
 15 16  1  0  0  0  0
 16 17  1  0  0  0  0
 17 18  1  0  0  0  0
 18 19  1  0  0  0  0
 19 20  2  0  0  0  0
 19 21  1  0  0  0  0
 21 22  1  0  0  0  0
 22 23  1  0  0  0  0
 23 24  1  0  0  0  0
 23 25  1  0  0  0  0
 25 26  1  0  0  0  0
  1 27  1  0  0  0  0
  1 28  1  0  0  0  0
  1 29  1  0  0  0  0
  2 30  1  0  0  0  0
  2 31  1  0  0  0  0
  3 32  1  0  0  0  0
  3 33  1  0  0  0  0
  4 34  1  0  0  0  0
  4 35  1  0  0  0  0
  5 36  1  0  0  0  0
  5 37  1  0  0  0  0
  6 38  1  0  0  0  0
  6 39  1  0  0  0  0
  7 40  1  0  0  0  0
  8 41  1  0  0  0  0
  9 42  1  0  0  0  0
  9 43  1  0  0  0  0
 10 44  1  0  0  0  0
 11 45  1  0  0  0  0
 12 46  1  0  0  0  0
 12 47  1  0  0  0  0
 13 48  1  0  0  0  0
 13 49  1  0  0  0  0
 14 50  1  0  0  0  0
 14 51  1  0  0  0  0
 15 52  1  0  0  0  0
 15 53  1  0  0  0  0
 16 54  1  0  0  0  0
 16 55  1  0  0  0  0
 17 56  1  0  0  0  0
 17 57  1  0  0  0  0
 18 58  1  0  0  0  0
 18 59  1  0  0  0  0
 22 60  1  0  0  0  0
 22 61  1  0  0  0  0
 23 62  1  0  0  0  0
 24 63  1  0  0  0  0
 25 64  1  0  0  0  0
 25 65  1  0  0  0  0
 26 66  1  0  0  0  0
M  END
>  <InChIKey>
InChI=1S/C21H40O5/c1-2-3-4-11-14-19(23)15-12-9-7-5-6-8-10-13-16-21(25)26-18-20(24)17-22/h9,12,19-20,22-24H,2-8,10-11,13-18H2,1H3

>  <CASRN>
141-08-2

> <Outcome>
0

>  <Index>
1641

>  <StandardizerResult>
Clear Stereo (ID: ClearStereo)
Wedge Clean (ID: WedgeClean)
Mesomerize (ID: Mesomerize)
Tautomerize (ID: Tautomerize)
Add Explicit Hydrogens (ID: AddExplicitH)
Neutralize (ID: Neutralize)
Clean 2D (ID: Clean2D)

> <knn Distance>
3.46410155296326

> <CpId>
1641

$$$$
1691
  Mrv1532301301811342D          

 26 25  0  0  0  0            999 V2000
   -1.4168    3.9055    0.0000 Cl  0  0  0  0  0  0  0  0  0  0  0  0
   -0.7023    3.4930    0.0000 C   0  0  0  0  0  0  0  0  0  0  0  0
   -0.7023    2.6680    0.0000 C   0  0  0  0  0  0  0  0  0  0  0  0
    0.0122    2.2555    0.0000 O   0  0  0  0  0  0  0  0  0  0  0  0
    0.0122    1.4305    0.0000 P   0  0  0  0  0  0  0  0  0  0  0  0
   -0.8128    1.4305    0.0000 O   0  0  0  0  0  0  0  0  0  0  0  0
    0.0122    0.6055    0.0000 O   0  0  0  0  0  0  0  0  0  0  0  0
   -0.7023    0.1930    0.0000 C   0  0  0  0  0  0  0  0  0  0  0  0
   -1.4168    0.6055    0.0000 C   0  0  0  0  0  0  0  0  0  0  0  0
   -2.1312    0.1930    0.0000 Cl  0  0  0  0  0  0  0  0  0  0  0  0
    0.8372    1.4305    0.0000 O   0  0  0  0  0  0  0  0  0  0  0  0
    1.2497    0.7160    0.0000 C   0  0  0  0  0  0  0  0  0  0  0  0
    0.8372    0.0016    0.0000 C   0  0  0  0  0  0  0  0  0  0  0  0
    0.0122    0.0016    0.0000 Cl  0  0  0  0  0  0  0  0  0  0  0  0
    0.1213    3.5410    0.0000 H   0  0  0  0  0  0  0  0  0  0  0  0
   -0.2490    4.1823    0.0000 H   0  0  0  0  0  0  0  0  0  0  0  0
   -1.5259    2.6200    0.0000 H   0  0  0  0  0  0  0  0  0  0  0  0
   -1.1557    1.9787    0.0000 H   0  0  0  0  0  0  0  0  0  0  0  0
   -1.2771   -0.3988    0.0000 H   0  0  0  0  0  0  0  0  0  0  0  0
   -0.7143   -0.6319    0.0000 H   0  0  0  0  0  0  0  0  0  0  0  0
   -1.0465    1.3428    0.0000 H   0  0  0  0  0  0  0  0  0  0  0  0
   -1.7870    1.3428    0.0000 H   0  0  0  0  0  0  0  0  0  0  0  0
    1.9869    0.3458    0.0000 H   0  0  0  0  0  0  0  0  0  0  0  0
    1.9869    1.0863    0.0000 H   0  0  0  0  0  0  0  0  0  0  0  0
    0.8851   -0.8220    0.0000 H   0  0  0  0  0  0  0  0  0  0  0  0
    1.5264   -0.4518    0.0000 H   0  0  0  0  0  0  0  0  0  0  0  0
  1  2  1  0  0  0  0
  2  3  1  0  0  0  0
  3  4  1  0  0  0  0
  4  5  1  0  0  0  0
  5  6  2  0  0  0  0
  5  7  1  0  0  0  0
  7  8  1  0  0  0  0
  8  9  1  0  0  0  0
  9 10  1  0  0  0  0
  5 11  1  0  0  0  0
 11 12  1  0  0  0  0
 12 13  1  0  0  0  0
 13 14  1  0  0  0  0
  2 15  1  0  0  0  0
  2 16  1  0  0  0  0
  3 17  1  0  0  0  0
  3 18  1  0  0  0  0
  8 19  1  0  0  0  0
  8 20  1  0  0  0  0
  9 21  1  0  0  0  0
  9 22  1  0  0  0  0
 12 23  1  0  0  0  0
 12 24  1  0  0  0  0
 13 25  1  0  0  0  0
 13 26  1  0  0  0  0
M  END
>  <InChIKey>
InChI=1S/C6H12Cl3O4P/c7-1-4-11-14(10,12-5-2-8)13-6-3-9/h1-6H2

>  <UN GHS>
Non-irritant

>  <CASRN>
115-96-8

> <Outcome>
0

>  <Index>
1691

>  <StandardizerResult>
Clear Stereo (ID: ClearStereo)
Wedge Clean (ID: WedgeClean)
Mesomerize (ID: Mesomerize)
Tautomerize (ID: Tautomerize)
Add Explicit Hydrogens (ID: AddExplicitH)
Neutralize (ID: Neutralize)
Clean 2D (ID: Clean2D)

> <knn Distance>
3.46410155296326

> <CpId>
1691

$$$$
1760
  Mrv1532301301811342D          

 34 34  0  0  0  0            999 V2000
    0.0507    4.2222    0.0000 C   0  0  0  0  0  0  0  0  0  0  0  0
    0.0507    3.3972    0.0000 C   0  0  0  0  0  0  0  0  0  0  0  0
   -0.6638    2.9847    0.0000 O   0  0  0  0  0  0  0  0  0  0  0  0
    0.7651    2.9847    0.0000 O   0  0  0  0  0  0  0  0  0  0  0  0
    0.7651    2.1597    0.0000 C   0  0  0  0  0  0  0  0  0  0  0  0
   -0.0599    2.1597    0.0000 C   0  0  0  0  0  0  0  0  0  0  0  0
    1.5901    2.1597    0.0000 C   0  0  0  0  0  0  0  0  0  0  0  0
    0.7651    1.3347    0.0000 C   0  0  0  0  0  0  0  0  0  0  0  0
    1.4796    0.9222    0.0000 C   0  0  0  0  0  0  0  0  0  0  0  0
    1.4796    0.0972    0.0000 C   0  0  0  0  0  0  0  0  0  0  0  0
    0.7651   -0.3153    0.0000 C   0  0  0  0  0  0  0  0  0  0  0  0
    0.7651   -1.1403    0.0000 C   0  0  0  0  0  0  0  0  0  0  0  0
    0.0507    0.0972    0.0000 C   0  0  0  0  0  0  0  0  0  0  0  0
    0.0507    0.9222    0.0000 C   0  0  0  0  0  0  0  0  0  0  0  0
    0.8757    4.2222    0.0000 H   0  0  0  0  0  0  0  0  0  0  0  0
    0.0507    5.0472    0.0000 H   0  0  0  0  0  0  0  0  0  0  0  0
   -0.7743    4.2222    0.0000 H   0  0  0  0  0  0  0  0  0  0  0  0
   -0.0599    2.9847    0.0000 H   0  0  0  0  0  0  0  0  0  0  0  0
   -0.8849    2.1597    0.0000 H   0  0  0  0  0  0  0  0  0  0  0  0
   -0.0599    1.3347    0.0000 H   0  0  0  0  0  0  0  0  0  0  0  0
    1.5901    1.3347    0.0000 H   0  0  0  0  0  0  0  0  0  0  0  0
    2.4151    2.1597    0.0000 H   0  0  0  0  0  0  0  0  0  0  0  0
    1.5901    2.9847    0.0000 H   0  0  0  0  0  0  0  0  0  0  0  0
    0.7651    0.5097    0.0000 H   0  0  0  0  0  0  0  0  0  0  0  0
    2.1554    0.4490    0.0000 H   0  0  0  0  0  0  0  0  0  0  0  0
    2.2549    1.2043    0.0000 H   0  0  0  0  0  0  0  0  0  0  0  0
    1.4676   -0.7278    0.0000 H   0  0  0  0  0  0  0  0  0  0  0  0
    2.1818   -0.3359    0.0000 H   0  0  0  0  0  0  0  0  0  0  0  0
   -0.0322   -0.9283    0.0000 H   0  0  0  0  0  0  0  0  0  0  0  0
    0.3553   -1.8563    0.0000 H   0  0  0  0  0  0  0  0  0  0  0  0
    1.3518   -1.7204    0.0000 H   0  0  0  0  0  0  0  0  0  0  0  0
   -0.6638   -0.3153    0.0000 H   0  0  0  0  0  0  0  0  0  0  0  0
   -0.7246    1.2043    0.0000 H   0  0  0  0  0  0  0  0  0  0  0  0
   -0.6251    0.4490    0.0000 H   0  0  0  0  0  0  0  0  0  0  0  0
  1  2  1  0  0  0  0
  2  3  2  0  0  0  0
  2  4  1  0  0  0  0
  4  5  1  0  0  0  0
  5  6  1  0  0  0  0
  5  7  1  0  0  0  0
  5  8  1  0  0  0  0
  8  9  1  0  0  0  0
  9 10  1  0  0  0  0
 10 11  1  0  0  0  0
 11 12  1  0  0  0  0
 11 13  2  0  0  0  0
 13 14  1  0  0  0  0
  8 14  1  0  0  0  0
  1 15  1  0  0  0  0
  1 16  1  0  0  0  0
  1 17  1  0  0  0  0
  6 18  1  0  0  0  0
  6 19  1  0  0  0  0
  6 20  1  0  0  0  0
  7 21  1  0  0  0  0
  7 22  1  0  0  0  0
  7 23  1  0  0  0  0
  8 24  1  0  0  0  0
  9 25  1  0  0  0  0
  9 26  1  0  0  0  0
 10 27  1  0  0  0  0
 10 28  1  0  0  0  0
 12 29  1  0  0  0  0
 12 30  1  0  0  0  0
 12 31  1  0  0  0  0
 13 32  1  0  0  0  0
 14 33  1  0  0  0  0
 14 34  1  0  0  0  0
M  END
>  <InChIKey>
InChI=1S/C12H20O2/c1-9-5-7-11(8-6-9)12(3,4)14-10(2)13/h5,11H,6-8H2,1-4H3

>  <CASRN>
80-26-2

> <Outcome>
0

>  <Index>
1760

>  <StandardizerResult>
Clear Stereo (ID: ClearStereo)
Wedge Clean (ID: WedgeClean)
Mesomerize (ID: Mesomerize)
Tautomerize (ID: Tautomerize)
Add Explicit Hydrogens (ID: AddExplicitH)
Neutralize (ID: Neutralize)
Clean 2D (ID: Clean2D)

> <knn Distance>
3.46410155296326

> <CpId>
1760

$$$$
1834
  Mrv1532301301811342D          

 28 30  0  0  0  0            999 V2000
    4.0037    0.6254    0.0000 C   0  0  0  0  0  0  0  0  0  0  0  0
    3.1787    0.6254    0.0000 C   0  0  0  0  0  0  0  0  0  0  0  0
    2.6938   -0.0420    0.0000 C   0  0  0  0  0  0  0  0  0  0  0  0
    1.9092    0.2129    0.0000 C   0  0  0  0  0  0  0  0  0  0  0  0
    1.9092    1.0379    0.0000 C   0  0  0  0  0  0  0  0  0  0  0  0
    2.6938    1.2929    0.0000 C   0  0  0  0  0  0  0  0  0  0  0  0
    1.1947    1.4504    0.0000 C   0  0  0  0  0  0  0  0  0  0  0  0
    1.4009    0.6254    0.0000 C   0  0  0  0  0  0  0  0  0  0  0  0
    1.1947   -0.1996    0.0000 C   0  0  0  0  0  0  0  0  0  0  0  0
    0.4802    0.2129    0.0000 C   0  0  0  0  0  0  0  0  0  0  0  0
   -0.2342   -0.1996    0.0000 C   0  0  0  0  0  0  0  0  0  0  0  0
    0.4802    1.0379    0.0000 C   0  0  0  0  0  0  0  0  0  0  0  0
    4.0037   -0.1996    0.0000 H   0  0  0  0  0  0  0  0  0  0  0  0
    4.8287    0.6254    0.0000 H   0  0  0  0  0  0  0  0  0  0  0  0
    4.0037    1.4504    0.0000 H   0  0  0  0  0  0  0  0  0  0  0  0
    2.9487   -0.8266    0.0000 H   0  0  0  0  0  0  0  0  0  0  0  0
    1.9954   -0.6075    0.0000 H   0  0  0  0  0  0  0  0  0  0  0  0
    1.9954    1.8584    0.0000 H   0  0  0  0  0  0  0  0  0  0  0  0
    3.4596    1.5997    0.0000 H   0  0  0  0  0  0  0  0  0  0  0  0
    3.0403    2.0416    0.0000 H   0  0  0  0  0  0  0  0  0  0  0  0
    0.8010    2.1755    0.0000 H   0  0  0  0  0  0  0  0  0  0  0  0
    0.6552    0.9783    0.0000 H   0  0  0  0  0  0  0  0  0  0  0  0
    0.6552    0.2726    0.0000 H   0  0  0  0  0  0  0  0  0  0  0  0
    0.8010   -0.9246    0.0000 H   0  0  0  0  0  0  0  0  0  0  0  0
   -0.6467    0.5149    0.0000 H   0  0  0  0  0  0  0  0  0  0  0  0
   -0.9487   -0.6121    0.0000 H   0  0  0  0  0  0  0  0  0  0  0  0
    0.1783   -0.9140    0.0000 H   0  0  0  0  0  0  0  0  0  0  0  0
   -0.2342    1.4504    0.0000 H   0  0  0  0  0  0  0  0  0  0  0  0
  1  2  1  0  0  0  0
  2  3  2  0  0  0  0
  3  4  1  0  0  0  0
  4  5  1  0  0  0  0
  5  6  1  0  0  0  0
  2  6  1  0  0  0  0
  5  7  1  0  0  0  0
  7  8  1  0  0  0  0
  8  9  1  0  0  0  0
  4  9  1  0  0  0  0
  9 10  1  0  0  0  0
 10 11  1  0  0  0  0
 10 12  2  0  0  0  0
  7 12  1  0  0  0  0
  1 13  1  0  0  0  0
  1 14  1  0  0  0  0
  1 15  1  0  0  0  0
  3 16  1  0  0  0  0
  4 17  1  0  0  0  0
  5 18  1  0  0  0  0
  6 19  1  0  0  0  0
  6 20  1  0  0  0  0
  7 21  1  0  0  0  0
  8 22  1  0  0  0  0
  8 23  1  0  0  0  0
  9 24  1  0  0  0  0
 11 25  1  0  0  0  0
 11 26  1  0  0  0  0
 11 27  1  0  0  0  0
 12 28  1  0  0  0  0
M  END
>  <InChIKey>
InChI=1S/C12H16/c1-7-3-11-9-5-8(2)10(6-9)12(11)4-7/h4-5,9-12H,3,6H2,1-2H3

>  <UN GHS>
Non-irritant

>  <CASRN>
26472-00-4

> <Outcome>
0

>  <Index>
1834

>  <StandardizerResult>
Clear Stereo (ID: ClearStereo)
Wedge Clean (ID: WedgeClean)
Mesomerize (ID: Mesomerize)
Tautomerize (ID: Tautomerize)
Add Explicit Hydrogens (ID: AddExplicitH)
Neutralize (ID: Neutralize)
Clean 2D (ID: Clean2D)

> <knn Distance>
3.46410155296326

> <CpId>
1834

$$$$
1945
  Mrv1532301301811342D          

 42 45  0  0  0  0            999 V2000
   -0.5748   -0.0213    0.0000 O   0  0  0  0  0  0  0  0  0  0  0  0
   -0.1623   -0.7358    0.0000 C   0  0  0  0  0  0  0  0  0  0  0  0
   -0.5748   -1.4502    0.0000 C   0  0  0  0  0  0  0  0  0  0  0  0
   -1.3998   -1.4502    0.0000 C   0  0  0  0  0  0  0  0  0  0  0  0
   -1.8123   -2.1647    0.0000 C   0  0  0  0  0  0  0  0  0  0  0  0
   -2.6373   -2.1647    0.0000 C   0  0  0  0  0  0  0  0  0  0  0  0
   -3.0498   -1.4502    0.0000 C   0  0  0  0  0  0  0  0  0  0  0  0
   -2.6373   -0.7358    0.0000 C   0  0  0  0  0  0  0  0  0  0  0  0
   -1.8123   -0.7358    0.0000 C   0  0  0  0  0  0  0  0  0  0  0  0
   -0.1623   -2.1647    0.0000 C   0  0  0  0  0  0  0  0  0  0  0  0
    0.6627   -2.1647    0.0000 C   0  0  0  0  0  0  0  0  0  0  0  0
    1.0752   -2.8792    0.0000 C   0  0  0  0  0  0  0  0  0  0  0  0
    0.6627   -3.5937    0.0000 C   0  0  0  0  0  0  0  0  0  0  0  0
   -0.1623   -3.5937    0.0000 C   0  0  0  0  0  0  0  0  0  0  0  0
   -0.5748   -2.8792    0.0000 C   0  0  0  0  0  0  0  0  0  0  0  0
    0.6627   -0.7358    0.0000 C   0  0  0  0  0  0  0  0  0  0  0  0
    1.1476   -0.0683    0.0000 C   0  0  0  0  0  0  0  0  0  0  0  0
    0.8927    0.7163    0.0000 O   0  0  0  0  0  0  0  0  0  0  0  0
    1.9322   -0.3233    0.0000 C   0  0  0  0  0  0  0  0  0  0  0  0
    2.6467    0.0892    0.0000 C   0  0  0  0  0  0  0  0  0  0  0  0
    3.3612   -0.3233    0.0000 C   0  0  0  0  0  0  0  0  0  0  0  0
    3.3612   -1.1483    0.0000 C   0  0  0  0  0  0  0  0  0  0  0  0
    2.6467   -1.5608    0.0000 C   0  0  0  0  0  0  0  0  0  0  0  0
    1.9322   -1.1483    0.0000 C   0  0  0  0  0  0  0  0  0  0  0  0
    1.1476   -1.4032    0.0000 C   0  0  0  0  0  0  0  0  0  0  0  0
    1.1476   -2.2282    0.0000 O   0  0  0  0  0  0  0  0  0  0  0  0
   -0.9873   -0.7358    0.0000 H   0  0  0  0  0  0  0  0  0  0  0  0
   -1.3998   -2.8792    0.0000 H   0  0  0  0  0  0  0  0  0  0  0  0
   -3.0498   -2.8792    0.0000 H   0  0  0  0  0  0  0  0  0  0  0  0
   -3.8748   -1.4502    0.0000 H   0  0  0  0  0  0  0  0  0  0  0  0
   -3.0498   -0.0213    0.0000 H   0  0  0  0  0  0  0  0  0  0  0  0
   -1.8123    0.0892    0.0000 H   0  0  0  0  0  0  0  0  0  0  0  0
    0.2658   -1.4415    0.0000 H   0  0  0  0  0  0  0  0  0  0  0  0
    1.8590   -3.1365    0.0000 H   0  0  0  0  0  0  0  0  0  0  0  0
    1.0752   -4.3081    0.0000 H   0  0  0  0  0  0  0  0  0  0  0  0
   -0.5748   -4.3081    0.0000 H   0  0  0  0  0  0  0  0  0  0  0  0
   -0.9873   -2.1647    0.0000 H   0  0  0  0  0  0  0  0  0  0  0  0
    0.2881   -0.0007    0.0000 H   0  0  0  0  0  0  0  0  0  0  0  0
    2.6467    0.9142    0.0000 H   0  0  0  0  0  0  0  0  0  0  0  0
    4.0756    0.0892    0.0000 H   0  0  0  0  0  0  0  0  0  0  0  0
    4.0756   -1.5608    0.0000 H   0  0  0  0  0  0  0  0  0  0  0  0
    2.6467   -2.3858    0.0000 H   0  0  0  0  0  0  0  0  0  0  0  0
  1  2  2  0  0  0  0
  2  3  1  0  0  0  0
  3  4  1  0  0  0  0
  4  5  4  0  0  0  0
  5  6  4  0  0  0  0
  6  7  4  0  0  0  0
  7  8  4  0  0  0  0
  8  9  4  0  0  0  0
  4  9  4  0  0  0  0
  3 10  1  0  0  0  0
 10 11  4  0  0  0  0
 11 12  4  0  0  0  0
 12 13  4  0  0  0  0
 13 14  4  0  0  0  0
 14 15  4  0  0  0  0
 10 15  4  0  0  0  0
  2 16  1  0  0  0  0
 16 17  1  0  0  0  0
 17 18  2  0  0  0  0
 17 19  1  0  0  0  0
 19 20  4  0  0  0  0
 20 21  4  0  0  0  0
 21 22  4  0  0  0  0
 22 23  4  0  0  0  0
 23 24  4  0  0  0  0
 19 24  4  0  0  0  0
 24 25  1  0  0  0  0
 16 25  1  0  0  0  0
 25 26  2  0  0  0  0
  3 27  1  0  0  0  0
  5 28  1  0  0  0  0
  6 29  1  0  0  0  0
  7 30  1  0  0  0  0
  8 31  1  0  0  0  0
  9 32  1  0  0  0  0
 11 33  1  0  0  0  0
 12 34  1  0  0  0  0
 13 35  1  0  0  0  0
 14 36  1  0  0  0  0
 15 37  1  0  0  0  0
 16 38  1  0  0  0  0
 20 39  1  0  0  0  0
 21 40  1  0  0  0  0
 22 41  1  0  0  0  0
 23 42  1  0  0  0  0
M  END
>  <InChIKey>
InChI=1S/C23H16O3/c24-21-17-13-7-8-14-18(17)22(25)20(21)23(26)19(15-9-3-1-4-10-15)16-11-5-2-6-12-16/h1-14,19-20H

>  <UN GHS>
Non-irritant

>  <CASRN>
82-66-6

> <Outcome>
0

>  <Index>
1945

>  <StandardizerResult>
Dearomatize (ID: Dearomatize)
Clear Stereo (ID: ClearStereo)
Wedge Clean (ID: WedgeClean)
Mesomerize (ID: Mesomerize)
Tautomerize (ID: Tautomerize)
Aromatize (ID: Aromatize)
Add Explicit Hydrogens (ID: AddExplicitH)
Neutralize (ID: Neutralize)
Clean 2D (ID: Clean2D)

> <knn Distance>
3.46410155296326

> <CpId>
1945

$$$$
2002
  Mrv1532301301811342D          

 31 31  0  0  0  0            999 V2000
   -1.4780    4.9608    0.0000 C   0  0  0  0  0  0  0  0  0  0  0  0
   -1.4780    4.1358    0.0000 C   0  0  0  0  0  0  0  0  0  0  0  0
   -0.7635    3.7233    0.0000 O   0  0  0  0  0  0  0  0  0  0  0  0
   -0.7635    2.8983    0.0000 C   0  0  0  0  0  0  0  0  0  0  0  0
   -1.4780    2.4858    0.0000 O   0  0  0  0  0  0  0  0  0  0  0  0
   -0.0490    2.4858    0.0000 C   0  0  0  0  0  0  0  0  0  0  0  0
   -0.4615    1.7713    0.0000 C   0  0  0  0  0  0  0  0  0  0  0  0
    0.3635    3.2003    0.0000 C   0  0  0  0  0  0  0  0  0  0  0  0
    0.6655    2.0733    0.0000 O   0  0  0  0  0  0  0  0  0  0  0  0
    0.6655    1.2483    0.0000 C   0  0  0  0  0  0  0  0  0  0  0  0
    1.3799    0.8358    0.0000 C   0  0  0  0  0  0  0  0  0  0  0  0
    1.3799    0.0108    0.0000 C   0  0  0  0  0  0  0  0  0  0  0  0
    0.6655   -0.4017    0.0000 C   0  0  0  0  0  0  0  0  0  0  0  0
    0.6655   -1.2267    0.0000 Cl  0  0  0  0  0  0  0  0  0  0  0  0
   -0.0490    0.0108    0.0000 C   0  0  0  0  0  0  0  0  0  0  0  0
   -0.0490    0.8358    0.0000 C   0  0  0  0  0  0  0  0  0  0  0  0
   -0.6530    4.9608    0.0000 H   0  0  0  0  0  0  0  0  0  0  0  0
   -1.4780    5.7858    0.0000 H   0  0  0  0  0  0  0  0  0  0  0  0
   -2.3030    4.9608    0.0000 H   0  0  0  0  0  0  0  0  0  0  0  0
   -2.3016    4.0878    0.0000 H   0  0  0  0  0  0  0  0  0  0  0  0
   -1.9313    3.4465    0.0000 H   0  0  0  0  0  0  0  0  0  0  0  0
   -1.1760    2.1838    0.0000 H   0  0  0  0  0  0  0  0  0  0  0  0
   -0.8740    1.0569    0.0000 H   0  0  0  0  0  0  0  0  0  0  0  0
    0.2530    1.3588    0.0000 H   0  0  0  0  0  0  0  0  0  0  0  0
    1.0780    2.7878    0.0000 H   0  0  0  0  0  0  0  0  0  0  0  0
    0.7760    3.9148    0.0000 H   0  0  0  0  0  0  0  0  0  0  0  0
   -0.3510    3.6128    0.0000 H   0  0  0  0  0  0  0  0  0  0  0  0
    2.0944    1.2483    0.0000 H   0  0  0  0  0  0  0  0  0  0  0  0
    2.0944   -0.4017    0.0000 H   0  0  0  0  0  0  0  0  0  0  0  0
   -0.7635   -0.4017    0.0000 H   0  0  0  0  0  0  0  0  0  0  0  0
    0.6655    0.4233    0.0000 H   0  0  0  0  0  0  0  0  0  0  0  0
  1  2  1  0  0  0  0
  2  3  1  0  0  0  0
  3  4  1  0  0  0  0
  4  5  2  0  0  0  0
  4  6  1  0  0  0  0
  6  7  1  0  0  0  0
  6  8  1  0  0  0  0
  6  9  1  0  0  0  0
  9 10  1  0  0  0  0
 10 11  4  0  0  0  0
 11 12  4  0  0  0  0
 12 13  4  0  0  0  0
 13 14  1  0  0  0  0
 13 15  4  0  0  0  0
 15 16  4  0  0  0  0
 10 16  4  0  0  0  0
  1 17  1  0  0  0  0
  1 18  1  0  0  0  0
  1 19  1  0  0  0  0
  2 20  1  0  0  0  0
  2 21  1  0  0  0  0
  7 22  1  0  0  0  0
  7 23  1  0  0  0  0
  7 24  1  0  0  0  0
  8 25  1  0  0  0  0
  8 26  1  0  0  0  0
  8 27  1  0  0  0  0
 11 28  1  0  0  0  0
 12 29  1  0  0  0  0
 15 30  1  0  0  0  0
 16 31  1  0  0  0  0
M  END
>  <InChIKey>
InChI=1S/C12H15ClO3/c1-4-15-11(14)12(2,3)16-10-7-5-9(13)6-8-10/h5-8H,4H2,1-3H3

>  <CASRN>
637-07-0

> <Outcome>
0

>  <Index>
2002

>  <StandardizerResult>
Dearomatize (ID: Dearomatize)
Clear Stereo (ID: ClearStereo)
Wedge Clean (ID: WedgeClean)
Mesomerize (ID: Mesomerize)
Tautomerize (ID: Tautomerize)
Aromatize (ID: Aromatize)
Add Explicit Hydrogens (ID: AddExplicitH)
Neutralize (ID: Neutralize)
Clean 2D (ID: Clean2D)

> <knn Distance>
3.46410155296326

> <CpId>
2002

$$$$
2011
  Mrv1532301301811342D          

 32 33  0  0  0  0            999 V2000
    3.4289    1.8053    0.0000 C   0  0  0  0  0  0  0  0  0  0  0  0
    3.0164    2.5198    0.0000 C   0  0  0  0  0  0  0  0  0  0  0  0
    2.6039    3.2343    0.0000 C   0  0  0  0  0  0  0  0  0  0  0  0
    2.3020    2.1073    0.0000 O   0  0  0  0  0  0  0  0  0  0  0  0
    2.3020    1.2823    0.0000 C   0  0  0  0  0  0  0  0  0  0  0  0
    3.0164    0.8698    0.0000 C   0  0  0  0  0  0  0  0  0  0  0  0
    3.0164    0.0448    0.0000 C   0  0  0  0  0  0  0  0  0  0  0  0
    2.3020   -0.3677    0.0000 C   0  0  0  0  0  0  0  0  0  0  0  0
    1.5875    0.0448    0.0000 C   0  0  0  0  0  0  0  0  0  0  0  0
    1.5875    0.8698    0.0000 C   0  0  0  0  0  0  0  0  0  0  0  0
    2.3020   -1.1927    0.0000 C   0  0  0  0  0  0  0  0  0  0  0  0
    2.7145   -1.9072    0.0000 C   0  0  0  0  0  0  0  0  0  0  0  0
    1.8895   -1.9072    0.0000 C   0  0  0  0  0  0  0  0  0  0  0  0
    1.5408   -2.6549    0.0000 Cl  0  0  0  0  0  0  0  0  0  0  0  0
    1.0676   -1.8353    0.0000 Cl  0  0  0  0  0  0  0  0  0  0  0  0
    3.7309    2.9323    0.0000 C   0  0  0  0  0  0  0  0  0  0  0  0
    3.7309    3.7573    0.0000 O   0  0  0  0  0  0  0  0  0  0  0  0
    4.4454    2.5198    0.0000 O   0  0  0  0  0  0  0  0  0  0  0  0
    2.7145    1.3928    0.0000 H   0  0  0  0  0  0  0  0  0  0  0  0
    3.8414    1.0908    0.0000 H   0  0  0  0  0  0  0  0  0  0  0  0
    4.1434    2.2178    0.0000 H   0  0  0  0  0  0  0  0  0  0  0  0
    3.3184    3.6468    0.0000 H   0  0  0  0  0  0  0  0  0  0  0  0
    2.1914    3.9487    0.0000 H   0  0  0  0  0  0  0  0  0  0  0  0
    1.8895    2.8218    0.0000 H   0  0  0  0  0  0  0  0  0  0  0  0
    3.3321    1.6320    0.0000 H   0  0  0  0  0  0  0  0  0  0  0  0
    3.7309   -0.3677    0.0000 H   0  0  0  0  0  0  0  0  0  0  0  0
    0.8730   -0.3677    0.0000 H   0  0  0  0  0  0  0  0  0  0  0  0
    0.8730    1.2823    0.0000 H   0  0  0  0  0  0  0  0  0  0  0  0
    1.5051   -0.9792    0.0000 H   0  0  0  0  0  0  0  0  0  0  0  0
    3.0847   -2.6444    0.0000 H   0  0  0  0  0  0  0  0  0  0  0  0
    3.5381   -1.8592    0.0000 H   0  0  0  0  0  0  0  0  0  0  0  0
    4.2331    4.4118    0.0000 H   0  0  0  0  0  0  0  0  0  0  0  0
  1  2  1  0  0  0  0
  2  3  1  0  0  0  0
  2  4  1  0  0  0  0
  4  5  1  0  0  0  0
  5  6  4  0  0  0  0
  6  7  4  0  0  0  0
  7  8  4  0  0  0  0
  8  9  4  0  0  0  0
  9 10  4  0  0  0  0
  5 10  4  0  0  0  0
  8 11  1  0  0  0  0
 11 12  1  0  0  0  0
 12 13  1  0  0  0  0
 11 13  1  0  0  0  0
 13 14  1  0  0  0  0
 13 15  1  0  0  0  0
  2 16  1  0  0  0  0
 16 17  1  0  0  0  0
 16 18  2  0  0  0  0
  1 19  1  0  0  0  0
  1 20  1  0  0  0  0
  1 21  1  0  0  0  0
  3 22  1  0  0  0  0
  3 23  1  0  0  0  0
  3 24  1  0  0  0  0
  6 25  1  0  0  0  0
  7 26  1  0  0  0  0
  9 27  1  0  0  0  0
 10 28  1  0  0  0  0
 11 29  1  0  0  0  0
 12 30  1  0  0  0  0
 12 31  1  0  0  0  0
 17 32  1  0  0  0  0
M  END
>  <InChIKey>
InChI=1S/C13H14Cl2O3/c1-12(2,11(16)17)18-9-5-3-8(4-6-9)10-7-13(10,14)15/h3-6,10H,7H2,1-2H3,(H,16,17)

>  <CASRN>
52214-84-3

> <Outcome>
0

>  <Index>
2011

>  <StandardizerResult>
Dearomatize (ID: Dearomatize)
Clear Stereo (ID: ClearStereo)
Wedge Clean (ID: WedgeClean)
Mesomerize (ID: Mesomerize)
Tautomerize (ID: Tautomerize)
Aromatize (ID: Aromatize)
Add Explicit Hydrogens (ID: AddExplicitH)
Neutralize (ID: Neutralize)
Clean 2D (ID: Clean2D)

> <knn Distance>
3.46410155296326

> <CpId>
2011

$$$$
2027
  Mrv1532301301811342D          

 29 28  0  0  0  0            999 V2000
    2.9515    2.5461    0.0000 O   0  0  0  0  0  0  0  0  0  0  0  0
    3.6660    2.1336    0.0000 C   0  0  0  0  0  0  0  0  0  0  0  0
    4.3805    2.5461    0.0000 C   0  0  0  0  0  0  0  0  0  0  0  0
    4.3805    3.3711    0.0000 O   0  0  0  0  0  0  0  0  0  0  0  0
    5.0950    2.1336    0.0000 C   0  0  0  0  0  0  0  0  0  0  0  0
    5.0950    1.3086    0.0000 O   0  0  0  0  0  0  0  0  0  0  0  0
    5.8094    2.5461    0.0000 C   0  0  0  0  0  0  0  0  0  0  0  0
    5.8094    3.3711    0.0000 O   0  0  0  0  0  0  0  0  0  0  0  0
    6.5239    2.1336    0.0000 C   0  0  0  0  0  0  0  0  0  0  0  0
    6.5239    1.3086    0.0000 O   0  0  0  0  0  0  0  0  0  0  0  0
    7.2384    2.5461    0.0000 C   0  0  0  0  0  0  0  0  0  0  0  0
    7.2384    3.3711    0.0000 O   0  0  0  0  0  0  0  0  0  0  0  0
    7.9528    2.1336    0.0000 C   0  0  0  0  0  0  0  0  0  0  0  0
    8.6673    2.5461    0.0000 O   0  0  0  0  0  0  0  0  0  0  0  0
    7.9528    1.3086    0.0000 O   0  0  0  0  0  0  0  0  0  0  0  0
    2.9515    3.3711    0.0000 H   0  0  0  0  0  0  0  0  0  0  0  0
    3.2958    1.3963    0.0000 H   0  0  0  0  0  0  0  0  0  0  0  0
    4.0363    1.3963    0.0000 H   0  0  0  0  0  0  0  0  0  0  0  0
    3.6660    2.9586    0.0000 H   0  0  0  0  0  0  0  0  0  0  0  0
    4.7930    4.0856    0.0000 H   0  0  0  0  0  0  0  0  0  0  0  0
    4.3805    1.7211    0.0000 H   0  0  0  0  0  0  0  0  0  0  0  0
    5.5075    0.5941    0.0000 H   0  0  0  0  0  0  0  0  0  0  0  0
    5.0950    2.9586    0.0000 H   0  0  0  0  0  0  0  0  0  0  0  0
    6.2219    4.0856    0.0000 H   0  0  0  0  0  0  0  0  0  0  0  0
    5.8094    1.7211    0.0000 H   0  0  0  0  0  0  0  0  0  0  0  0
    6.9364    0.5941    0.0000 H   0  0  0  0  0  0  0  0  0  0  0  0
    6.5239    2.9586    0.0000 H   0  0  0  0  0  0  0  0  0  0  0  0
    7.6509    4.0856    0.0000 H   0  0  0  0  0  0  0  0  0  0  0  0
    9.3818    2.1336    0.0000 H   0  0  0  0  0  0  0  0  0  0  0  0
  1  2  1  0  0  0  0
  2  3  1  0  0  0  0
  3  4  1  0  0  0  0
  3  5  1  0  0  0  0
  5  6  1  0  0  0  0
  5  7  1  0  0  0  0
  7  8  1  0  0  0  0
  7  9  1  0  0  0  0
  9 10  1  0  0  0  0
  9 11  1  0  0  0  0
 11 12  1  0  0  0  0
 11 13  1  0  0  0  0
 13 14  1  0  0  0  0
 13 15  2  0  0  0  0
  1 16  1  0  0  0  0
  2 17  1  0  0  0  0
  2 18  1  0  0  0  0
  3 19  1  0  0  0  0
  4 20  1  0  0  0  0
  5 21  1  0  0  0  0
  6 22  1  0  0  0  0
  7 23  1  0  0  0  0
  8 24  1  0  0  0  0
  9 25  1  0  0  0  0
 10 26  1  0  0  0  0
 11 27  1  0  0  0  0
 12 28  1  0  0  0  0
 14 29  1  0  0  0  0
M  END
>  <InChIKey>
InChI=1S/C7H14O8/c8-1-2(9)3(10)4(11)5(12)6(13)7(14)15/h2-6,8-13H,1H2,(H,14,15)

>  <CASRN>
23351-51-1

> <Outcome>
0

>  <Index>
2027

>  <StandardizerResult>
Clear Stereo (ID: ClearStereo)
Wedge Clean (ID: WedgeClean)
Mesomerize (ID: Mesomerize)
Tautomerize (ID: Tautomerize)
Add Explicit Hydrogens (ID: AddExplicitH)
Neutralize (ID: Neutralize)
Clean 2D (ID: Clean2D)

> <knn Distance>
3.46410155296326

> <CpId>
2027

$$$$
2028
  Mrv1532301301811342D          

 23 23  0  0  0  0            999 V2000
   -0.0380    3.2940    0.0000 C   0  0  0  0  0  0  0  0  0  0  0  0
   -0.0380    2.4690    0.0000 C   0  0  0  0  0  0  0  0  0  0  0  0
   -0.7525    2.0565    0.0000 N   0  0  0  0  0  0  0  0  0  0  0  0
    0.6765    2.0565    0.0000 C   0  0  0  0  0  0  0  0  0  0  0  0
    0.6765    1.2315    0.0000 C   0  0  0  0  0  0  0  0  0  0  0  0
    1.3909    0.8190    0.0000 C   0  0  0  0  0  0  0  0  0  0  0  0
    1.3909   -0.0060    0.0000 C   0  0  0  0  0  0  0  0  0  0  0  0
    0.6765   -0.4185    0.0000 C   0  0  0  0  0  0  0  0  0  0  0  0
   -0.0380   -0.0060    0.0000 C   0  0  0  0  0  0  0  0  0  0  0  0
   -0.0380    0.8190    0.0000 C   0  0  0  0  0  0  0  0  0  0  0  0
    0.7870    3.2940    0.0000 H   0  0  0  0  0  0  0  0  0  0  0  0
   -0.0380    4.1190    0.0000 H   0  0  0  0  0  0  0  0  0  0  0  0
   -0.8630    3.2940    0.0000 H   0  0  0  0  0  0  0  0  0  0  0  0
   -0.7525    2.8815    0.0000 H   0  0  0  0  0  0  0  0  0  0  0  0
   -1.4897    1.6862    0.0000 H   0  0  0  0  0  0  0  0  0  0  0  0
   -0.7045    1.2329    0.0000 H   0  0  0  0  0  0  0  0  0  0  0  0
    1.5001    2.1044    0.0000 H   0  0  0  0  0  0  0  0  0  0  0  0
    1.1298    2.7458    0.0000 H   0  0  0  0  0  0  0  0  0  0  0  0
    2.1054    1.2315    0.0000 H   0  0  0  0  0  0  0  0  0  0  0  0
    2.1054   -0.4185    0.0000 H   0  0  0  0  0  0  0  0  0  0  0  0
    0.6765   -1.2435    0.0000 H   0  0  0  0  0  0  0  0  0  0  0  0
   -0.7525   -0.4185    0.0000 H   0  0  0  0  0  0  0  0  0  0  0  0
   -0.0248    1.6439    0.0000 H   0  0  0  0  0  0  0  0  0  0  0  0
  1  2  1  0  0  0  0
  2  3  1  0  0  0  0
  2  4  1  0  0  0  0
  4  5  1  0  0  0  0
  5  6  4  0  0  0  0
  6  7  4  0  0  0  0
  7  8  4  0  0  0  0
  8  9  4  0  0  0  0
  9 10  4  0  0  0  0
  5 10  4  0  0  0  0
  1 11  1  0  0  0  0
  1 12  1  0  0  0  0
  1 13  1  0  0  0  0
  2 14  1  0  0  0  0
  3 15  1  0  0  0  0
  3 16  1  0  0  0  0
  4 17  1  0  0  0  0
  4 18  1  0  0  0  0
  6 19  1  0  0  0  0
  7 20  1  0  0  0  0
  8 21  1  0  0  0  0
  9 22  1  0  0  0  0
 10 23  1  0  0  0  0
M  END
>  <InChIKey>
InChI=1S/C9H13N/c1-8(10)7-9-5-3-2-4-6-9/h2-6,8H,7,10H2,1H3

>  <CASRN>
51-64-9 300-62-9

> <Outcome>
0

>  <Index>
2028

>  <StandardizerResult>
Dearomatize (ID: Dearomatize)
Clear Stereo (ID: ClearStereo)
Wedge Clean (ID: WedgeClean)
Mesomerize (ID: Mesomerize)
Tautomerize (ID: Tautomerize)
Aromatize (ID: Aromatize)
Add Explicit Hydrogens (ID: AddExplicitH)
Neutralize (ID: Neutralize)
Clean 2D (ID: Clean2D)

> <knn Distance>
3.46410155296326

> <CpId>
2028

$$$$
2132
  Mrv1532301301811342D          

 59 64  0  0  0  0            999 V2000
    4.9076   -3.7346    0.0000 C   0  0  0  0  0  0  0  0  0  0  0  0
    4.9076   -2.9096    0.0000 O   0  0  0  0  0  0  0  0  0  0  0  0
    4.1931   -2.4971    0.0000 C   0  0  0  0  0  0  0  0  0  0  0  0
    3.4787   -2.9096    0.0000 C   0  0  0  0  0  0  0  0  0  0  0  0
    2.7642   -2.4971    0.0000 C   0  0  0  0  0  0  0  0  0  0  0  0
    2.7642   -1.6721    0.0000 C   0  0  0  0  0  0  0  0  0  0  0  0
    3.4787   -1.2596    0.0000 C   0  0  0  0  0  0  0  0  0  0  0  0
    4.1931   -1.6721    0.0000 C   0  0  0  0  0  0  0  0  0  0  0  0
    4.9076   -1.2596    0.0000 C   0  0  0  0  0  0  0  0  0  0  0  0
    4.2163   -0.8096    0.0000 C   0  0  0  0  0  0  0  0  0  0  0  0
    5.1254   -0.8037    0.0000 C   0  0  0  0  0  0  0  0  0  0  0  0
    5.1695   -1.6275    0.0000 C   0  0  0  0  0  0  0  0  0  0  0  0
    5.8609   -2.0777    0.0000 C   0  0  0  0  0  0  0  0  0  0  0  0
    6.5082   -1.7041    0.0000 C   0  0  0  0  0  0  0  0  0  0  0  0
    6.4641   -0.8802    0.0000 C   0  0  0  0  0  0  0  0  0  0  0  0
    5.7727   -0.4300    0.0000 C   0  0  0  0  0  0  0  0  0  0  0  0
    5.5549   -0.8860    0.0000 C   0  0  0  0  0  0  0  0  0  0  0  0
    4.9517   -2.0835    0.0000 C   0  0  0  0  0  0  0  0  0  0  0  0
    2.0497   -1.2596    0.0000 C   0  0  0  0  0  0  0  0  0  0  0  0
    1.3352   -1.6721    0.0000 C   0  0  0  0  0  0  0  0  0  0  0  0
    0.6208   -1.2596    0.0000 C   0  0  0  0  0  0  0  0  0  0  0  0
    0.6208   -0.4346    0.0000 C   0  0  0  0  0  0  0  0  0  0  0  0
   -0.0937   -0.0221    0.0000 C   0  0  0  0  0  0  0  0  0  0  0  0
   -0.0937    0.8029    0.0000 C   0  0  0  0  0  0  0  0  0  0  0  0
    0.6208    1.2154    0.0000 C   0  0  0  0  0  0  0  0  0  0  0  0
    1.3352    0.8029    0.0000 C   0  0  0  0  0  0  0  0  0  0  0  0
    1.3352   -0.0221    0.0000 C   0  0  0  0  0  0  0  0  0  0  0  0
    2.0497   -0.4346    0.0000 C   0  0  0  0  0  0  0  0  0  0  0  0
   -0.8082    1.2154    0.0000 C   0  0  0  0  0  0  0  0  0  0  0  0
   -1.5226    0.8029    0.0000 O   0  0  0  0  0  0  0  0  0  0  0  0
   -0.8082    2.0404    0.0000 O   0  0  0  0  0  0  0  0  0  0  0  0
    4.0826   -3.7346    0.0000 H   0  0  0  0  0  0  0  0  0  0  0  0
    4.9076   -4.5596    0.0000 H   0  0  0  0  0  0  0  0  0  0  0  0
    5.7326   -3.7346    0.0000 H   0  0  0  0  0  0  0  0  0  0  0  0
    3.4787   -3.7346    0.0000 H   0  0  0  0  0  0  0  0  0  0  0  0
    2.0497   -2.9096    0.0000 H   0  0  0  0  0  0  0  0  0  0  0  0
    3.0575   -0.5502    0.0000 H   0  0  0  0  0  0  0  0  0  0  0  0
    4.3249    0.0082    0.0000 H   0  0  0  0  0  0  0  0  0  0  0  0
    3.6934   -0.1714    0.0000 H   0  0  0  0  0  0  0  0  0  0  0  0
    4.9093   -0.0075    0.0000 H   0  0  0  0  0  0  0  0  0  0  0  0
    5.9943   -1.6448    0.0000 H   0  0  0  0  0  0  0  0  0  0  0  0
    5.8791   -1.2067    0.0000 H   0  0  0  0  0  0  0  0  0  0  0  0
    6.0769   -2.8739    0.0000 H   0  0  0  0  0  0  0  0  0  0  0  0
    6.9757   -2.3838    0.0000 H   0  0  0  0  0  0  0  0  0  0  0  0
    7.3329   -1.7251    0.0000 H   0  0  0  0  0  0  0  0  0  0  0  0
    7.1785   -0.4677    0.0000 H   0  0  0  0  0  0  0  0  0  0  0  0
    6.4079    0.0964    0.0000 H   0  0  0  0  0  0  0  0  0  0  0  0
    5.8988    0.3853    0.0000 H   0  0  0  0  0  0  0  0  0  0  0  0
    6.3189   -1.1972    0.0000 H   0  0  0  0  0  0  0  0  0  0  0  0
    5.1828   -0.1497    0.0000 H   0  0  0  0  0  0  0  0  0  0  0  0
    5.3401   -2.8114    0.0000 H   0  0  0  0  0  0  0  0  0  0  0  0
    5.6605   -2.5057    0.0000 H   0  0  0  0  0  0  0  0  0  0  0  0
    1.3352   -2.4971    0.0000 H   0  0  0  0  0  0  0  0  0  0  0  0
   -0.0937   -1.6721    0.0000 H   0  0  0  0  0  0  0  0  0  0  0  0
   -0.8082   -0.4346    0.0000 H   0  0  0  0  0  0  0  0  0  0  0  0
    0.6208    2.0404    0.0000 H   0  0  0  0  0  0  0  0  0  0  0  0
    2.0497    1.2154    0.0000 H   0  0  0  0  0  0  0  0  0  0  0  0
    2.7642   -0.0221    0.0000 H   0  0  0  0  0  0  0  0  0  0  0  0
   -2.2371    1.2154    0.0000 H   0  0  0  0  0  0  0  0  0  0  0  0
  1  2  1  0  0  0  0
  2  3  1  0  0  0  0
  3  4  4  0  0  0  0
  4  5  4  0  0  0  0
  5  6  4  0  0  0  0
  6  7  4  0  0  0  0
  7  8  4  0  0  0  0
  3  8  4  0  0  0  0
  8  9  1  0  0  0  0
  9 10  1  0  0  0  0
 10 11  1  0  0  0  0
 11 12  1  0  0  0  0
 12 13  1  0  0  0  0
 13 14  1  0  0  0  0
 14 15  1  0  0  0  0
 15 16  1  0  0  0  0
 11 16  1  0  0  0  0
 15 17  1  0  0  0  0
  9 17  1  0  0  0  0
 13 18  1  0  0  0  0
  9 18  1  0  0  0  0
  6 19  1  0  0  0  0
 19 20  4  0  0  0  0
 20 21  4  0  0  0  0
 21 22  4  0  0  0  0
 22 23  4  0  0  0  0
 23 24  4  0  0  0  0
 24 25  4  0  0  0  0
 25 26  4  0  0  0  0
 26 27  4  0  0  0  0
 22 27  4  0  0  0  0
 27 28  4  0  0  0  0
 19 28  4  0  0  0  0
 24 29  1  0  0  0  0
 29 30  1  0  0  0  0
 29 31  2  0  0  0  0
  1 32  1  0  0  0  0
  1 33  1  0  0  0  0
  1 34  1  0  0  0  0
  4 35  1  0  0  0  0
  5 36  1  0  0  0  0
  7 37  1  0  0  0  0
 10 38  1  0  0  0  0
 10 39  1  0  0  0  0
 11 40  1  0  0  0  0
 12 41  1  0  0  0  0
 12 42  1  0  0  0  0
 13 43  1  0  0  0  0
 14 44  1  0  0  0  0
 14 45  1  0  0  0  0
 15 46  1  0  0  0  0
 16 47  1  0  0  0  0
 16 48  1  0  0  0  0
 17 49  1  0  0  0  0
 17 50  1  0  0  0  0
 18 51  1  0  0  0  0
 18 52  1  0  0  0  0
 20 53  1  0  0  0  0
 21 54  1  0  0  0  0
 23 55  1  0  0  0  0
 25 56  1  0  0  0  0
 26 57  1  0  0  0  0
 28 58  1  0  0  0  0
 30 59  1  0  0  0  0
M  END
>  <InChIKey>
InChI=1S/C28H28O3/c1-31-26-7-6-23(21-2-3-22-12-24(27(29)30)5-4-20(22)11-21)13-25(26)28-14-17-8-18(15-28)10-19(9-17)16-28/h2-7,11-13,17-19H,8-10,14-16H2,1H3,(H,29,30)

>  <CASRN>
106685-40-9

> <Outcome>
0

>  <Index>
2132

>  <StandardizerResult>
Dearomatize (ID: Dearomatize)
Clear Stereo (ID: ClearStereo)
Wedge Clean (ID: WedgeClean)
Mesomerize (ID: Mesomerize)
Tautomerize (ID: Tautomerize)
Aromatize (ID: Aromatize)
Add Explicit Hydrogens (ID: AddExplicitH)
Neutralize (ID: Neutralize)
Clean 2D (ID: Clean2D)

> <knn Distance>
3.46410155296326

> <CpId>
2132

$$$$
2272
  Mrv1532301301811342D          

 27 29  0  0  0  0            999 V2000
    0.8975   -2.0925    0.0000 O   0  0  0  0  0  0  0  0  0  0  0  0
    1.1524   -1.3079    0.0000 C   0  0  0  0  0  0  0  0  0  0  0  0
    0.6675   -0.6405    0.0000 C   0  0  0  0  0  0  0  0  0  0  0  0
    1.1524    0.0270    0.0000 C   0  0  0  0  0  0  0  0  0  0  0  0
    0.8975    0.8116    0.0000 O   0  0  0  0  0  0  0  0  0  0  0  0
    1.9370   -0.2280    0.0000 C   0  0  0  0  0  0  0  0  0  0  0  0
    2.6515    0.1845    0.0000 C   0  0  0  0  0  0  0  0  0  0  0  0
    3.3660   -0.2280    0.0000 C   0  0  0  0  0  0  0  0  0  0  0  0
    3.3660   -1.0530    0.0000 C   0  0  0  0  0  0  0  0  0  0  0  0
    2.6515   -1.4655    0.0000 C   0  0  0  0  0  0  0  0  0  0  0  0
    1.9370   -1.0530    0.0000 C   0  0  0  0  0  0  0  0  0  0  0  0
   -0.1575   -0.6405    0.0000 C   0  0  0  0  0  0  0  0  0  0  0  0
   -0.5700   -1.3549    0.0000 C   0  0  0  0  0  0  0  0  0  0  0  0
   -1.3950   -1.3549    0.0000 C   0  0  0  0  0  0  0  0  0  0  0  0
   -1.8075   -0.6405    0.0000 C   0  0  0  0  0  0  0  0  0  0  0  0
   -1.3950    0.0740    0.0000 C   0  0  0  0  0  0  0  0  0  0  0  0
   -0.5700    0.0740    0.0000 C   0  0  0  0  0  0  0  0  0  0  0  0
    0.2929   -1.3755    0.0000 H   0  0  0  0  0  0  0  0  0  0  0  0
    2.6515    1.0095    0.0000 H   0  0  0  0  0  0  0  0  0  0  0  0
    4.0804    0.1845    0.0000 H   0  0  0  0  0  0  0  0  0  0  0  0
    4.0804   -1.4655    0.0000 H   0  0  0  0  0  0  0  0  0  0  0  0
    2.6515   -2.2905    0.0000 H   0  0  0  0  0  0  0  0  0  0  0  0
   -0.5799   -2.1799    0.0000 H   0  0  0  0  0  0  0  0  0  0  0  0
   -1.8075   -2.0694    0.0000 H   0  0  0  0  0  0  0  0  0  0  0  0
   -2.6325   -0.6405    0.0000 H   0  0  0  0  0  0  0  0  0  0  0  0
   -1.8075    0.7885    0.0000 H   0  0  0  0  0  0  0  0  0  0  0  0
   -0.1575    0.7885    0.0000 H   0  0  0  0  0  0  0  0  0  0  0  0
  1  2  2  0  0  0  0
  2  3  1  0  0  0  0
  3  4  1  0  0  0  0
  4  5  2  0  0  0  0
  4  6  1  0  0  0  0
  6  7  4  0  0  0  0
  7  8  4  0  0  0  0
  8  9  4  0  0  0  0
  9 10  4  0  0  0  0
 10 11  4  0  0  0  0
  2 11  1  0  0  0  0
  6 11  4  0  0  0  0
  3 12  1  0  0  0  0
 12 13  4  0  0  0  0
 13 14  4  0  0  0  0
 14 15  4  0  0  0  0
 15 16  4  0  0  0  0
 16 17  4  0  0  0  0
 12 17  4  0  0  0  0
  3 18  1  0  0  0  0
  7 19  1  0  0  0  0
  8 20  1  0  0  0  0
  9 21  1  0  0  0  0
 10 22  1  0  0  0  0
 13 23  1  0  0  0  0
 14 24  1  0  0  0  0
 15 25  1  0  0  0  0
 16 26  1  0  0  0  0
 17 27  1  0  0  0  0
M  END
>  <InChIKey>
InChI=1S/C15H10O2/c16-14-11-8-4-5-9-12(11)15(17)13(14)10-6-2-1-3-7-10/h1-9,13H

>  <CASRN>
83-12-5

> <Outcome>
0

>  <Index>
2272

>  <StandardizerResult>
Dearomatize (ID: Dearomatize)
Clear Stereo (ID: ClearStereo)
Wedge Clean (ID: WedgeClean)
Mesomerize (ID: Mesomerize)
Tautomerize (ID: Tautomerize)
Aromatize (ID: Aromatize)
Add Explicit Hydrogens (ID: AddExplicitH)
Neutralize (ID: Neutralize)
Clean 2D (ID: Clean2D)

> <knn Distance>
3.46410155296326

> <CpId>
2272

$$$$
2299
  Mrv1532301301811342D          

 55 55  0  0  0  0            999 V2000
   -2.3445   -2.7175    0.0000 C   0  0  0  0  0  0  0  0  0  0  0  0
   -1.5599   -2.4625    0.0000 C   0  0  0  0  0  0  0  0  0  0  0  0
   -1.3883   -1.6556    0.0000 C   0  0  0  0  0  0  0  0  0  0  0  0
   -0.6037   -1.4006    0.0000 C   0  0  0  0  0  0  0  0  0  0  0  0
   -0.4322   -0.5937    0.0000 C   0  0  0  0  0  0  0  0  0  0  0  0
    0.3524   -0.3387    0.0000 C   0  0  0  0  0  0  0  0  0  0  0  0
    0.5240    0.4682    0.0000 C   0  0  0  0  0  0  0  0  0  0  0  0
   -0.0281    1.0813    0.0000 C   0  0  0  0  0  0  0  0  0  0  0  0
    0.3844    1.7958    0.0000 C   0  0  0  0  0  0  0  0  0  0  0  0
    1.1914    1.6243    0.0000 C   0  0  0  0  0  0  0  0  0  0  0  0
    1.8045    2.1763    0.0000 O   0  0  0  0  0  0  0  0  0  0  0  0
    1.2776    0.8038    0.0000 C   0  0  0  0  0  0  0  0  0  0  0  0
    1.9921    0.3913    0.0000 C   0  0  0  0  0  0  0  0  0  0  0  0
    2.7066    0.8038    0.0000 C   0  0  0  0  0  0  0  0  0  0  0  0
    3.4211    0.3913    0.0000 C   0  0  0  0  0  0  0  0  0  0  0  0
    4.1355    0.8038    0.0000 C   0  0  0  0  0  0  0  0  0  0  0  0
    4.8500    0.3913    0.0000 C   0  0  0  0  0  0  0  0  0  0  0  0
    5.5645    0.8038    0.0000 C   0  0  0  0  0  0  0  0  0  0  0  0
    6.2789    0.3913    0.0000 C   0  0  0  0  0  0  0  0  0  0  0  0
    6.9934    0.8038    0.0000 O   0  0  0  0  0  0  0  0  0  0  0  0
    6.2789   -0.4337    0.0000 O   0  0  0  0  0  0  0  0  0  0  0  0
   -2.5994   -1.9329    0.0000 H   0  0  0  0  0  0  0  0  0  0  0  0
   -3.1291   -2.9724    0.0000 H   0  0  0  0  0  0  0  0  0  0  0  0
   -2.0895   -3.5021    0.0000 H   0  0  0  0  0  0  0  0  0  0  0  0
   -1.2597   -3.2310    0.0000 H   0  0  0  0  0  0  0  0  0  0  0  0
   -0.7642   -2.6807    0.0000 H   0  0  0  0  0  0  0  0  0  0  0  0
   -1.6885   -0.8871    0.0000 H   0  0  0  0  0  0  0  0  0  0  0  0
   -2.1840   -1.4374    0.0000 H   0  0  0  0  0  0  0  0  0  0  0  0
   -0.3036   -2.1691    0.0000 H   0  0  0  0  0  0  0  0  0  0  0  0
    0.1919   -1.6188    0.0000 H   0  0  0  0  0  0  0  0  0  0  0  0
   -0.7323    0.1748    0.0000 H   0  0  0  0  0  0  0  0  0  0  0  0
   -1.2278   -0.3755    0.0000 H   0  0  0  0  0  0  0  0  0  0  0  0
    0.6526   -1.1072    0.0000 H   0  0  0  0  0  0  0  0  0  0  0  0
    1.1481   -0.5569    0.0000 H   0  0  0  0  0  0  0  0  0  0  0  0
    1.1651   -0.0509    0.0000 H   0  0  0  0  0  0  0  0  0  0  0  0
   -0.7930    1.3904    0.0000 H   0  0  0  0  0  0  0  0  0  0  0  0
   -0.7120    0.6200    0.0000 H   0  0  0  0  0  0  0  0  0  0  0  0
    0.4420    2.6188    0.0000 H   0  0  0  0  0  0  0  0  0  0  0  0
   -0.2657    2.3037    0.0000 H   0  0  0  0  0  0  0  0  0  0  0  0
    1.9616    1.3286    0.0000 H   0  0  0  0  0  0  0  0  0  0  0  0
    2.0697    2.9575    0.0000 H   0  0  0  0  0  0  0  0  0  0  0  0
    0.5632    1.2163    0.0000 H   0  0  0  0  0  0  0  0  0  0  0  0
    2.1192   -0.4238    0.0000 H   0  0  0  0  0  0  0  0  0  0  0  0
    2.6173   -0.1469    0.0000 H   0  0  0  0  0  0  0  0  0  0  0  0
    3.4331    1.1947    0.0000 H   0  0  0  0  0  0  0  0  0  0  0  0
    2.7561    1.6273    0.0000 H   0  0  0  0  0  0  0  0  0  0  0  0
    3.4576   -0.4329    0.0000 H   0  0  0  0  0  0  0  0  0  0  0  0
    4.1445   -0.0053    0.0000 H   0  0  0  0  0  0  0  0  0  0  0  0
    4.7642    1.3380    0.0000 H   0  0  0  0  0  0  0  0  0  0  0  0
    4.2709    1.6176    0.0000 H   0  0  0  0  0  0  0  0  0  0  0  0
    4.9875   -0.4221    0.0000 H   0  0  0  0  0  0  0  0  0  0  0  0
    5.4796   -0.1418    0.0000 H   0  0  0  0  0  0  0  0  0  0  0  0
    6.2877    1.2007    0.0000 H   0  0  0  0  0  0  0  0  0  0  0  0
    5.6002    1.6280    0.0000 H   0  0  0  0  0  0  0  0  0  0  0  0
    7.8184    0.8084    0.0000 H   0  0  0  0  0  0  0  0  0  0  0  0
  1  2  1  0  0  0  0
  2  3  1  0  0  0  0
  3  4  1  0  0  0  0
  4  5  1  0  0  0  0
  5  6  1  0  0  0  0
  6  7  1  0  0  0  0
  7  8  1  0  0  0  0
  8  9  1  0  0  0  0
  9 10  1  0  0  0  0
 10 11  1  0  0  0  0
 10 12  1  0  0  0  0
  7 12  1  0  0  0  0
 12 13  1  0  0  0  0
 13 14  1  0  0  0  0
 14 15  1  0  0  0  0
 15 16  1  0  0  0  0
 16 17  1  0  0  0  0
 17 18  1  0  0  0  0
 18 19  1  0  0  0  0
 19 20  1  0  0  0  0
 19 21  2  0  0  0  0
  1 22  1  0  0  0  0
  1 23  1  0  0  0  0
  1 24  1  0  0  0  0
  2 25  1  0  0  0  0
  2 26  1  0  0  0  0
  3 27  1  0  0  0  0
  3 28  1  0  0  0  0
  4 29  1  0  0  0  0
  4 30  1  0  0  0  0
  5 31  1  0  0  0  0
  5 32  1  0  0  0  0
  6 33  1  0  0  0  0
  6 34  1  0  0  0  0
  7 35  1  0  0  0  0
  8 36  1  0  0  0  0
  8 37  1  0  0  0  0
  9 38  1  0  0  0  0
  9 39  1  0  0  0  0
 10 40  1  0  0  0  0
 11 41  1  0  0  0  0
 12 42  1  0  0  0  0
 13 43  1  0  0  0  0
 13 44  1  0  0  0  0
 14 45  1  0  0  0  0
 14 46  1  0  0  0  0
 15 47  1  0  0  0  0
 15 48  1  0  0  0  0
 16 49  1  0  0  0  0
 16 50  1  0  0  0  0
 17 51  1  0  0  0  0
 17 52  1  0  0  0  0
 18 53  1  0  0  0  0
 18 54  1  0  0  0  0
 20 55  1  0  0  0  0
M  END
>  <InChIKey>
InChI=1S/C18H34O3/c1-2-3-4-7-10-15-13-14-17(19)16(15)11-8-5-6-9-12-18(20)21/h15-17,19H,2-14H2,1H3,(H,20,21)

>  <CASRN>
56695-65-9

> <Outcome>
0

>  <Index>
2299

>  <StandardizerResult>
Clear Stereo (ID: ClearStereo)
Wedge Clean (ID: WedgeClean)
Mesomerize (ID: Mesomerize)
Tautomerize (ID: Tautomerize)
Add Explicit Hydrogens (ID: AddExplicitH)
Neutralize (ID: Neutralize)
Clean 2D (ID: Clean2D)

> <knn Distance>
3.46410155296326

> <CpId>
2299

$$$$
2450
  Mrv1532301301811342D          

 15 15  0  0  0  0            999 V2000
    0.7145    2.0625    0.0000 N   0  0  0  0  0  0  0  0  0  0  0  0
    0.7145    1.2375    0.0000 C   0  0  0  0  0  0  0  0  0  0  0  0
    1.4289    0.8250    0.0000 C   0  0  0  0  0  0  0  0  0  0  0  0
    1.4289   -0.0000    0.0000 C   0  0  0  0  0  0  0  0  0  0  0  0
    0.7145   -0.4125    0.0000 N   0  0  0  0  0  0  0  0  0  0  0  0
   -0.0000   -0.0000    0.0000 C   0  0  0  0  0  0  0  0  0  0  0  0
   -0.0000    0.8250    0.0000 C   0  0  0  0  0  0  0  0  0  0  0  0
   -0.7145    1.2375    0.0000 N   0  0  0  0  0  0  0  0  0  0  0  0
    1.4289    2.4750    0.0000 H   0  0  0  0  0  0  0  0  0  0  0  0
   -0.0000    2.4750    0.0000 H   0  0  0  0  0  0  0  0  0  0  0  0
    2.1434    1.2375    0.0000 H   0  0  0  0  0  0  0  0  0  0  0  0
    2.1434   -0.4125    0.0000 H   0  0  0  0  0  0  0  0  0  0  0  0
   -0.7145   -0.4125    0.0000 H   0  0  0  0  0  0  0  0  0  0  0  0
   -0.7145    2.0625    0.0000 H   0  0  0  0  0  0  0  0  0  0  0  0
   -1.4289    0.8250    0.0000 H   0  0  0  0  0  0  0  0  0  0  0  0
  1  2  1  0  0  0  0
  2  3  4  0  0  0  0
  3  4  4  0  0  0  0
  4  5  4  0  0  0  0
  5  6  4  0  0  0  0
  6  7  4  0  0  0  0
  2  7  4  0  0  0  0
  7  8  1  0  0  0  0
  1  9  1  0  0  0  0
  1 10  1  0  0  0  0
  3 11  1  0  0  0  0
  4 12  1  0  0  0  0
  6 13  1  0  0  0  0
  8 14  1  0  0  0  0
  8 15  1  0  0  0  0
M  END
>  <InChIKey>
InChI=1S/C5H7N3/c6-4-1-2-8-3-5(4)7/h1-3H,7H2,(H2,6,8)

>  <CASRN>
54-96-6

> <Outcome>
0

>  <Index>
2450

>  <StandardizerResult>
Dearomatize (ID: Dearomatize)
Clear Stereo (ID: ClearStereo)
Wedge Clean (ID: WedgeClean)
Mesomerize (ID: Mesomerize)
Tautomerize (ID: Tautomerize)
Aromatize (ID: Aromatize)
Add Explicit Hydrogens (ID: AddExplicitH)
Neutralize (ID: Neutralize)
Clean 2D (ID: Clean2D)

> <knn Distance>
3.46410155296326

> <CpId>
2450

$$$$
2650
  Mrv1532301301811342D          

 23 22  0  0  0  0            999 V2000
    1.6625    1.8167    0.0000 C   0  0  0  0  0  0  0  0  0  0  0  0
    2.3770    1.4042    0.0000 C   0  0  0  0  0  0  0  0  0  0  0  0
    3.0915    1.8167    0.0000 C   0  0  0  0  0  0  0  0  0  0  0  0
    3.0915    2.6417    0.0000 O   0  0  0  0  0  0  0  0  0  0  0  0
    3.8060    1.4042    0.0000 O   0  0  0  0  0  0  0  0  0  0  0  0
    4.5204    1.8167    0.0000 C   0  0  0  0  0  0  0  0  0  0  0  0
    4.5204    2.6417    0.0000 O   0  0  0  0  0  0  0  0  0  0  0  0
    5.2349    1.4042    0.0000 C   0  0  0  0  0  0  0  0  0  0  0  0
    5.9494    1.8167    0.0000 C   0  0  0  0  0  0  0  0  0  0  0  0
    2.0750    2.5311    0.0000 H   0  0  0  0  0  0  0  0  0  0  0  0
    0.9481    2.2292    0.0000 H   0  0  0  0  0  0  0  0  0  0  0  0
    1.2500    1.1022    0.0000 H   0  0  0  0  0  0  0  0  0  0  0  0
    2.0067    0.6669    0.0000 H   0  0  0  0  0  0  0  0  0  0  0  0
    2.7473    0.6669    0.0000 H   0  0  0  0  0  0  0  0  0  0  0  0
    2.3770    2.2292    0.0000 H   0  0  0  0  0  0  0  0  0  0  0  0
    3.5040    3.3561    0.0000 H   0  0  0  0  0  0  0  0  0  0  0  0
    3.8060    2.2292    0.0000 H   0  0  0  0  0  0  0  0  0  0  0  0
    4.9329    3.3561    0.0000 H   0  0  0  0  0  0  0  0  0  0  0  0
    4.8646    0.6669    0.0000 H   0  0  0  0  0  0  0  0  0  0  0  0
    5.6052    0.6669    0.0000 H   0  0  0  0  0  0  0  0  0  0  0  0
    6.3619    1.1022    0.0000 H   0  0  0  0  0  0  0  0  0  0  0  0
    6.6638    2.2292    0.0000 H   0  0  0  0  0  0  0  0  0  0  0  0
    5.5369    2.5311    0.0000 H   0  0  0  0  0  0  0  0  0  0  0  0
  1  2  1  0  0  0  0
  2  3  1  0  0  0  0
  3  4  1  0  0  0  0
  3  5  1  0  0  0  0
  5  6  1  0  0  0  0
  6  7  1  0  0  0  0
  6  8  1  0  0  0  0
  8  9  1  0  0  0  0
  1 10  1  0  0  0  0
  1 11  1  0  0  0  0
  1 12  1  0  0  0  0
  2 13  1  0  0  0  0
  2 14  1  0  0  0  0
  3 15  1  0  0  0  0
  4 16  1  0  0  0  0
  6 17  1  0  0  0  0
  7 18  1  0  0  0  0
  8 19  1  0  0  0  0
  8 20  1  0  0  0  0
  9 21  1  0  0  0  0
  9 22  1  0  0  0  0
  9 23  1  0  0  0  0
M  END
>  <InChIKey>
InChI=1S/C6H14O3/c1-3-5(7)9-6(8)4-2/h5-8H,3-4H2,1-2H3

>  <CASRN>
25265-71-8

> <Outcome>
0

>  <Index>
2650

>  <StandardizerResult>
Clear Stereo (ID: ClearStereo)
Wedge Clean (ID: WedgeClean)
Mesomerize (ID: Mesomerize)
Tautomerize (ID: Tautomerize)
Add Explicit Hydrogens (ID: AddExplicitH)
Neutralize (ID: Neutralize)
Clean 2D (ID: Clean2D)

> <knn Distance>
3.46410155296326

> <CpId>
2650

$$$$
2685
  Mrv1532301301811342D          

 25 24  0  0  0  0            999 V2000
    0.9801    1.4282    0.0000 O   0  0  0  0  0  0  0  0  0  0  0  0
    1.6945    1.8407    0.0000 C   0  0  0  0  0  0  0  0  0  0  0  0
    2.4090    1.4282    0.0000 C   0  0  0  0  0  0  0  0  0  0  0  0
    2.4090    0.6032    0.0000 O   0  0  0  0  0  0  0  0  0  0  0  0
    3.1235    1.8407    0.0000 C   0  0  0  0  0  0  0  0  0  0  0  0
    3.1235    2.6657    0.0000 O   0  0  0  0  0  0  0  0  0  0  0  0
    3.8379    1.4282    0.0000 C   0  0  0  0  0  0  0  0  0  0  0  0
    3.8379    0.6032    0.0000 O   0  0  0  0  0  0  0  0  0  0  0  0
    4.5524    1.8407    0.0000 C   0  0  0  0  0  0  0  0  0  0  0  0
    4.5524    2.6657    0.0000 O   0  0  0  0  0  0  0  0  0  0  0  0
    5.2669    1.4282    0.0000 C   0  0  0  0  0  0  0  0  0  0  0  0
    5.9814    1.8407    0.0000 O   0  0  0  0  0  0  0  0  0  0  0  0
    5.2669    0.6032    0.0000 O   0  0  0  0  0  0  0  0  0  0  0  0
    0.2656    1.8407    0.0000 H   0  0  0  0  0  0  0  0  0  0  0  0
    2.0648    2.5779    0.0000 H   0  0  0  0  0  0  0  0  0  0  0  0
    1.3243    2.5779    0.0000 H   0  0  0  0  0  0  0  0  0  0  0  0
    1.6945    1.0157    0.0000 H   0  0  0  0  0  0  0  0  0  0  0  0
    2.8215   -0.1113    0.0000 H   0  0  0  0  0  0  0  0  0  0  0  0
    2.4090    2.2532    0.0000 H   0  0  0  0  0  0  0  0  0  0  0  0
    3.5360    3.3802    0.0000 H   0  0  0  0  0  0  0  0  0  0  0  0
    3.1235    1.0157    0.0000 H   0  0  0  0  0  0  0  0  0  0  0  0
    4.2504   -0.1113    0.0000 H   0  0  0  0  0  0  0  0  0  0  0  0
    3.8379    2.2532    0.0000 H   0  0  0  0  0  0  0  0  0  0  0  0
    4.9649    3.3802    0.0000 H   0  0  0  0  0  0  0  0  0  0  0  0
    6.6958    1.4282    0.0000 H   0  0  0  0  0  0  0  0  0  0  0  0
  1  2  1  0  0  0  0
  2  3  1  0  0  0  0
  3  4  1  0  0  0  0
  3  5  1  0  0  0  0
  5  6  1  0  0  0  0
  5  7  1  0  0  0  0
  7  8  1  0  0  0  0
  7  9  1  0  0  0  0
  9 10  1  0  0  0  0
  9 11  1  0  0  0  0
 11 12  1  0  0  0  0
 11 13  2  0  0  0  0
  1 14  1  0  0  0  0
  2 15  1  0  0  0  0
  2 16  1  0  0  0  0
  3 17  1  0  0  0  0
  4 18  1  0  0  0  0
  5 19  1  0  0  0  0
  6 20  1  0  0  0  0
  7 21  1  0  0  0  0
  8 22  1  0  0  0  0
  9 23  1  0  0  0  0
 10 24  1  0  0  0  0
 12 25  1  0  0  0  0
M  END
>  <InChIKey>
InChI=1S/C6H12O7/c7-1-2(8)3(9)4(10)5(11)6(12)13/h2-5,7-11H,1H2,(H,12,13)

>  <CASRN>
133-42-6

> <Outcome>
0

>  <Index>
2685

>  <StandardizerResult>
Clear Stereo (ID: ClearStereo)
Wedge Clean (ID: WedgeClean)
Mesomerize (ID: Mesomerize)
Tautomerize (ID: Tautomerize)
Add Explicit Hydrogens (ID: AddExplicitH)
Neutralize (ID: Neutralize)
Clean 2D (ID: Clean2D)

> <knn Distance>
3.46410155296326

> <CpId>
2685

$$$$
2686
  Mrv1532301301811342D          

 40 41  0  0  0  0            999 V2000
    2.1434   -1.2375    0.0000 C   0  0  0  0  0  0  0  0  0  0  0  0
    1.4289   -1.6500    0.0000 C   0  0  0  0  0  0  0  0  0  0  0  0
    0.7145   -1.2375    0.0000 C   0  0  0  0  0  0  0  0  0  0  0  0
   -0.0000   -1.6500    0.0000 C   0  0  0  0  0  0  0  0  0  0  0  0
   -0.7145   -1.2375    0.0000 C   0  0  0  0  0  0  0  0  0  0  0  0
   -1.4289   -1.6500    0.0000 C   0  0  0  0  0  0  0  0  0  0  0  0
   -0.0000   -2.4750    0.0000 C   0  0  0  0  0  0  0  0  0  0  0  0
    0.7145   -2.8875    0.0000 C   0  0  0  0  0  0  0  0  0  0  0  0
    0.7145   -3.7125    0.0000 C   0  0  0  0  0  0  0  0  0  0  0  0
   -0.0000   -4.1250    0.0000 C   0  0  0  0  0  0  0  0  0  0  0  0
   -0.0000   -4.9500    0.0000 O   0  0  0  0  0  0  0  0  0  0  0  0
   -0.7145   -3.7125    0.0000 C   0  0  0  0  0  0  0  0  0  0  0  0
   -0.7145   -2.8875    0.0000 C   0  0  0  0  0  0  0  0  0  0  0  0
    0.7145   -0.4125    0.0000 C   0  0  0  0  0  0  0  0  0  0  0  0
   -0.0000   -0.0000    0.0000 C   0  0  0  0  0  0  0  0  0  0  0  0
   -0.0000    0.8250    0.0000 C   0  0  0  0  0  0  0  0  0  0  0  0
    0.7145    1.2375    0.0000 C   0  0  0  0  0  0  0  0  0  0  0  0
    0.7145    2.0625    0.0000 O   0  0  0  0  0  0  0  0  0  0  0  0
    1.4289    0.8250    0.0000 C   0  0  0  0  0  0  0  0  0  0  0  0
    1.4289   -0.0000    0.0000 C   0  0  0  0  0  0  0  0  0  0  0  0
    2.5559   -1.9520    0.0000 H   0  0  0  0  0  0  0  0  0  0  0  0
    2.8579   -0.8250    0.0000 H   0  0  0  0  0  0  0  0  0  0  0  0
    1.7309   -0.5230    0.0000 H   0  0  0  0  0  0  0  0  0  0  0  0
    1.0587   -2.3872    0.0000 H   0  0  0  0  0  0  0  0  0  0  0  0
    1.7992   -2.3872    0.0000 H   0  0  0  0  0  0  0  0  0  0  0  0
   -0.3442   -0.5003    0.0000 H   0  0  0  0  0  0  0  0  0  0  0  0
   -1.0847   -0.5003    0.0000 H   0  0  0  0  0  0  0  0  0  0  0  0
   -1.8414   -0.9355    0.0000 H   0  0  0  0  0  0  0  0  0  0  0  0
   -2.1434   -2.0625    0.0000 H   0  0  0  0  0  0  0  0  0  0  0  0
   -1.0164   -2.3645    0.0000 H   0  0  0  0  0  0  0  0  0  0  0  0
    1.5023   -3.1324    0.0000 H   0  0  0  0  0  0  0  0  0  0  0  0
    1.4289   -4.1250    0.0000 H   0  0  0  0  0  0  0  0  0  0  0  0
   -0.7145   -5.3625    0.0000 H   0  0  0  0  0  0  0  0  0  0  0  0
   -1.4289   -4.1250    0.0000 H   0  0  0  0  0  0  0  0  0  0  0  0
   -1.5114   -3.1010    0.0000 H   0  0  0  0  0  0  0  0  0  0  0  0
   -0.7878    0.2449    0.0000 H   0  0  0  0  0  0  0  0  0  0  0  0
   -0.7145    1.2375    0.0000 H   0  0  0  0  0  0  0  0  0  0  0  0
    1.4289    2.4750    0.0000 H   0  0  0  0  0  0  0  0  0  0  0  0
    2.1434    1.2375    0.0000 H   0  0  0  0  0  0  0  0  0  0  0  0
    2.2258    0.2135    0.0000 H   0  0  0  0  0  0  0  0  0  0  0  0
  1  2  1  0  0  0  0
  3  2  1  4  0  0  0
  3  4  2  0  0  0  0
  4  5  1  0  0  0  0
  5  6  1  0  0  0  0
  4  7  1  0  0  0  0
  7  8  4  0  0  0  0
  8  9  4  0  0  0  0
  9 10  4  0  0  0  0
 10 11  1  0  0  0  0
 10 12  4  0  0  0  0
 12 13  4  0  0  0  0
  7 13  4  0  0  0  0
  3 14  1  0  0  0  0
 14 15  4  0  0  0  0
 15 16  4  0  0  0  0
 16 17  4  0  0  0  0
 17 18  1  0  0  0  0
 17 19  4  0  0  0  0
 19 20  4  0  0  0  0
 14 20  4  0  0  0  0
  1 21  1  0  0  0  0
  1 22  1  0  0  0  0
  1 23  1  0  0  0  0
  2 24  1  0  0  0  0
  2 25  1  0  0  0  0
  5 26  1  0  0  0  0
  5 27  1  0  0  0  0
  6 28  1  0  0  0  0
  6 29  1  0  0  0  0
  6 30  1  0  0  0  0
  8 31  1  0  0  0  0
  9 32  1  0  0  0  0
 11 33  1  0  0  0  0
 12 34  1  0  0  0  0
 13 35  1  0  0  0  0
 15 36  1  0  0  0  0
 16 37  1  0  0  0  0
 18 38  1  0  0  0  0
 19 39  1  0  0  0  0
 20 40  1  0  0  0  0
M  END
>  <InChIKey>
InChI=1S/C18H20O2/c1-3-17(13-5-9-15(19)10-6-13)18(4-2)14-7-11-16(20)12-8-14/h5-12,19-20H,3-4H2,1-2H3

>  <CASRN>
56-53-1

> <Outcome>
0

>  <Index>
2686

>  <StandardizerResult>
Dearomatize (ID: Dearomatize)
Clear Stereo (ID: ClearStereo)
Wedge Clean (ID: WedgeClean)
Mesomerize (ID: Mesomerize)
Tautomerize (ID: Tautomerize)
Aromatize (ID: Aromatize)
Add Explicit Hydrogens (ID: AddExplicitH)
Neutralize (ID: Neutralize)
Clean 2D (ID: Clean2D)

> <knn Distance>
3.46410155296326

> <CpId>
2686

$$$$
2772
  Mrv1532301301811342D          

 65 64  0  0  0  0            999 V2000
   -1.6670    3.9808    0.0000 C   0  0  0  0  0  0  0  0  0  0  0  0
   -0.9526    3.5683    0.0000 C   0  0  0  0  0  0  0  0  0  0  0  0
   -0.2381    3.9808    0.0000 C   0  0  0  0  0  0  0  0  0  0  0  0
    0.4764    3.5683    0.0000 C   0  0  0  0  0  0  0  0  0  0  0  0
    1.1908    3.9808    0.0000 C   0  0  0  0  0  0  0  0  0  0  0  0
    1.9053    3.5683    0.0000 C   0  0  0  0  0  0  0  0  0  0  0  0
    2.6198    3.9808    0.0000 C   0  0  0  0  0  0  0  0  0  0  0  0
    3.3343    3.5683    0.0000 C   0  0  0  0  0  0  0  0  0  0  0  0
    4.0487    3.9808    0.0000 C   0  0  0  0  0  0  0  0  0  0  0  0
    4.7632    3.5683    0.0000 C   0  0  0  0  0  0  0  0  0  0  0  0
    5.4777    3.9808    0.0000 C   0  0  0  0  0  0  0  0  0  0  0  0
    6.1921    3.5683    0.0000 C   0  0  0  0  0  0  0  0  0  0  0  0
    6.9066    3.9808    0.0000 C   0  0  0  0  0  0  0  0  0  0  0  0
    7.6211    3.5683    0.0000 C   0  0  0  0  0  0  0  0  0  0  0  0
    8.3356    3.9808    0.0000 C   0  0  0  0  0  0  0  0  0  0  0  0
    9.0500    3.5683    0.0000 C   0  0  0  0  0  0  0  0  0  0  0  0
    9.7645    3.9808    0.0000 C   0  0  0  0  0  0  0  0  0  0  0  0
   10.4790    3.5683    0.0000 C   0  0  0  0  0  0  0  0  0  0  0  0
   10.4790    2.7433    0.0000 O   0  0  0  0  0  0  0  0  0  0  0  0
   11.1934    3.9808    0.0000 O   0  0  0  0  0  0  0  0  0  0  0  0
   11.9079    3.5683    0.0000 C   0  0  0  0  0  0  0  0  0  0  0  0
   12.6224    3.9808    0.0000 C   0  0  0  0  0  0  0  0  0  0  0  0
   12.6224    4.8058    0.0000 O   0  0  0  0  0  0  0  0  0  0  0  0
   13.3369    3.5683    0.0000 C   0  0  0  0  0  0  0  0  0  0  0  0
   14.0513    3.9808    0.0000 O   0  0  0  0  0  0  0  0  0  0  0  0
   -1.2545    4.6953    0.0000 H   0  0  0  0  0  0  0  0  0  0  0  0
   -2.3815    4.3933    0.0000 H   0  0  0  0  0  0  0  0  0  0  0  0
   -2.0795    3.2663    0.0000 H   0  0  0  0  0  0  0  0  0  0  0  0
   -1.3228    2.8310    0.0000 H   0  0  0  0  0  0  0  0  0  0  0  0
   -0.5823    2.8310    0.0000 H   0  0  0  0  0  0  0  0  0  0  0  0
    0.1322    4.7180    0.0000 H   0  0  0  0  0  0  0  0  0  0  0  0
   -0.6084    4.7180    0.0000 H   0  0  0  0  0  0  0  0  0  0  0  0
    0.1061    2.8310    0.0000 H   0  0  0  0  0  0  0  0  0  0  0  0
    0.8466    2.8310    0.0000 H   0  0  0  0  0  0  0  0  0  0  0  0
    1.5611    4.7180    0.0000 H   0  0  0  0  0  0  0  0  0  0  0  0
    0.8206    4.7180    0.0000 H   0  0  0  0  0  0  0  0  0  0  0  0
    1.5351    2.8310    0.0000 H   0  0  0  0  0  0  0  0  0  0  0  0
    2.2756    2.8310    0.0000 H   0  0  0  0  0  0  0  0  0  0  0  0
    2.9900    4.7180    0.0000 H   0  0  0  0  0  0  0  0  0  0  0  0
    2.2495    4.7180    0.0000 H   0  0  0  0  0  0  0  0  0  0  0  0
    2.9640    2.8310    0.0000 H   0  0  0  0  0  0  0  0  0  0  0  0
    3.7045    2.8310    0.0000 H   0  0  0  0  0  0  0  0  0  0  0  0
    4.0487    4.8058    0.0000 H   0  0  0  0  0  0  0  0  0  0  0  0
    4.7632    2.7433    0.0000 H   0  0  0  0  0  0  0  0  0  0  0  0
    5.8479    4.7180    0.0000 H   0  0  0  0  0  0  0  0  0  0  0  0
    5.1074    4.7180    0.0000 H   0  0  0  0  0  0  0  0  0  0  0  0
    5.8219    2.8310    0.0000 H   0  0  0  0  0  0  0  0  0  0  0  0
    6.5624    2.8310    0.0000 H   0  0  0  0  0  0  0  0  0  0  0  0
    7.2769    4.7180    0.0000 H   0  0  0  0  0  0  0  0  0  0  0  0
    6.5364    4.7180    0.0000 H   0  0  0  0  0  0  0  0  0  0  0  0
    7.2508    2.8310    0.0000 H   0  0  0  0  0  0  0  0  0  0  0  0
    7.9913    2.8310    0.0000 H   0  0  0  0  0  0  0  0  0  0  0  0
    8.7058    4.7180    0.0000 H   0  0  0  0  0  0  0  0  0  0  0  0
    7.9653    4.7180    0.0000 H   0  0  0  0  0  0  0  0  0  0  0  0
    8.6798    2.8310    0.0000 H   0  0  0  0  0  0  0  0  0  0  0  0
    9.4203    2.8310    0.0000 H   0  0  0  0  0  0  0  0  0  0  0  0
   10.1348    4.7180    0.0000 H   0  0  0  0  0  0  0  0  0  0  0  0
    9.3942    4.7180    0.0000 H   0  0  0  0  0  0  0  0  0  0  0  0
   11.5377    2.8310    0.0000 H   0  0  0  0  0  0  0  0  0  0  0  0
   12.2782    2.8310    0.0000 H   0  0  0  0  0  0  0  0  0  0  0  0
   11.9079    4.3933    0.0000 H   0  0  0  0  0  0  0  0  0  0  0  0
   13.0349    5.5203    0.0000 H   0  0  0  0  0  0  0  0  0  0  0  0
   12.9666    2.8310    0.0000 H   0  0  0  0  0  0  0  0  0  0  0  0
   13.7071    2.8310    0.0000 H   0  0  0  0  0  0  0  0  0  0  0  0
   14.7658    3.5683    0.0000 H   0  0  0  0  0  0  0  0  0  0  0  0
  1  2  1  0  0  0  0
  2  3  1  0  0  0  0
  3  4  1  0  0  0  0
  4  5  1  0  0  0  0
  5  6  1  0  0  0  0
  6  7  1  0  0  0  0
  7  8  1  0  0  0  0
  9  8  1  4  0  0  0
  9 10  2  0  0  0  0
 10 11  1  0  0  0  0
 11 12  1  0  0  0  0
 12 13  1  0  0  0  0
 13 14  1  0  0  0  0
 14 15  1  0  0  0  0
 15 16  1  0  0  0  0
 16 17  1  0  0  0  0
 17 18  1  0  0  0  0
 18 19  2  0  0  0  0
 18 20  1  0  0  0  0
 20 21  1  0  0  0  0
 21 22  1  0  0  0  0
 22 23  1  0  0  0  0
 22 24  1  0  0  0  0
 24 25  1  0  0  0  0
  1 26  1  0  0  0  0
  1 27  1  0  0  0  0
  1 28  1  0  0  0  0
  2 29  1  0  0  0  0
  2 30  1  0  0  0  0
  3 31  1  0  0  0  0
  3 32  1  0  0  0  0
  4 33  1  0  0  0  0
  4 34  1  0  0  0  0
  5 35  1  0  0  0  0
  5 36  1  0  0  0  0
  6 37  1  0  0  0  0
  6 38  1  0  0  0  0
  7 39  1  0  0  0  0
  7 40  1  0  0  0  0
  8 41  1  0  0  0  0
  8 42  1  0  0  0  0
  9 43  1  0  0  0  0
 10 44  1  0  0  0  0
 11 45  1  0  0  0  0
 11 46  1  0  0  0  0
 12 47  1  0  0  0  0
 12 48  1  0  0  0  0
 13 49  1  0  0  0  0
 13 50  1  0  0  0  0
 14 51  1  0  0  0  0
 14 52  1  0  0  0  0
 15 53  1  0  0  0  0
 15 54  1  0  0  0  0
 16 55  1  0  0  0  0
 16 56  1  0  0  0  0
 17 57  1  0  0  0  0
 17 58  1  0  0  0  0
 21 59  1  0  0  0  0
 21 60  1  0  0  0  0
 22 61  1  0  0  0  0
 23 62  1  0  0  0  0
 24 63  1  0  0  0  0
 24 64  1  0  0  0  0
 25 65  1  0  0  0  0
M  END
>  <InChIKey>
InChI=1S/C21H40O4/c1-2-3-4-5-6-7-8-9-10-11-12-13-14-15-16-17-21(24)25-19-20(23)18-22/h9-10,20,22-23H,2-8,11-19H2,1H3

>  <CASRN>
25496-72-4

> <Outcome>
0

>  <Index>
2772

>  <StandardizerResult>
Clear Stereo (ID: ClearStereo)
Wedge Clean (ID: WedgeClean)
Mesomerize (ID: Mesomerize)
Tautomerize (ID: Tautomerize)
Add Explicit Hydrogens (ID: AddExplicitH)
Neutralize (ID: Neutralize)
Clean 2D (ID: Clean2D)

> <knn Distance>
3.46410155296326

> <CpId>
2772

$$$$
2854
  Mrv1532301301811342D          

 26 26  0  0  0  0            999 V2000
   -0.6567    3.7061    0.0000 C   0  0  0  0  0  0  0  0  0  0  0  0
    0.0578    3.2936    0.0000 C   0  0  0  0  0  0  0  0  0  0  0  0
    0.0578    2.4686    0.0000 C   0  0  0  0  0  0  0  0  0  0  0  0
    0.7722    2.0561    0.0000 C   0  0  0  0  0  0  0  0  0  0  0  0
    1.4867    2.4686    0.0000 O   0  0  0  0  0  0  0  0  0  0  0  0
    0.7722    1.2311    0.0000 C   0  0  0  0  0  0  0  0  0  0  0  0
    1.4867    0.8186    0.0000 C   0  0  0  0  0  0  0  0  0  0  0  0
    1.4867   -0.0064    0.0000 C   0  0  0  0  0  0  0  0  0  0  0  0
    2.2012   -0.4189    0.0000 O   0  0  0  0  0  0  0  0  0  0  0  0
    0.7722   -0.4189    0.0000 C   0  0  0  0  0  0  0  0  0  0  0  0
    0.7722   -1.2439    0.0000 O   0  0  0  0  0  0  0  0  0  0  0  0
    0.0578   -0.0064    0.0000 C   0  0  0  0  0  0  0  0  0  0  0  0
    0.0578    0.8186    0.0000 C   0  0  0  0  0  0  0  0  0  0  0  0
   -0.6567    1.2311    0.0000 O   0  0  0  0  0  0  0  0  0  0  0  0
   -0.2442    4.4205    0.0000 H   0  0  0  0  0  0  0  0  0  0  0  0
   -1.3712    4.1186    0.0000 H   0  0  0  0  0  0  0  0  0  0  0  0
   -1.0692    2.9916    0.0000 H   0  0  0  0  0  0  0  0  0  0  0  0
    0.8814    3.3415    0.0000 H   0  0  0  0  0  0  0  0  0  0  0  0
    0.5111    3.9828    0.0000 H   0  0  0  0  0  0  0  0  0  0  0  0
   -0.7658    2.4206    0.0000 H   0  0  0  0  0  0  0  0  0  0  0  0
   -0.3956    1.7793    0.0000 H   0  0  0  0  0  0  0  0  0  0  0  0
    2.2012    1.2311    0.0000 H   0  0  0  0  0  0  0  0  0  0  0  0
    2.2012   -1.2439    0.0000 H   0  0  0  0  0  0  0  0  0  0  0  0
    0.0578   -1.6564    0.0000 H   0  0  0  0  0  0  0  0  0  0  0  0
   -0.6567   -0.4189    0.0000 H   0  0  0  0  0  0  0  0  0  0  0  0
   -1.4445    0.9862    0.0000 H   0  0  0  0  0  0  0  0  0  0  0  0
  1  2  1  0  0  0  0
  2  3  1  0  0  0  0
  3  4  1  0  0  0  0
  4  5  2  0  0  0  0
  4  6  1  0  0  0  0
  6  7  4  0  0  0  0
  7  8  4  0  0  0  0
  8  9  1  0  0  0  0
  8 10  4  0  0  0  0
 10 11  1  0  0  0  0
 10 12  4  0  0  0  0
 12 13  4  0  0  0  0
  6 13  4  0  0  0  0
 13 14  1  0  0  0  0
  1 15  1  0  0  0  0
  1 16  1  0  0  0  0
  1 17  1  0  0  0  0
  2 18  1  0  0  0  0
  2 19  1  0  0  0  0
  3 20  1  0  0  0  0
  3 21  1  0  0  0  0
  7 22  1  0  0  0  0
  9 23  1  0  0  0  0
 11 24  1  0  0  0  0
 12 25  1  0  0  0  0
 14 26  1  0  0  0  0
M  END
>  <InChIKey>
InChI=1S/C10H12O4/c1-2-3-7(11)6-4-9(13)10(14)5-8(6)12/h4-5,12-14H,2-3H2,1H3

>  <CASRN>
1421-63-2

> <Outcome>
0

>  <Index>
2854

>  <StandardizerResult>
Dearomatize (ID: Dearomatize)
Clear Stereo (ID: ClearStereo)
Wedge Clean (ID: WedgeClean)
Mesomerize (ID: Mesomerize)
Tautomerize (ID: Tautomerize)
Aromatize (ID: Aromatize)
Add Explicit Hydrogens (ID: AddExplicitH)
Neutralize (ID: Neutralize)
Clean 2D (ID: Clean2D)

> <knn Distance>
3.46410155296326

> <CpId>
2854

$$$$
3229
  Mrv1532301301811342D          

 25 25  0  0  0  0            999 V2000
   -0.0102    3.2288    0.0000 C   0  0  0  0  0  0  0  0  0  0  0  0
   -0.0102    2.4038    0.0000 C   0  0  0  0  0  0  0  0  0  0  0  0
   -0.7247    1.9913    0.0000 N   0  0  0  0  0  0  0  0  0  0  0  0
    0.7043    1.9913    0.0000 C   0  0  0  0  0  0  0  0  0  0  0  0
    1.4187    2.4038    0.0000 O   0  0  0  0  0  0  0  0  0  0  0  0
    0.7043    1.1663    0.0000 C   0  0  0  0  0  0  0  0  0  0  0  0
    1.4187    0.7538    0.0000 C   0  0  0  0  0  0  0  0  0  0  0  0
    1.4187   -0.0712    0.0000 C   0  0  0  0  0  0  0  0  0  0  0  0
    0.7043   -0.4837    0.0000 C   0  0  0  0  0  0  0  0  0  0  0  0
   -0.0102   -0.0712    0.0000 C   0  0  0  0  0  0  0  0  0  0  0  0
   -0.7247   -0.4837    0.0000 O   0  0  0  0  0  0  0  0  0  0  0  0
   -0.0102    0.7538    0.0000 C   0  0  0  0  0  0  0  0  0  0  0  0
    0.8148    3.2288    0.0000 H   0  0  0  0  0  0  0  0  0  0  0  0
   -0.0102    4.0538    0.0000 H   0  0  0  0  0  0  0  0  0  0  0  0
   -0.8352    3.2288    0.0000 H   0  0  0  0  0  0  0  0  0  0  0  0
   -0.7247    2.8163    0.0000 H   0  0  0  0  0  0  0  0  0  0  0  0
   -1.4619    1.6211    0.0000 H   0  0  0  0  0  0  0  0  0  0  0  0
   -0.6767    1.1677    0.0000 H   0  0  0  0  0  0  0  0  0  0  0  0
    0.7043    2.8163    0.0000 H   0  0  0  0  0  0  0  0  0  0  0  0
    2.2437    2.4038    0.0000 H   0  0  0  0  0  0  0  0  0  0  0  0
    2.1332    1.1663    0.0000 H   0  0  0  0  0  0  0  0  0  0  0  0
    2.1332   -0.4837    0.0000 H   0  0  0  0  0  0  0  0  0  0  0  0
    0.7043   -1.3087    0.0000 H   0  0  0  0  0  0  0  0  0  0  0  0
   -1.4392   -0.0712    0.0000 H   0  0  0  0  0  0  0  0  0  0  0  0
    0.0030    1.5787    0.0000 H   0  0  0  0  0  0  0  0  0  0  0  0
  1  2  1  0  0  0  0
  2  3  1  0  0  0  0
  2  4  1  0  0  0  0
  4  5  1  0  0  0  0
  4  6  1  0  0  0  0
  6  7  4  0  0  0  0
  7  8  4  0  0  0  0
  8  9  4  0  0  0  0
  9 10  4  0  0  0  0
 10 11  1  0  0  0  0
 10 12  4  0  0  0  0
  6 12  4  0  0  0  0
  1 13  1  0  0  0  0
  1 14  1  0  0  0  0
  1 15  1  0  0  0  0
  2 16  1  0  0  0  0
  3 17  1  0  0  0  0
  3 18  1  0  0  0  0
  4 19  1  0  0  0  0
  5 20  1  0  0  0  0
  7 21  1  0  0  0  0
  8 22  1  0  0  0  0
  9 23  1  0  0  0  0
 11 24  1  0  0  0  0
 12 25  1  0  0  0  0
M  END
>  <InChIKey>
InChI=1S/C9H13NO2/c1-6(10)9(12)7-3-2-4-8(11)5-7/h2-6,9,11-12H,10H2,1H3

>  <CASRN>
54-49-9

> <Outcome>
0

>  <Index>
3229

>  <StandardizerResult>
Dearomatize (ID: Dearomatize)
Clear Stereo (ID: ClearStereo)
Wedge Clean (ID: WedgeClean)
Mesomerize (ID: Mesomerize)
Tautomerize (ID: Tautomerize)
Aromatize (ID: Aromatize)
Add Explicit Hydrogens (ID: AddExplicitH)
Neutralize (ID: Neutralize)
Clean 2D (ID: Clean2D)

> <knn Distance>
3.46410155296326

> <CpId>
3229

$$$$
3244
  Mrv1532301301811342D          

 44 45  0  0  0  0            999 V2000
    0.9153   -0.4148    0.0000 C   0  0  0  0  0  0  0  0  0  0  0  0
    0.9153   -1.2398    0.0000 C   0  0  0  0  0  0  0  0  0  0  0  0
    1.6297   -1.6523    0.0000 C   0  0  0  0  0  0  0  0  0  0  0  0
    1.6297   -2.4773    0.0000 C   0  0  0  0  0  0  0  0  0  0  0  0
    0.9153   -2.8898    0.0000 C   0  0  0  0  0  0  0  0  0  0  0  0
    0.2008   -2.4773    0.0000 C   0  0  0  0  0  0  0  0  0  0  0  0
   -0.0814   -3.2525    0.0000 C   0  0  0  0  0  0  0  0  0  0  0  0
   -0.6117   -2.3340    0.0000 C   0  0  0  0  0  0  0  0  0  0  0  0
    0.2008   -1.6523    0.0000 C   0  0  0  0  0  0  0  0  0  0  0  0
    2.3442   -2.8898    0.0000 O   0  0  0  0  0  0  0  0  0  0  0  0
    2.3442   -3.7148    0.0000 C   0  0  0  0  0  0  0  0  0  0  0  0
    1.6297   -4.1273    0.0000 O   0  0  0  0  0  0  0  0  0  0  0  0
    3.0587   -4.1273    0.0000 C   0  0  0  0  0  0  0  0  0  0  0  0
    3.7732   -3.7148    0.0000 O   0  0  0  0  0  0  0  0  0  0  0  0
    3.0587   -4.9523    0.0000 C   0  0  0  0  0  0  0  0  0  0  0  0
    3.7732   -5.3648    0.0000 C   0  0  0  0  0  0  0  0  0  0  0  0
    3.7732   -6.1898    0.0000 C   0  0  0  0  0  0  0  0  0  0  0  0
    3.0587   -6.6023    0.0000 C   0  0  0  0  0  0  0  0  0  0  0  0
    2.3442   -6.1898    0.0000 C   0  0  0  0  0  0  0  0  0  0  0  0
    2.3442   -5.3648    0.0000 C   0  0  0  0  0  0  0  0  0  0  0  0
    1.7403   -0.4148    0.0000 H   0  0  0  0  0  0  0  0  0  0  0  0
    0.9153    0.4102    0.0000 H   0  0  0  0  0  0  0  0  0  0  0  0
    0.0903   -0.4148    0.0000 H   0  0  0  0  0  0  0  0  0  0  0  0
    0.2008   -0.8273    0.0000 H   0  0  0  0  0  0  0  0  0  0  0  0
    2.4534   -1.6043    0.0000 H   0  0  0  0  0  0  0  0  0  0  0  0
    2.0831   -0.9630    0.0000 H   0  0  0  0  0  0  0  0  0  0  0  0
    1.6297   -3.3023    0.0000 H   0  0  0  0  0  0  0  0  0  0  0  0
    0.2833   -3.4201    0.0000 H   0  0  0  0  0  0  0  0  0  0  0  0
    0.7720   -3.7022    0.0000 H   0  0  0  0  0  0  0  0  0  0  0  0
   -0.6703   -2.6748    0.0000 H   0  0  0  0  0  0  0  0  0  0  0  0
   -0.8510   -3.5496    0.0000 H   0  0  0  0  0  0  0  0  0  0  0  0
   -0.1294   -4.0761    0.0000 H   0  0  0  0  0  0  0  0  0  0  0  0
   -0.1691   -1.6378    0.0000 H   0  0  0  0  0  0  0  0  0  0  0  0
   -1.0862   -1.6592    0.0000 H   0  0  0  0  0  0  0  0  0  0  0  0
   -1.4166   -2.5150    0.0000 H   0  0  0  0  0  0  0  0  0  0  0  0
    0.9153   -2.0648    0.0000 H   0  0  0  0  0  0  0  0  0  0  0  0
   -0.3710   -1.0576    0.0000 H   0  0  0  0  0  0  0  0  0  0  0  0
    3.0587   -3.3023    0.0000 H   0  0  0  0  0  0  0  0  0  0  0  0
    4.5982   -3.7148    0.0000 H   0  0  0  0  0  0  0  0  0  0  0  0
    4.4876   -4.9523    0.0000 H   0  0  0  0  0  0  0  0  0  0  0  0
    4.4876   -6.6023    0.0000 H   0  0  0  0  0  0  0  0  0  0  0  0
    3.0587   -7.4273    0.0000 H   0  0  0  0  0  0  0  0  0  0  0  0
    1.6297   -6.6023    0.0000 H   0  0  0  0  0  0  0  0  0  0  0  0
    1.6297   -4.9523    0.0000 H   0  0  0  0  0  0  0  0  0  0  0  0
  1  2  1  0  0  0  0
  2  3  1  0  0  0  0
  3  4  1  0  0  0  0
  4  5  1  0  0  0  0
  5  6  1  0  0  0  0
  6  7  1  0  0  0  0
  6  8  1  0  0  0  0
  6  9  1  0  0  0  0
  2  9  1  0  0  0  0
  4 10  1  0  0  0  0
 10 11  1  0  0  0  0
 11 12  2  0  0  0  0
 11 13  1  0  0  0  0
 13 14  1  0  0  0  0
 13 15  1  0  0  0  0
 15 16  4  0  0  0  0
 16 17  4  0  0  0  0
 17 18  4  0  0  0  0
 18 19  4  0  0  0  0
 19 20  4  0  0  0  0
 15 20  4  0  0  0  0
  1 21  1  0  0  0  0
  1 22  1  0  0  0  0
  1 23  1  0  0  0  0
  2 24  1  0  0  0  0
  3 25  1  0  0  0  0
  3 26  1  0  0  0  0
  4 27  1  0  0  0  0
  5 28  1  0  0  0  0
  5 29  1  0  0  0  0
  7 30  1  0  0  0  0
  7 31  1  0  0  0  0
  7 32  1  0  0  0  0
  8 33  1  0  0  0  0
  8 34  1  0  0  0  0
  8 35  1  0  0  0  0
  9 36  1  0  0  0  0
  9 37  1  0  0  0  0
 13 38  1  0  0  0  0
 14 39  1  0  0  0  0
 16 40  1  0  0  0  0
 17 41  1  0  0  0  0
 18 42  1  0  0  0  0
 19 43  1  0  0  0  0
 20 44  1  0  0  0  0
M  END
>  <InChIKey>
InChI=1S/C17H24O3/c1-12-9-14(11-17(2,3)10-12)20-16(19)15(18)13-7-5-4-6-8-13/h4-8,12,14-15,18H,9-11H2,1-3H3

>  <CASRN>
456-59-7

> <Outcome>
0

>  <Index>
3244

>  <StandardizerResult>
Dearomatize (ID: Dearomatize)
Clear Stereo (ID: ClearStereo)
Wedge Clean (ID: WedgeClean)
Mesomerize (ID: Mesomerize)
Tautomerize (ID: Tautomerize)
Aromatize (ID: Aromatize)
Add Explicit Hydrogens (ID: AddExplicitH)
Neutralize (ID: Neutralize)
Clean 2D (ID: Clean2D)

> <knn Distance>
3.46410155296326

> <CpId>
3244

$$$$
3311
  Mrv1532301301811342D          

 31 33  0  0  0  0            999 V2000
   -3.0664   -1.3709    0.0000 C   0  0  0  0  0  0  0  0  0  0  0  0
   -2.6539   -0.6564    0.0000 O   0  0  0  0  0  0  0  0  0  0  0  0
   -1.8289   -0.6564    0.0000 C   0  0  0  0  0  0  0  0  0  0  0  0
   -1.4164    0.0581    0.0000 C   0  0  0  0  0  0  0  0  0  0  0  0
   -0.5914    0.0581    0.0000 C   0  0  0  0  0  0  0  0  0  0  0  0
   -0.1789   -0.6564    0.0000 C   0  0  0  0  0  0  0  0  0  0  0  0
   -0.5914   -1.3709    0.0000 C   0  0  0  0  0  0  0  0  0  0  0  0
   -1.4164   -1.3709    0.0000 C   0  0  0  0  0  0  0  0  0  0  0  0
    0.6461   -0.6564    0.0000 C   0  0  0  0  0  0  0  0  0  0  0  0
    1.1310    0.0110    0.0000 C   0  0  0  0  0  0  0  0  0  0  0  0
    0.8761    0.7957    0.0000 O   0  0  0  0  0  0  0  0  0  0  0  0
    1.9156   -0.2439    0.0000 C   0  0  0  0  0  0  0  0  0  0  0  0
    2.6301    0.1686    0.0000 C   0  0  0  0  0  0  0  0  0  0  0  0
    3.3446   -0.2439    0.0000 C   0  0  0  0  0  0  0  0  0  0  0  0
    3.3446   -1.0689    0.0000 C   0  0  0  0  0  0  0  0  0  0  0  0
    2.6301   -1.4814    0.0000 C   0  0  0  0  0  0  0  0  0  0  0  0
    1.9156   -1.0689    0.0000 C   0  0  0  0  0  0  0  0  0  0  0  0
    1.1310   -1.3238    0.0000 C   0  0  0  0  0  0  0  0  0  0  0  0
    0.8761   -2.1085    0.0000 O   0  0  0  0  0  0  0  0  0  0  0  0
   -3.7809   -0.9584    0.0000 H   0  0  0  0  0  0  0  0  0  0  0  0
   -3.4789   -2.0853    0.0000 H   0  0  0  0  0  0  0  0  0  0  0  0
   -2.3519   -1.7834    0.0000 H   0  0  0  0  0  0  0  0  0  0  0  0
   -1.8289    0.7725    0.0000 H   0  0  0  0  0  0  0  0  0  0  0  0
   -0.1789    0.7725    0.0000 H   0  0  0  0  0  0  0  0  0  0  0  0
   -0.1789   -2.0853    0.0000 H   0  0  0  0  0  0  0  0  0  0  0  0
   -1.8289   -2.0853    0.0000 H   0  0  0  0  0  0  0  0  0  0  0  0
    0.2716   -1.3915    0.0000 H   0  0  0  0  0  0  0  0  0  0  0  0
    2.6301    0.9936    0.0000 H   0  0  0  0  0  0  0  0  0  0  0  0
    4.0591    0.1686    0.0000 H   0  0  0  0  0  0  0  0  0  0  0  0
    4.0591   -1.4814    0.0000 H   0  0  0  0  0  0  0  0  0  0  0  0
    2.6301   -2.3064    0.0000 H   0  0  0  0  0  0  0  0  0  0  0  0
  1  2  1  0  0  0  0
  2  3  1  0  0  0  0
  3  4  4  0  0  0  0
  4  5  4  0  0  0  0
  5  6  4  0  0  0  0
  6  7  4  0  0  0  0
  7  8  4  0  0  0  0
  3  8  4  0  0  0  0
  6  9  1  0  0  0  0
  9 10  1  0  0  0  0
 10 11  2  0  0  0  0
 10 12  1  0  0  0  0
 12 13  4  0  0  0  0
 13 14  4  0  0  0  0
 14 15  4  0  0  0  0
 15 16  4  0  0  0  0
 16 17  4  0  0  0  0
 12 17  4  0  0  0  0
 17 18  1  0  0  0  0
  9 18  1  0  0  0  0
 18 19  2  0  0  0  0
  1 20  1  0  0  0  0
  1 21  1  0  0  0  0
  1 22  1  0  0  0  0
  4 23  1  0  0  0  0
  5 24  1  0  0  0  0
  7 25  1  0  0  0  0
  8 26  1  0  0  0  0
  9 27  1  0  0  0  0
 13 28  1  0  0  0  0
 14 29  1  0  0  0  0
 15 30  1  0  0  0  0
 16 31  1  0  0  0  0
M  END
>  <InChIKey>
InChI=1S/C16H12O3/c1-19-11-8-6-10(7-9-11)14-15(17)12-4-2-3-5-13(12)16(14)18/h2-9,14H,1H3

>  <CASRN>
117-37-3

> <Outcome>
0

>  <Index>
3311

>  <StandardizerResult>
Dearomatize (ID: Dearomatize)
Clear Stereo (ID: ClearStereo)
Wedge Clean (ID: WedgeClean)
Mesomerize (ID: Mesomerize)
Tautomerize (ID: Tautomerize)
Aromatize (ID: Aromatize)
Add Explicit Hydrogens (ID: AddExplicitH)
Neutralize (ID: Neutralize)
Clean 2D (ID: Clean2D)

> <knn Distance>
3.46410155296326

> <CpId>
3311

$$$$
3458
  Mrv1532301301811342D          

 18 17  0  0  0  0            999 V2000
    2.5542    1.5336    0.0000 C   0  0  0  0  0  0  0  0  0  0  0  0
    1.7292    1.5336    0.0000 C   0  0  0  0  0  0  0  0  0  0  0  0
    1.3167    0.8191    0.0000 C   0  0  0  0  0  0  0  0  0  0  0  0
    0.6022    1.2316    0.0000 O   0  0  0  0  0  0  0  0  0  0  0  0
    0.9042    0.1046    0.0000 C   0  0  0  0  0  0  0  0  0  0  0  0
    0.0792    0.1046    0.0000 C   0  0  0  0  0  0  0  0  0  0  0  0
   -0.3333   -0.6098    0.0000 Cl  0  0  0  0  0  0  0  0  0  0  0  0
    2.0311    0.4066    0.0000 C   0  0  0  0  0  0  0  0  0  0  0  0
    2.7456   -0.0059    0.0000 C   0  0  0  0  0  0  0  0  0  0  0  0
    2.5542    0.7086    0.0000 H   0  0  0  0  0  0  0  0  0  0  0  0
    3.3792    1.5336    0.0000 H   0  0  0  0  0  0  0  0  0  0  0  0
    2.5542    2.3586    0.0000 H   0  0  0  0  0  0  0  0  0  0  0  0
    1.6812    2.3572    0.0000 H   0  0  0  0  0  0  0  0  0  0  0  0
    1.0399    1.9869    0.0000 H   0  0  0  0  0  0  0  0  0  0  0  0
   -0.1949    1.0187    0.0000 H   0  0  0  0  0  0  0  0  0  0  0  0
    1.3167   -0.6098    0.0000 H   0  0  0  0  0  0  0  0  0  0  0  0
   -0.7403    0.2003    0.0000 H   0  0  0  0  0  0  0  0  0  0  0  0
    3.2478   -0.6604    0.0000 H   0  0  0  0  0  0  0  0  0  0  0  0
  1  2  1  0  0  0  0
  2  3  1  0  0  0  0
  3  4  1  0  0  0  0
  3  5  1  0  0  0  0
  5  6  2  0  0  0  0
  6  7  1  4  0  0  0
  3  8  1  0  0  0  0
  8  9  3  0  0  0  0
  1 10  1  0  0  0  0
  1 11  1  0  0  0  0
  1 12  1  0  0  0  0
  2 13  1  0  0  0  0
  2 14  1  0  0  0  0
  4 15  1  0  0  0  0
  5 16  1  0  0  0  0
  6 17  1  0  0  0  0
  9 18  1  0  0  0  0
M  END
>  <InChIKey>
InChI=1S/C7H9ClO/c1-3-7(9,4-2)5-6-8/h1,5-6,9H,4H2,2H3

>  <CASRN>
113-18-8

> <Outcome>
0

>  <Index>
3458

>  <StandardizerResult>
Clear Stereo (ID: ClearStereo)
Wedge Clean (ID: WedgeClean)
Mesomerize (ID: Mesomerize)
Tautomerize (ID: Tautomerize)
Add Explicit Hydrogens (ID: AddExplicitH)
Neutralize (ID: Neutralize)
Clean 2D (ID: Clean2D)

> <knn Distance>
3.46410155296326

> <CpId>
3458

$$$$
3538
  Mrv1532301301811342D          

 17 18  0  0  0  0            999 V2000
    0.0000   -1.6500    0.0000 O   0  0  0  0  0  0  0  0  0  0  0  0
    0.7145   -1.2375    0.0000 C   0  0  0  0  0  0  0  0  0  0  0  0
    0.7145   -0.4125    0.0000 C   0  0  0  0  0  0  0  0  0  0  0  0
    1.4290   -0.0000    0.0000 C   0  0  0  0  0  0  0  0  0  0  0  0
    2.1434   -0.4125    0.0000 C   0  0  0  0  0  0  0  0  0  0  0  0
    2.8579   -0.0000    0.0000 C   0  0  0  0  0  0  0  0  0  0  0  0
    3.5724   -0.4125    0.0000 C   0  0  0  0  0  0  0  0  0  0  0  0
    3.5724   -1.2375    0.0000 C   0  0  0  0  0  0  0  0  0  0  0  0
    2.8579   -1.6500    0.0000 C   0  0  0  0  0  0  0  0  0  0  0  0
    2.1434   -1.2375    0.0000 C   0  0  0  0  0  0  0  0  0  0  0  0
    1.4290   -1.6500    0.0000 O   0  0  0  0  0  0  0  0  0  0  0  0
    0.0000   -0.0000    0.0000 H   0  0  0  0  0  0  0  0  0  0  0  0
    1.4290    0.8250    0.0000 H   0  0  0  0  0  0  0  0  0  0  0  0
    2.8579    0.8250    0.0000 H   0  0  0  0  0  0  0  0  0  0  0  0
    4.2868   -0.0000    0.0000 H   0  0  0  0  0  0  0  0  0  0  0  0
    4.2868   -1.6500    0.0000 H   0  0  0  0  0  0  0  0  0  0  0  0
    2.8579   -2.4750    0.0000 H   0  0  0  0  0  0  0  0  0  0  0  0
  1  2  2  0  0  0  0
  2  3  1  0  0  0  0
  3  4  2  0  0  0  0
  4  5  1  0  0  0  0
  5  6  4  0  0  0  0
  6  7  4  0  0  0  0
  7  8  4  0  0  0  0
  8  9  4  0  0  0  0
  9 10  4  0  0  0  0
  5 10  4  0  0  0  0
 10 11  1  0  0  0  0
  2 11  1  0  0  0  0
  3 12  1  0  0  0  0
  4 13  1  0  0  0  0
  6 14  1  0  0  0  0
  7 15  1  0  0  0  0
  8 16  1  0  0  0  0
  9 17  1  0  0  0  0
M  END
>  <InChIKey>
InChI=1S/C9H6O2/c10-9-6-5-7-3-1-2-4-8(7)11-9/h1-6H

>  <CASRN>
91-64-5

> <Outcome>
0

>  <Index>
3538

>  <StandardizerResult>
Dearomatize (ID: Dearomatize)
Clear Stereo (ID: ClearStereo)
Wedge Clean (ID: WedgeClean)
Mesomerize (ID: Mesomerize)
Tautomerize (ID: Tautomerize)
Aromatize (ID: Aromatize)
Add Explicit Hydrogens (ID: AddExplicitH)
Neutralize (ID: Neutralize)
Clean 2D (ID: Clean2D)

> <knn Distance>
3.46410155296326

> <CpId>
3538

$$$$
4
  Mrv1532301301811342D          

 33 34  0  0  0  0            999 V2000
   -0.5230   -0.5230    0.0000 C   0  0  0  0  0  0  0  0  0  0  0  0
   -0.1105   -1.2375    0.0000 O   0  0  0  0  0  0  0  0  0  0  0  0
    0.7145   -1.2375    0.0000 Si  0  0  0  0  0  0  0  0  0  0  0  0
    1.5395   -1.2375    0.0000 O   0  0  0  0  0  0  0  0  0  0  0  0
    1.9520   -1.9520    0.0000 C   0  0  0  0  0  0  0  0  0  0  0  0
    0.7145   -2.0625    0.0000 C   0  0  0  0  0  0  0  0  0  0  0  0
    1.4289   -2.4750    0.0000 C   0  0  0  0  0  0  0  0  0  0  0  0
    1.4289   -3.3000    0.0000 C   0  0  0  0  0  0  0  0  0  0  0  0
    0.7145   -3.7125    0.0000 C   0  0  0  0  0  0  0  0  0  0  0  0
    0.0000   -3.3000    0.0000 C   0  0  0  0  0  0  0  0  0  0  0  0
    0.0000   -2.4750    0.0000 C   0  0  0  0  0  0  0  0  0  0  0  0
    0.7145   -0.4125    0.0000 C   0  0  0  0  0  0  0  0  0  0  0  0
    0.0000   -0.0000    0.0000 C   0  0  0  0  0  0  0  0  0  0  0  0
    0.0000    0.8250    0.0000 C   0  0  0  0  0  0  0  0  0  0  0  0
    0.7145    1.2375    0.0000 C   0  0  0  0  0  0  0  0  0  0  0  0
    1.4289    0.8250    0.0000 C   0  0  0  0  0  0  0  0  0  0  0  0
    1.4289   -0.0000    0.0000 C   0  0  0  0  0  0  0  0  0  0  0  0
   -0.7882    0.2582    0.0000 H   0  0  0  0  0  0  0  0  0  0  0  0
   -1.3410   -0.4153    0.0000 H   0  0  0  0  0  0  0  0  0  0  0  0
   -0.9814   -1.2090    0.0000 H   0  0  0  0  0  0  0  0  0  0  0  0
    2.2172   -2.7332    0.0000 H   0  0  0  0  0  0  0  0  0  0  0  0
    2.7699   -2.0597    0.0000 H   0  0  0  0  0  0  0  0  0  0  0  0
    2.4103   -1.2660    0.0000 H   0  0  0  0  0  0  0  0  0  0  0  0
    0.7145   -2.8875    0.0000 H   0  0  0  0  0  0  0  0  0  0  0  0
    2.1434   -3.7125    0.0000 H   0  0  0  0  0  0  0  0  0  0  0  0
    0.7145   -4.5375    0.0000 H   0  0  0  0  0  0  0  0  0  0  0  0
   -0.7145   -3.7125    0.0000 H   0  0  0  0  0  0  0  0  0  0  0  0
   -0.7145   -2.0625    0.0000 H   0  0  0  0  0  0  0  0  0  0  0  0
    0.7145    0.4125    0.0000 H   0  0  0  0  0  0  0  0  0  0  0  0
   -0.7145    1.2375    0.0000 H   0  0  0  0  0  0  0  0  0  0  0  0
    0.7145    2.0625    0.0000 H   0  0  0  0  0  0  0  0  0  0  0  0
    2.1434    1.2375    0.0000 H   0  0  0  0  0  0  0  0  0  0  0  0
    2.1434   -0.4125    0.0000 H   0  0  0  0  0  0  0  0  0  0  0  0
  1  2  1  0  0  0  0
  2  3  1  0  0  0  0
  3  4  1  0  0  0  0
  4  5  1  0  0  0  0
  3  6  1  0  0  0  0
  6  7  4  0  0  0  0
  7  8  4  0  0  0  0
  8  9  4  0  0  0  0
  9 10  4  0  0  0  0
 10 11  4  0  0  0  0
  6 11  4  0  0  0  0
  3 12  1  0  0  0  0
 12 13  4  0  0  0  0
 13 14  4  0  0  0  0
 14 15  4  0  0  0  0
 15 16  4  0  0  0  0
 16 17  4  0  0  0  0
 12 17  4  0  0  0  0
  1 18  1  0  0  0  0
  1 19  1  0  0  0  0
  1 20  1  0  0  0  0
  5 21  1  0  0  0  0
  5 22  1  0  0  0  0
  5 23  1  0  0  0  0
  7 24  1  0  0  0  0
  8 25  1  0  0  0  0
  9 26  1  0  0  0  0
 10 27  1  0  0  0  0
 11 28  1  0  0  0  0
 13 29  1  0  0  0  0
 14 30  1  0  0  0  0
 15 31  1  0  0  0  0
 16 32  1  0  0  0  0
 17 33  1  0  0  0  0
M  END
>  <InChIKey>
AHUXYBVKTIBBJW-UHFFFAOYSA-N

>  <UN GHS>
Non-irritant

>  <CASRN>
6843-66-9

> <Outcome>
0

>  <Index>
4

>  <StandardizerResult>
Dearomatize (ID: Dearomatize)
Clear Stereo (ID: ClearStereo)
Wedge Clean (ID: WedgeClean)
Mesomerize (ID: Mesomerize)
Tautomerize (ID: Tautomerize)
Aromatize (ID: Aromatize)
Add Explicit Hydrogens (ID: AddExplicitH)
Neutralize (ID: Neutralize)
Clean 2D (ID: Clean2D)

> <knn Distance>
3.60555124282837

> <CpId>
4

$$$$
11
  Mrv1532301301811342D          

 38 37  0  0  0  0            999 V2000
    2.2179    3.1748    0.0000 C   0  0  0  0  0  0  0  0  0  0  0  0
    1.5034    2.7623    0.0000 C   0  0  0  0  0  0  0  0  0  0  0  0
    1.5034    1.9373    0.0000 O   0  0  0  0  0  0  0  0  0  0  0  0
    0.7889    1.5248    0.0000 Si  0  0  0  0  0  0  0  0  0  0  0  0
    0.0744    1.1123    0.0000 C   0  0  0  0  0  0  0  0  0  0  0  0
   -0.6400    1.5248    0.0000 C   0  0  0  0  0  0  0  0  0  0  0  0
   -1.3545    1.1123    0.0000 C   0  0  0  0  0  0  0  0  0  0  0  0
   -0.6400    2.3498    0.0000 C   0  0  0  0  0  0  0  0  0  0  0  0
    0.3764    2.2393    0.0000 O   0  0  0  0  0  0  0  0  0  0  0  0
    0.7889    2.9538    0.0000 C   0  0  0  0  0  0  0  0  0  0  0  0
    0.3764    3.6682    0.0000 C   0  0  0  0  0  0  0  0  0  0  0  0
    1.2014    0.8103    0.0000 O   0  0  0  0  0  0  0  0  0  0  0  0
    0.7889    0.0959    0.0000 C   0  0  0  0  0  0  0  0  0  0  0  0
   -0.0361    0.0959    0.0000 C   0  0  0  0  0  0  0  0  0  0  0  0
    2.6304    2.4603    0.0000 H   0  0  0  0  0  0  0  0  0  0  0  0
    2.9323    3.5873    0.0000 H   0  0  0  0  0  0  0  0  0  0  0  0
    1.8054    3.8893    0.0000 H   0  0  0  0  0  0  0  0  0  0  0  0
    1.3957    3.5803    0.0000 H   0  0  0  0  0  0  0  0  0  0  0  0
    2.2179    2.3498    0.0000 H   0  0  0  0  0  0  0  0  0  0  0  0
   -0.2958    0.3751    0.0000 H   0  0  0  0  0  0  0  0  0  0  0  0
    0.4447    0.3751    0.0000 H   0  0  0  0  0  0  0  0  0  0  0  0
   -0.6400    0.6998    0.0000 H   0  0  0  0  0  0  0  0  0  0  0  0
   -1.5680    1.9092    0.0000 H   0  0  0  0  0  0  0  0  0  0  0  0
   -2.1795    1.1123    0.0000 H   0  0  0  0  0  0  0  0  0  0  0  0
   -1.5680    0.3154    0.0000 H   0  0  0  0  0  0  0  0  0  0  0  0
    0.1850    2.3498    0.0000 H   0  0  0  0  0  0  0  0  0  0  0  0
   -0.6400    3.1748    0.0000 H   0  0  0  0  0  0  0  0  0  0  0  0
   -1.4650    2.3498    0.0000 H   0  0  0  0  0  0  0  0  0  0  0  0
    1.1046    2.1916    0.0000 H   0  0  0  0  0  0  0  0  0  0  0  0
   -0.0290    3.0614    0.0000 H   0  0  0  0  0  0  0  0  0  0  0  0
    1.1767    3.8687    0.0000 H   0  0  0  0  0  0  0  0  0  0  0  0
    0.4034    4.4928    0.0000 H   0  0  0  0  0  0  0  0  0  0  0  0
   -0.4090    3.9206    0.0000 H   0  0  0  0  0  0  0  0  0  0  0  0
    0.8369   -0.7277    0.0000 H   0  0  0  0  0  0  0  0  0  0  0  0
    1.4782   -0.3575    0.0000 H   0  0  0  0  0  0  0  0  0  0  0  0
   -0.8452   -0.0651    0.0000 H   0  0  0  0  0  0  0  0  0  0  0  0
   -0.3518   -0.6663    0.0000 H   0  0  0  0  0  0  0  0  0  0  0  0
    0.4223   -0.5901    0.0000 H   0  0  0  0  0  0  0  0  0  0  0  0
  1  2  1  0  0  0  0
  2  3  1  0  0  0  0
  3  4  1  0  0  0  0
  4  5  1  0  0  0  0
  5  6  1  0  0  0  0
  6  7  1  0  0  0  0
  6  8  1  0  0  0  0
  4  9  1  0  0  0  0
  9 10  1  0  0  0  0
 10 11  1  0  0  0  0
  4 12  1  0  0  0  0
 12 13  1  0  0  0  0
 13 14  1  0  0  0  0
  1 15  1  0  0  0  0
  1 16  1  0  0  0  0
  1 17  1  0  0  0  0
  2 18  1  0  0  0  0
  2 19  1  0  0  0  0
  5 20  1  0  0  0  0
  5 21  1  0  0  0  0
  6 22  1  0  0  0  0
  7 23  1  0  0  0  0
  7 24  1  0  0  0  0
  7 25  1  0  0  0  0
  8 26  1  0  0  0  0
  8 27  1  0  0  0  0
  8 28  1  0  0  0  0
 10 29  1  0  0  0  0
 10 30  1  0  0  0  0
 11 31  1  0  0  0  0
 11 32  1  0  0  0  0
 11 33  1  0  0  0  0
 13 34  1  0  0  0  0
 13 35  1  0  0  0  0
 14 36  1  0  0  0  0
 14 37  1  0  0  0  0
 14 38  1  0  0  0  0
M  END
>  <InChIKey>
ALVYUZIFSCKIFP-UHFFFAOYSA-N

>  <UN GHS>
Non-irritant

>  <CASRN>
17980-47-1

> <Outcome>
0

>  <Index>
11

>  <StandardizerResult>
Clear Stereo (ID: ClearStereo)
Wedge Clean (ID: WedgeClean)
Mesomerize (ID: Mesomerize)
Tautomerize (ID: Tautomerize)
Add Explicit Hydrogens (ID: AddExplicitH)
Neutralize (ID: Neutralize)
Clean 2D (ID: Clean2D)

> <knn Distance>
3.60555124282837

> <CpId>
11

$$$$
23
  Mrv1532301301811342D          

 35 35  0  0  0  0            999 V2000
   -0.7345   -0.4471    0.0000 C   0  0  0  0  0  0  0  0  0  0  0  0
   -0.7345   -1.2721    0.0000 C   0  0  0  0  0  0  0  0  0  0  0  0
   -0.0200   -1.6846    0.0000 C   0  0  0  0  0  0  0  0  0  0  0  0
   -0.0200   -2.5096    0.0000 C   0  0  0  0  0  0  0  0  0  0  0  0
    0.6945   -2.9221    0.0000 C   0  0  0  0  0  0  0  0  0  0  0  0
    1.4090   -2.5096    0.0000 C   0  0  0  0  0  0  0  0  0  0  0  0
    1.4090   -1.6846    0.0000 C   0  0  0  0  0  0  0  0  0  0  0  0
    2.1234   -2.9221    0.0000 O   0  0  0  0  0  0  0  0  0  0  0  0
    2.8379   -2.5096    0.0000 C   0  0  0  0  0  0  0  0  0  0  0  0
    2.8379   -1.6846    0.0000 O   0  0  0  0  0  0  0  0  0  0  0  0
    3.5524   -2.9221    0.0000 C   0  0  0  0  0  0  0  0  0  0  0  0
    4.2668   -2.5096    0.0000 C   0  0  0  0  0  0  0  0  0  0  0  0
    4.9813   -2.9221    0.0000 C   0  0  0  0  0  0  0  0  0  0  0  0
    4.9813   -3.7471    0.0000 C   0  0  0  0  0  0  0  0  0  0  0  0
    4.2668   -4.1596    0.0000 C   0  0  0  0  0  0  0  0  0  0  0  0
    3.5524   -3.7471    0.0000 C   0  0  0  0  0  0  0  0  0  0  0  0
    2.8379   -4.1596    0.0000 O   0  0  0  0  0  0  0  0  0  0  0  0
    0.0905   -0.4471    0.0000 H   0  0  0  0  0  0  0  0  0  0  0  0
   -0.7345    0.3779    0.0000 H   0  0  0  0  0  0  0  0  0  0  0  0
   -1.5595   -0.4471    0.0000 H   0  0  0  0  0  0  0  0  0  0  0  0
   -1.5581   -1.3201    0.0000 H   0  0  0  0  0  0  0  0  0  0  0  0
   -1.1878   -1.9614    0.0000 H   0  0  0  0  0  0  0  0  0  0  0  0
    0.6945   -1.2721    0.0000 H   0  0  0  0  0  0  0  0  0  0  0  0
   -0.7345   -2.9221    0.0000 H   0  0  0  0  0  0  0  0  0  0  0  0
    0.3242   -3.6593    0.0000 H   0  0  0  0  0  0  0  0  0  0  0  0
    1.0647   -3.6593    0.0000 H   0  0  0  0  0  0  0  0  0  0  0  0
    0.6945   -2.0971    0.0000 H   0  0  0  0  0  0  0  0  0  0  0  0
    2.1234   -2.0971    0.0000 H   0  0  0  0  0  0  0  0  0  0  0  0
    2.1234   -1.2721    0.0000 H   0  0  0  0  0  0  0  0  0  0  0  0
    1.4090   -0.8596    0.0000 H   0  0  0  0  0  0  0  0  0  0  0  0
    4.2668   -1.6846    0.0000 H   0  0  0  0  0  0  0  0  0  0  0  0
    5.6958   -2.5096    0.0000 H   0  0  0  0  0  0  0  0  0  0  0  0
    5.6958   -4.1596    0.0000 H   0  0  0  0  0  0  0  0  0  0  0  0
    4.2668   -4.9846    0.0000 H   0  0  0  0  0  0  0  0  0  0  0  0
    2.1234   -3.7471    0.0000 H   0  0  0  0  0  0  0  0  0  0  0  0
  1  2  1  0  0  0  0
  3  2  1  4  0  0  0
  3  4  2  0  0  0  0
  4  5  1  0  0  0  0
  5  6  1  0  0  0  0
  6  7  1  0  0  0  0
  6  8  1  0  0  0  0
  8  9  1  0  0  0  0
  9 10  2  0  0  0  0
  9 11  1  0  0  0  0
 11 12  4  0  0  0  0
 12 13  4  0  0  0  0
 13 14  4  0  0  0  0
 14 15  4  0  0  0  0
 15 16  4  0  0  0  0
 11 16  4  0  0  0  0
 16 17  1  0  0  0  0
  1 18  1  0  0  0  0
  1 19  1  0  0  0  0
  1 20  1  0  0  0  0
  2 21  1  0  0  0  0
  2 22  1  0  0  0  0
  3 23  1  0  0  0  0
  4 24  1  0  0  0  0
  5 25  1  0  0  0  0
  5 26  1  0  0  0  0
  6 27  1  0  0  0  0
  7 28  1  0  0  0  0
  7 29  1  0  0  0  0
  7 30  1  0  0  0  0
 12 31  1  0  0  0  0
 13 32  1  0  0  0  0
 14 33  1  0  0  0  0
 15 34  1  0  0  0  0
 17 35  1  0  0  0  0
M  END
>  <InChIKey>
AWFJMMINHWORIB-PLNGDYQASA-N

>  <UN GHS>
Non-irritant

>  <CASRN>
873888-84-7

> <Outcome>
0

>  <Index>
23

>  <StandardizerResult>
Dearomatize (ID: Dearomatize)
Clear Stereo (ID: ClearStereo)
Wedge Clean (ID: WedgeClean)
Mesomerize (ID: Mesomerize)
Tautomerize (ID: Tautomerize)
Aromatize (ID: Aromatize)
Add Explicit Hydrogens (ID: AddExplicitH)
Neutralize (ID: Neutralize)
Clean 2D (ID: Clean2D)

> <knn Distance>
3.60555124282837

> <CpId>
23

$$$$
58
  Mrv1532301301811342D          

 26 27  0  0  0  0            999 V2000
    3.5501    2.0371    0.0000 C   0  0  0  0  0  0  0  0  0  0  0  0
    2.8356    1.6246    0.0000 C   0  0  0  0  0  0  0  0  0  0  0  0
    2.8356    0.7996    0.0000 C   0  0  0  0  0  0  0  0  0  0  0  0
    2.1211    0.3871    0.0000 C   0  0  0  0  0  0  0  0  0  0  0  0
    1.4067    0.7996    0.0000 C   0  0  0  0  0  0  0  0  0  0  0  0
    1.4067    1.6246    0.0000 C   0  0  0  0  0  0  0  0  0  0  0  0
    2.1211    2.0371    0.0000 C   0  0  0  0  0  0  0  0  0  0  0  0
    0.6922    1.2121    0.0000 C   0  0  0  0  0  0  0  0  0  0  0  0
    0.0164    1.6853    0.0000 C   0  0  0  0  0  0  0  0  0  0  0  0
    0.0164    0.7389    0.0000 C   0  0  0  0  0  0  0  0  0  0  0  0
    3.9626    1.3226    0.0000 H   0  0  0  0  0  0  0  0  0  0  0  0
    4.2646    2.4496    0.0000 H   0  0  0  0  0  0  0  0  0  0  0  0
    3.1376    2.7515    0.0000 H   0  0  0  0  0  0  0  0  0  0  0  0
    3.5501    0.3871    0.0000 H   0  0  0  0  0  0  0  0  0  0  0  0
    1.7509   -0.3502    0.0000 H   0  0  0  0  0  0  0  0  0  0  0  0
    2.4914   -0.3502    0.0000 H   0  0  0  0  0  0  0  0  0  0  0  0
    0.9942    0.0851    0.0000 H   0  0  0  0  0  0  0  0  0  0  0  0
    0.9942    2.3390    0.0000 H   0  0  0  0  0  0  0  0  0  0  0  0
    2.4914    2.7743    0.0000 H   0  0  0  0  0  0  0  0  0  0  0  0
    1.7509    2.7743    0.0000 H   0  0  0  0  0  0  0  0  0  0  0  0
    0.6367    2.2292    0.0000 H   0  0  0  0  0  0  0  0  0  0  0  0
   -0.3645    2.4170    0.0000 H   0  0  0  0  0  0  0  0  0  0  0  0
   -0.7850    1.4892    0.0000 H   0  0  0  0  0  0  0  0  0  0  0  0
   -0.7850    0.9350    0.0000 H   0  0  0  0  0  0  0  0  0  0  0  0
   -0.3645    0.0071    0.0000 H   0  0  0  0  0  0  0  0  0  0  0  0
    0.6367    0.1949    0.0000 H   0  0  0  0  0  0  0  0  0  0  0  0
  1  2  1  0  0  0  0
  2  3  2  0  0  0  0
  3  4  1  0  0  0  0
  4  5  1  0  0  0  0
  5  6  1  0  0  0  0
  6  7  1  0  0  0  0
  2  7  1  0  0  0  0
  6  8  1  0  0  0  0
  5  8  1  0  0  0  0
  8  9  1  0  0  0  0
  8 10  1  0  0  0  0
  1 11  1  0  0  0  0
  1 12  1  0  0  0  0
  1 13  1  0  0  0  0
  3 14  1  0  0  0  0
  4 15  1  0  0  0  0
  4 16  1  0  0  0  0
  5 17  1  0  0  0  0
  6 18  1  0  0  0  0
  7 19  1  0  0  0  0
  7 20  1  0  0  0  0
  9 21  1  0  0  0  0
  9 22  1  0  0  0  0
  9 23  1  0  0  0  0
 10 24  1  0  0  0  0
 10 25  1  0  0  0  0
 10 26  1  0  0  0  0
M  END
>  <InChIKey>
BQOFWKZOCNGFEC-UHFFFAOYSA-N

>  <UN GHS>
Non-irritant

>  <CASRN>
13466-78-9

> <Outcome>
0

>  <Index>
58

>  <StandardizerResult>
Clear Stereo (ID: ClearStereo)
Wedge Clean (ID: WedgeClean)
Mesomerize (ID: Mesomerize)
Tautomerize (ID: Tautomerize)
Add Explicit Hydrogens (ID: AddExplicitH)
Neutralize (ID: Neutralize)
Clean 2D (ID: Clean2D)

> <knn Distance>
3.60555124282837

> <CpId>
58

$$$$
74
  Mrv1532301301811342D          

 47 48  0  0  0  0            999 V2000
    0.7145   -2.0617    0.0000 O   0  0  0  0  0  0  0  0  0  0  0  0
    0.7145   -1.2367    0.0000 C   0  0  0  0  0  0  0  0  0  0  0  0
    1.4289   -0.8242    0.0000 O   0  0  0  0  0  0  0  0  0  0  0  0
    2.1434   -1.2367    0.0000 C   0  0  0  0  0  0  0  0  0  0  0  0
    2.8579   -0.8242    0.0000 C   0  0  0  0  0  0  0  0  0  0  0  0
    3.5724   -1.2367    0.0000 C   0  0  0  0  0  0  0  0  0  0  0  0
    4.2868   -0.8242    0.0000 O   0  0  0  0  0  0  0  0  0  0  0  0
    5.0013   -1.2367    0.0000 C   0  0  0  0  0  0  0  0  0  0  0  0
    5.7158   -0.8242    0.0000 C   0  0  0  0  0  0  0  0  0  0  0  0
    6.4302   -1.2367    0.0000 C   0  0  0  0  0  0  0  0  0  0  0  0
    7.1447   -0.8242    0.0000 O   0  0  0  0  0  0  0  0  0  0  0  0
    7.8592   -1.2367    0.0000 C   0  0  0  0  0  0  0  0  0  0  0  0
    7.8592   -2.0617    0.0000 O   0  0  0  0  0  0  0  0  0  0  0  0
    8.5737   -0.8242    0.0000 C   0  0  0  0  0  0  0  0  0  0  0  0
    8.5737    0.0008    0.0000 C   0  0  0  0  0  0  0  0  0  0  0  0
    9.2881    0.4133    0.0000 C   0  0  0  0  0  0  0  0  0  0  0  0
   10.0026    0.0008    0.0000 C   0  0  0  0  0  0  0  0  0  0  0  0
   10.0026   -0.8242    0.0000 C   0  0  0  0  0  0  0  0  0  0  0  0
    9.2881   -1.2367    0.0000 C   0  0  0  0  0  0  0  0  0  0  0  0
    0.0000   -0.8242    0.0000 C   0  0  0  0  0  0  0  0  0  0  0  0
   -0.7145   -1.2367    0.0000 C   0  0  0  0  0  0  0  0  0  0  0  0
   -1.4289   -0.8242    0.0000 C   0  0  0  0  0  0  0  0  0  0  0  0
   -1.4289    0.0008    0.0000 C   0  0  0  0  0  0  0  0  0  0  0  0
   -0.7145    0.4133    0.0000 C   0  0  0  0  0  0  0  0  0  0  0  0
    0.0000    0.0008    0.0000 C   0  0  0  0  0  0  0  0  0  0  0  0
    1.7732   -1.9740    0.0000 H   0  0  0  0  0  0  0  0  0  0  0  0
    2.5137   -1.9740    0.0000 H   0  0  0  0  0  0  0  0  0  0  0  0
    3.2281   -0.0870    0.0000 H   0  0  0  0  0  0  0  0  0  0  0  0
    2.4876   -0.0870    0.0000 H   0  0  0  0  0  0  0  0  0  0  0  0
    3.2021   -1.9740    0.0000 H   0  0  0  0  0  0  0  0  0  0  0  0
    3.9426   -1.9740    0.0000 H   0  0  0  0  0  0  0  0  0  0  0  0
    4.6310   -1.9740    0.0000 H   0  0  0  0  0  0  0  0  0  0  0  0
    5.3716   -1.9740    0.0000 H   0  0  0  0  0  0  0  0  0  0  0  0
    6.0860   -0.0870    0.0000 H   0  0  0  0  0  0  0  0  0  0  0  0
    5.3455   -0.0870    0.0000 H   0  0  0  0  0  0  0  0  0  0  0  0
    6.0600   -1.9740    0.0000 H   0  0  0  0  0  0  0  0  0  0  0  0
    6.8005   -1.9740    0.0000 H   0  0  0  0  0  0  0  0  0  0  0  0
    7.8592    0.4133    0.0000 H   0  0  0  0  0  0  0  0  0  0  0  0
    9.2881    1.2383    0.0000 H   0  0  0  0  0  0  0  0  0  0  0  0
   10.7171    0.4133    0.0000 H   0  0  0  0  0  0  0  0  0  0  0  0
   10.7171   -1.2367    0.0000 H   0  0  0  0  0  0  0  0  0  0  0  0
    9.2881   -2.0617    0.0000 H   0  0  0  0  0  0  0  0  0  0  0  0
   -0.7145   -2.0617    0.0000 H   0  0  0  0  0  0  0  0  0  0  0  0
   -2.1434   -1.2367    0.0000 H   0  0  0  0  0  0  0  0  0  0  0  0
   -2.1434    0.4133    0.0000 H   0  0  0  0  0  0  0  0  0  0  0  0
   -0.7145    1.2383    0.0000 H   0  0  0  0  0  0  0  0  0  0  0  0
    0.7145    0.4133    0.0000 H   0  0  0  0  0  0  0  0  0  0  0  0
  1  2  2  0  0  0  0
  2  3  1  0  0  0  0
  3  4  1  0  0  0  0
  4  5  1  0  0  0  0
  5  6  1  0  0  0  0
  6  7  1  0  0  0  0
  7  8  1  0  0  0  0
  8  9  1  0  0  0  0
  9 10  1  0  0  0  0
 10 11  1  0  0  0  0
 11 12  1  0  0  0  0
 12 13  2  0  0  0  0
 12 14  1  0  0  0  0
 14 15  4  0  0  0  0
 15 16  4  0  0  0  0
 16 17  4  0  0  0  0
 17 18  4  0  0  0  0
 18 19  4  0  0  0  0
 14 19  4  0  0  0  0
  2 20  1  0  0  0  0
 20 21  4  0  0  0  0
 21 22  4  0  0  0  0
 22 23  4  0  0  0  0
 23 24  4  0  0  0  0
 24 25  4  0  0  0  0
 20 25  4  0  0  0  0
  4 26  1  0  0  0  0
  4 27  1  0  0  0  0
  5 28  1  0  0  0  0
  5 29  1  0  0  0  0
  6 30  1  0  0  0  0
  6 31  1  0  0  0  0
  8 32  1  0  0  0  0
  8 33  1  0  0  0  0
  9 34  1  0  0  0  0
  9 35  1  0  0  0  0
 10 36  1  0  0  0  0
 10 37  1  0  0  0  0
 15 38  1  0  0  0  0
 16 39  1  0  0  0  0
 17 40  1  0  0  0  0
 18 41  1  0  0  0  0
 19 42  1  0  0  0  0
 21 43  1  0  0  0  0
 22 44  1  0  0  0  0
 23 45  1  0  0  0  0
 24 46  1  0  0  0  0
 25 47  1  0  0  0  0
M  END
>  <InChIKey>
BYQDGAVOOHIJQS-UHFFFAOYSA-N

>  <UN GHS>
Non-irritant

>  <CASRN>
27138-31-4

> <Outcome>
0

>  <Index>
74

>  <StandardizerResult>
Dearomatize (ID: Dearomatize)
Clear Stereo (ID: ClearStereo)
Wedge Clean (ID: WedgeClean)
Mesomerize (ID: Mesomerize)
Tautomerize (ID: Tautomerize)
Aromatize (ID: Aromatize)
Add Explicit Hydrogens (ID: AddExplicitH)
Neutralize (ID: Neutralize)
Clean 2D (ID: Clean2D)

> <knn Distance>
3.60555124282837

> <CpId>
74

$$$$
101
  Mrv1532301301811342D          

 38 44  0  0  0  0            999 V2000
    4.3461    3.0789    0.0000 O   0  0  0  0  0  0  0  0  0  0  0  0
    3.9336    2.3645    0.0000 C   0  0  0  0  0  0  0  0  0  0  0  0
    4.3461    1.6500    0.0000 O   0  0  0  0  0  0  0  0  0  0  0  0
    3.9336    0.9355    0.0000 C   0  0  0  0  0  0  0  0  0  0  0  0
    4.3461    0.2211    0.0000 O   0  0  0  0  0  0  0  0  0  0  0  0
    3.1086    0.9355    0.0000 C   0  0  0  0  0  0  0  0  0  0  0  0
    2.6961    0.2211    0.0000 C   0  0  0  0  0  0  0  0  0  0  0  0
    1.8711    0.2211    0.0000 C   0  0  0  0  0  0  0  0  0  0  0  0
    1.4586    0.9355    0.0000 C   0  0  0  0  0  0  0  0  0  0  0  0
    0.6336    0.9355    0.0000 C   0  0  0  0  0  0  0  0  0  0  0  0
    0.2211    0.2211    0.0000 C   0  0  0  0  0  0  0  0  0  0  0  0
   -0.6039    0.2211    0.0000 C   0  0  0  0  0  0  0  0  0  0  0  0
   -1.0164    0.9355    0.0000 C   0  0  0  0  0  0  0  0  0  0  0  0
   -0.6039    1.6500    0.0000 C   0  0  0  0  0  0  0  0  0  0  0  0
   -1.0164    2.3645    0.0000 C   0  0  0  0  0  0  0  0  0  0  0  0
   -0.6039    3.0789    0.0000 C   0  0  0  0  0  0  0  0  0  0  0  0
    0.2211    3.0789    0.0000 C   0  0  0  0  0  0  0  0  0  0  0  0
    0.6336    2.3645    0.0000 C   0  0  0  0  0  0  0  0  0  0  0  0
    1.4586    2.3645    0.0000 C   0  0  0  0  0  0  0  0  0  0  0  0
    1.8711    3.0789    0.0000 C   0  0  0  0  0  0  0  0  0  0  0  0
    2.6961    3.0789    0.0000 C   0  0  0  0  0  0  0  0  0  0  0  0
    3.1086    2.3645    0.0000 C   0  0  0  0  0  0  0  0  0  0  0  0
    2.6961    1.6500    0.0000 C   0  0  0  0  0  0  0  0  0  0  0  0
    1.8711    1.6500    0.0000 C   0  0  0  0  0  0  0  0  0  0  0  0
    0.2211    1.6500    0.0000 C   0  0  0  0  0  0  0  0  0  0  0  0
   -1.8414    2.3645    0.0000 C   0  0  0  0  0  0  0  0  0  0  0  0
   -2.2539    3.0789    0.0000 O   0  0  0  0  0  0  0  0  0  0  0  0
   -2.2539    1.6500    0.0000 O   0  0  0  0  0  0  0  0  0  0  0  0
   -1.8414    0.9355    0.0000 C   0  0  0  0  0  0  0  0  0  0  0  0
   -2.2539    0.2211    0.0000 O   0  0  0  0  0  0  0  0  0  0  0  0
    3.1086   -0.4934    0.0000 H   0  0  0  0  0  0  0  0  0  0  0  0
    1.4586   -0.4934    0.0000 H   0  0  0  0  0  0  0  0  0  0  0  0
    0.6336   -0.4934    0.0000 H   0  0  0  0  0  0  0  0  0  0  0  0
   -1.0164   -0.4934    0.0000 H   0  0  0  0  0  0  0  0  0  0  0  0
   -1.0164    3.7934    0.0000 H   0  0  0  0  0  0  0  0  0  0  0  0
    0.6336    3.7934    0.0000 H   0  0  0  0  0  0  0  0  0  0  0  0
    1.4586    3.7934    0.0000 H   0  0  0  0  0  0  0  0  0  0  0  0
    3.1086    3.7934    0.0000 H   0  0  0  0  0  0  0  0  0  0  0  0
  1  2  2  0  0  0  0
  2  3  1  0  0  0  0
  3  4  1  0  0  0  0
  4  5  2  0  0  0  0
  4  6  1  0  0  0  0
  6  7  4  0  0  0  0
  7  8  4  0  0  0  0
  8  9  4  0  0  0  0
  9 10  4  0  0  0  0
 10 11  4  0  0  0  0
 11 12  4  0  0  0  0
 12 13  4  0  0  0  0
 13 14  4  0  0  0  0
 14 15  4  0  0  0  0
 15 16  4  0  0  0  0
 16 17  4  0  0  0  0
 17 18  4  0  0  0  0
 18 19  4  0  0  0  0
 19 20  4  0  0  0  0
 20 21  4  0  0  0  0
 21 22  4  0  0  0  0
  2 22  1  0  0  0  0
 22 23  4  0  0  0  0
  6 23  4  0  0  0  0
 23 24  4  0  0  0  0
  9 24  4  0  0  0  0
 19 24  4  0  0  0  0
 18 25  4  0  0  0  0
 10 25  4  0  0  0  0
 14 25  4  0  0  0  0
 15 26  1  0  0  0  0
 26 27  2  0  0  0  0
 26 28  1  0  0  0  0
 28 29  1  0  0  0  0
 13 29  1  0  0  0  0
 29 30  2  0  0  0  0
  7 31  1  0  0  0  0
  8 32  1  0  0  0  0
 11 33  1  0  0  0  0
 12 34  1  0  0  0  0
 16 35  1  0  0  0  0
 17 36  1  0  0  0  0
 20 37  1  0  0  0  0
 21 38  1  0  0  0  0
M  END
>  <InChIKey>
CLYVDMAATCIVBF-UHFFFAOYSA-N

>  <UN GHS>
Non-irritant

>  <CASRN>
128-69-8

> <Outcome>
0

>  <Index>
101

>  <StandardizerResult>
Dearomatize (ID: Dearomatize)
Clear Stereo (ID: ClearStereo)
Wedge Clean (ID: WedgeClean)
Mesomerize (ID: Mesomerize)
Tautomerize (ID: Tautomerize)
Aromatize (ID: Aromatize)
Add Explicit Hydrogens (ID: AddExplicitH)
Neutralize (ID: Neutralize)
Clean 2D (ID: Clean2D)

> <knn Distance>
3.60555124282837

> <CpId>
101

$$$$
135
  Mrv1532301301811342D          

 40 40  0  0  0  0            999 V2000
    0.1816    4.0693    0.0000 C   0  0  0  0  0  0  0  0  0  0  0  0
   -0.6434    4.0693    0.0000 C   0  0  0  0  0  0  0  0  0  0  0  0
   -1.0559    3.3549    0.0000 C   0  0  0  0  0  0  0  0  0  0  0  0
   -1.4684    2.6404    0.0000 C   0  0  0  0  0  0  0  0  0  0  0  0
   -1.7704    3.7674    0.0000 C   0  0  0  0  0  0  0  0  0  0  0  0
   -1.7704    4.5924    0.0000 C   0  0  0  0  0  0  0  0  0  0  0  0
   -2.4849    5.0049    0.0000 C   0  0  0  0  0  0  0  0  0  0  0  0
   -2.4849    5.8299    0.0000 C   0  0  0  0  0  0  0  0  0  0  0  0
   -3.1993    4.5924    0.0000 C   0  0  0  0  0  0  0  0  0  0  0  0
   -0.3414    2.9424    0.0000 C   0  0  0  0  0  0  0  0  0  0  0  0
    0.3730    3.3549    0.0000 O   0  0  0  0  0  0  0  0  0  0  0  0
   -0.3414    2.1174    0.0000 O   0  0  0  0  0  0  0  0  0  0  0  0
    0.3730    1.7049    0.0000 C   0  0  0  0  0  0  0  0  0  0  0  0
    0.3730    0.8799    0.0000 C   0  0  0  0  0  0  0  0  0  0  0  0
    0.7855    0.1654    0.0000 C   0  0  0  0  0  0  0  0  0  0  0  0
   -0.0395    0.1654    0.0000 O   0  0  0  0  0  0  0  0  0  0  0  0
    0.9907    3.9084    0.0000 H   0  0  0  0  0  0  0  0  0  0  0  0
    0.6838    4.7238    0.0000 H   0  0  0  0  0  0  0  0  0  0  0  0
   -0.1833    4.8093    0.0000 H   0  0  0  0  0  0  0  0  0  0  0  0
   -1.1610    4.7118    0.0000 H   0  0  0  0  0  0  0  0  0  0  0  0
   -1.4540    4.2229    0.0000 H   0  0  0  0  0  0  0  0  0  0  0  0
   -2.1829    3.0529    0.0000 H   0  0  0  0  0  0  0  0  0  0  0  0
   -1.8809    1.9259    0.0000 H   0  0  0  0  0  0  0  0  0  0  0  0
   -0.7539    2.2279    0.0000 H   0  0  0  0  0  0  0  0  0  0  0  0
   -2.5673    3.9809    0.0000 H   0  0  0  0  0  0  0  0  0  0  0  0
   -1.5569    2.9705    0.0000 H   0  0  0  0  0  0  0  0  0  0  0  0
   -1.6349    5.4062    0.0000 H   0  0  0  0  0  0  0  0  0  0  0  0
   -2.4849    4.1799    0.0000 H   0  0  0  0  0  0  0  0  0  0  0  0
   -3.1993    5.4174    0.0000 H   0  0  0  0  0  0  0  0  0  0  0  0
   -1.7901    6.2747    0.0000 H   0  0  0  0  0  0  0  0  0  0  0  0
   -2.5101    6.6545    0.0000 H   0  0  0  0  0  0  0  0  0  0  0  0
   -3.2056    6.2314    0.0000 H   0  0  0  0  0  0  0  0  0  0  0  0
   -3.8872    5.0479    0.0000 H   0  0  0  0  0  0  0  0  0  0  0  0
   -3.9589    4.2704    0.0000 H   0  0  0  0  0  0  0  0  0  0  0  0
   -3.3502    3.7813    0.0000 H   0  0  0  0  0  0  0  0  0  0  0  0
    1.1966    1.7528    0.0000 H   0  0  0  0  0  0  0  0  0  0  0  0
    0.8264    2.3941    0.0000 H   0  0  0  0  0  0  0  0  0  0  0  0
   -0.4239    1.0934    0.0000 H   0  0  0  0  0  0  0  0  0  0  0  0
    1.1558   -0.5719    0.0000 H   0  0  0  0  0  0  0  0  0  0  0  0
    1.6091    0.2134    0.0000 H   0  0  0  0  0  0  0  0  0  0  0  0
  1  2  1  0  0  0  0
  2  3  1  0  0  0  0
  3  4  1  0  0  0  0
  3  5  1  0  0  0  0
  5  6  1  0  0  0  0
  6  7  1  0  0  0  0
  7  8  1  0  0  0  0
  7  9  1  0  0  0  0
  3 10  1  0  0  0  0
 10 11  2  0  0  0  0
 10 12  1  0  0  0  0
 12 13  1  0  0  0  0
 13 14  1  0  0  0  0
 14 15  1  0  0  0  0
 15 16  1  0  0  0  0
 14 16  1  0  0  0  0
  1 17  1  0  0  0  0
  1 18  1  0  0  0  0
  1 19  1  0  0  0  0
  2 20  1  0  0  0  0
  2 21  1  0  0  0  0
  4 22  1  0  0  0  0
  4 23  1  0  0  0  0
  4 24  1  0  0  0  0
  5 25  1  0  0  0  0
  5 26  1  0  0  0  0
  6 27  1  0  0  0  0
  6 28  1  0  0  0  0
  7 29  1  0  0  0  0
  8 30  1  0  0  0  0
  8 31  1  0  0  0  0
  8 32  1  0  0  0  0
  9 33  1  0  0  0  0
  9 34  1  0  0  0  0
  9 35  1  0  0  0  0
 13 36  1  0  0  0  0
 13 37  1  0  0  0  0
 14 38  1  0  0  0  0
 15 39  1  0  0  0  0
 15 40  1  0  0  0  0
M  END
>  <InChIKey>
DHEHEJGXTUCSQF-UHFFFAOYSA-N

>  <UN GHS>
Non-irritant

>  <CASRN>
26761-45-5

> <Outcome>
0

>  <Index>
135

>  <StandardizerResult>
Clear Stereo (ID: ClearStereo)
Wedge Clean (ID: WedgeClean)
Mesomerize (ID: Mesomerize)
Tautomerize (ID: Tautomerize)
Add Explicit Hydrogens (ID: AddExplicitH)
Neutralize (ID: Neutralize)
Clean 2D (ID: Clean2D)

> <knn Distance>
3.60555124282837

> <CpId>
135

$$$$
149
  Mrv1532301301811342D          

 20 19  0  0  0  0            999 V2000
    0.9897    1.4431    0.0000 O   0  0  0  0  0  0  0  0  0  0  0  0
    1.7042    1.8556    0.0000 C   0  0  0  0  0  0  0  0  0  0  0  0
    2.4187    1.4431    0.0000 C   0  0  0  0  0  0  0  0  0  0  0  0
    2.4187    0.6181    0.0000 O   0  0  0  0  0  0  0  0  0  0  0  0
    3.1331    1.8556    0.0000 C   0  0  0  0  0  0  0  0  0  0  0  0
    3.8476    1.4431    0.0000 O   0  0  0  0  0  0  0  0  0  0  0  0
    4.5621    1.8556    0.0000 C   0  0  0  0  0  0  0  0  0  0  0  0
    4.5621    2.6806    0.0000 O   0  0  0  0  0  0  0  0  0  0  0  0
    5.2765    1.4431    0.0000 C   0  0  0  0  0  0  0  0  0  0  0  0
    5.9910    1.8556    0.0000 S   0  0  0  0  0  0  0  0  0  0  0  0
    0.2752    1.8556    0.0000 H   0  0  0  0  0  0  0  0  0  0  0  0
    2.0744    2.5929    0.0000 H   0  0  0  0  0  0  0  0  0  0  0  0
    1.3339    2.5929    0.0000 H   0  0  0  0  0  0  0  0  0  0  0  0
    1.7042    1.0306    0.0000 H   0  0  0  0  0  0  0  0  0  0  0  0
    2.8312   -0.0964    0.0000 H   0  0  0  0  0  0  0  0  0  0  0  0
    3.5034    2.5929    0.0000 H   0  0  0  0  0  0  0  0  0  0  0  0
    2.7629    2.5929    0.0000 H   0  0  0  0  0  0  0  0  0  0  0  0
    4.9063    0.7059    0.0000 H   0  0  0  0  0  0  0  0  0  0  0  0
    5.6468    0.7059    0.0000 H   0  0  0  0  0  0  0  0  0  0  0  0
    6.7055    1.4431    0.0000 H   0  0  0  0  0  0  0  0  0  0  0  0
  1  2  1  0  0  0  0
  2  3  1  0  0  0  0
  3  4  1  0  0  0  0
  3  5  1  0  0  0  0
  5  6  1  0  0  0  0
  6  7  1  0  0  0  0
  7  8  2  0  0  0  0
  7  9  1  0  0  0  0
  9 10  1  0  0  0  0
  1 11  1  0  0  0  0
  2 12  1  0  0  0  0
  2 13  1  0  0  0  0
  3 14  1  0  0  0  0
  4 15  1  0  0  0  0
  5 16  1  0  0  0  0
  5 17  1  0  0  0  0
  9 18  1  0  0  0  0
  9 19  1  0  0  0  0
 10 20  1  0  0  0  0
M  END
>  <InChIKey>
DOGJSOZYUGJVKS-UHFFFAOYSA-N

>  <UN GHS>
Non-irritant

>  <CASRN>
30618-84-9

> <Outcome>
0

>  <Index>
149

>  <StandardizerResult>
Clear Stereo (ID: ClearStereo)
Wedge Clean (ID: WedgeClean)
Mesomerize (ID: Mesomerize)
Tautomerize (ID: Tautomerize)
Add Explicit Hydrogens (ID: AddExplicitH)
Neutralize (ID: Neutralize)
Clean 2D (ID: Clean2D)

> <knn Distance>
3.60555124282837

> <CpId>
149

$$$$
202
  Mrv1532301301811342D          

 30 29  0  0  0  0            999 V2000
    2.6122   -0.9682    0.0000 C   0  0  0  0  0  0  0  0  0  0  0  0
    1.8977   -0.5557    0.0000 C   0  0  0  0  0  0  0  0  0  0  0  0
    1.8977    0.2693    0.0000 O   0  0  0  0  0  0  0  0  0  0  0  0
    1.1832    0.6818    0.0000 Si  0  0  0  0  0  0  0  0  0  0  0  0
    0.4688    1.0943    0.0000 O   0  0  0  0  0  0  0  0  0  0  0  0
    0.4688    1.9193    0.0000 C   0  0  0  0  0  0  0  0  0  0  0  0
   -0.2457    2.3318    0.0000 C   0  0  0  0  0  0  0  0  0  0  0  0
    1.5957    1.3963    0.0000 O   0  0  0  0  0  0  0  0  0  0  0  0
    1.1832    2.1108    0.0000 C   0  0  0  0  0  0  0  0  0  0  0  0
    1.5957    2.8252    0.0000 C   0  0  0  0  0  0  0  0  0  0  0  0
    0.7707   -0.0326    0.0000 C   0  0  0  0  0  0  0  0  0  0  0  0
   -0.0543   -0.0326    0.0000 C   0  0  0  0  0  0  0  0  0  0  0  0
    2.1997   -1.6826    0.0000 H   0  0  0  0  0  0  0  0  0  0  0  0
    3.3267   -1.3807    0.0000 H   0  0  0  0  0  0  0  0  0  0  0  0
    3.0247   -0.2537    0.0000 H   0  0  0  0  0  0  0  0  0  0  0  0
    1.0741   -0.6036    0.0000 H   0  0  0  0  0  0  0  0  0  0  0  0
    1.4444   -1.2450    0.0000 H   0  0  0  0  0  0  0  0  0  0  0  0
    0.5765    2.7373    0.0000 H   0  0  0  0  0  0  0  0  0  0  0  0
    1.1233    1.4171    0.0000 H   0  0  0  0  0  0  0  0  0  0  0  0
   -0.4199    3.1382    0.0000 H   0  0  0  0  0  0  0  0  0  0  0  0
   -1.0703    2.3588    0.0000 H   0  0  0  0  0  0  0  0  0  0  0  0
   -0.4722    1.5385    0.0000 H   0  0  0  0  0  0  0  0  0  0  0  0
    1.9585    1.8286    0.0000 H   0  0  0  0  0  0  0  0  0  0  0  0
    1.9585    2.3929    0.0000 H   0  0  0  0  0  0  0  0  0  0  0  0
    2.3579    3.1410    0.0000 H   0  0  0  0  0  0  0  0  0  0  0  0
    1.5238    3.6471    0.0000 H   0  0  0  0  0  0  0  0  0  0  0  0
    0.7903    3.0038    0.0000 H   0  0  0  0  0  0  0  0  0  0  0  0
    1.5956   -0.0472    0.0000 H   0  0  0  0  0  0  0  0  0  0  0  0
   -0.4668    0.6818    0.0000 H   0  0  0  0  0  0  0  0  0  0  0  0
   -0.4668   -0.7471    0.0000 H   0  0  0  0  0  0  0  0  0  0  0  0
  1  2  1  0  0  0  0
  2  3  1  0  0  0  0
  3  4  1  0  0  0  0
  4  5  1  0  0  0  0
  5  6  1  0  0  0  0
  6  7  1  0  0  0  0
  4  8  1  0  0  0  0
  8  9  1  0  0  0  0
  9 10  1  0  0  0  0
  4 11  1  0  0  0  0
 11 12  2  0  0  0  0
  1 13  1  0  0  0  0
  1 14  1  0  0  0  0
  1 15  1  0  0  0  0
  2 16  1  0  0  0  0
  2 17  1  0  0  0  0
  6 18  1  0  0  0  0
  6 19  1  0  0  0  0
  7 20  1  0  0  0  0
  7 21  1  0  0  0  0
  7 22  1  0  0  0  0
  9 23  1  0  0  0  0
  9 24  1  0  0  0  0
 10 25  1  0  0  0  0
 10 26  1  0  0  0  0
 10 27  1  0  0  0  0
 11 28  1  4  0  0  0
 12 29  1  0  0  0  0
 12 30  1  0  0  0  0
M  END
>  <InChIKey>
FWDBOZPQNFPOLF-UHFFFAOYSA-N

>  <UN GHS>
Non-irritant

>  <CASRN>
78-08-0

> <Outcome>
0

>  <Index>
202

>  <StandardizerResult>
Clear Stereo (ID: ClearStereo)
Wedge Clean (ID: WedgeClean)
Mesomerize (ID: Mesomerize)
Tautomerize (ID: Tautomerize)
Add Explicit Hydrogens (ID: AddExplicitH)
Neutralize (ID: Neutralize)
Clean 2D (ID: Clean2D)

> <knn Distance>
3.60555124282837

> <CpId>
202

$$$$
237
  Mrv1532301301811342D          

 37 36  0  0  0  0            999 V2000
    5.4730    3.9849    0.0000 N   0  0  0  0  0  0  0  0  0  0  0  0
    6.1875    3.5724    0.0000 C   0  0  0  0  0  0  0  0  0  0  0  0
    6.9020    3.9849    0.0000 C   0  0  0  0  0  0  0  0  0  0  0  0
    7.6164    3.5724    0.0000 C   0  0  0  0  0  0  0  0  0  0  0  0
    8.3309    3.9849    0.0000 C   0  0  0  0  0  0  0  0  0  0  0  0
    9.0454    3.5724    0.0000 C   0  0  0  0  0  0  0  0  0  0  0  0
    9.7599    3.9849    0.0000 C   0  0  0  0  0  0  0  0  0  0  0  0
   10.4743    3.5724    0.0000 C   0  0  0  0  0  0  0  0  0  0  0  0
   11.1888    3.9849    0.0000 C   0  0  0  0  0  0  0  0  0  0  0  0
   11.9033    3.5724    0.0000 C   0  0  0  0  0  0  0  0  0  0  0  0
   12.6177    3.9849    0.0000 C   0  0  0  0  0  0  0  0  0  0  0  0
   13.3322    3.5724    0.0000 C   0  0  0  0  0  0  0  0  0  0  0  0
   14.0467    3.9849    0.0000 O   0  0  0  0  0  0  0  0  0  0  0  0
   13.3322    2.7474    0.0000 O   0  0  0  0  0  0  0  0  0  0  0  0
    5.4730    4.8099    0.0000 H   0  0  0  0  0  0  0  0  0  0  0  0
    4.7586    3.5724    0.0000 H   0  0  0  0  0  0  0  0  0  0  0  0
    5.8172    2.8352    0.0000 H   0  0  0  0  0  0  0  0  0  0  0  0
    6.5578    2.8352    0.0000 H   0  0  0  0  0  0  0  0  0  0  0  0
    7.2722    4.7221    0.0000 H   0  0  0  0  0  0  0  0  0  0  0  0
    6.5317    4.7221    0.0000 H   0  0  0  0  0  0  0  0  0  0  0  0
    7.2462    2.8352    0.0000 H   0  0  0  0  0  0  0  0  0  0  0  0
    7.9867    2.8352    0.0000 H   0  0  0  0  0  0  0  0  0  0  0  0
    8.7012    4.7221    0.0000 H   0  0  0  0  0  0  0  0  0  0  0  0
    7.9607    4.7221    0.0000 H   0  0  0  0  0  0  0  0  0  0  0  0
    8.6751    2.8352    0.0000 H   0  0  0  0  0  0  0  0  0  0  0  0
    9.4156    2.8352    0.0000 H   0  0  0  0  0  0  0  0  0  0  0  0
   10.1301    4.7221    0.0000 H   0  0  0  0  0  0  0  0  0  0  0  0
    9.3896    4.7221    0.0000 H   0  0  0  0  0  0  0  0  0  0  0  0
   10.1041    2.8352    0.0000 H   0  0  0  0  0  0  0  0  0  0  0  0
   10.8446    2.8352    0.0000 H   0  0  0  0  0  0  0  0  0  0  0  0
   11.5591    4.7221    0.0000 H   0  0  0  0  0  0  0  0  0  0  0  0
   10.8185    4.7221    0.0000 H   0  0  0  0  0  0  0  0  0  0  0  0
   11.5330    2.8352    0.0000 H   0  0  0  0  0  0  0  0  0  0  0  0
   12.2735    2.8352    0.0000 H   0  0  0  0  0  0  0  0  0  0  0  0
   12.9880    4.7221    0.0000 H   0  0  0  0  0  0  0  0  0  0  0  0
   12.2475    4.7221    0.0000 H   0  0  0  0  0  0  0  0  0  0  0  0
   14.7611    3.5724    0.0000 H   0  0  0  0  0  0  0  0  0  0  0  0
  1  2  1  0  0  0  0
  2  3  1  0  0  0  0
  3  4  1  0  0  0  0
  4  5  1  0  0  0  0
  5  6  1  0  0  0  0
  6  7  1  0  0  0  0
  7  8  1  0  0  0  0
  8  9  1  0  0  0  0
  9 10  1  0  0  0  0
 10 11  1  0  0  0  0
 11 12  1  0  0  0  0
 12 13  1  0  0  0  0
 12 14  2  0  0  0  0
  1 15  1  0  0  0  0
  1 16  1  0  0  0  0
  2 17  1  0  0  0  0
  2 18  1  0  0  0  0
  3 19  1  0  0  0  0
  3 20  1  0  0  0  0
  4 21  1  0  0  0  0
  4 22  1  0  0  0  0
  5 23  1  0  0  0  0
  5 24  1  0  0  0  0
  6 25  1  0  0  0  0
  6 26  1  0  0  0  0
  7 27  1  0  0  0  0
  7 28  1  0  0  0  0
  8 29  1  0  0  0  0
  8 30  1  0  0  0  0
  9 31  1  0  0  0  0
  9 32  1  0  0  0  0
 10 33  1  0  0  0  0
 10 34  1  0  0  0  0
 11 35  1  0  0  0  0
 11 36  1  0  0  0  0
 13 37  1  0  0  0  0
M  END
>  <InChIKey>
GUOSQNAUYHMCRU-UHFFFAOYSA-N

>  <UN GHS>
Non-irritant

>  <CASRN>
2432-99-7

> <Outcome>
0

>  <Index>
237

>  <StandardizerResult>
Clear Stereo (ID: ClearStereo)
Wedge Clean (ID: WedgeClean)
Mesomerize (ID: Mesomerize)
Tautomerize (ID: Tautomerize)
Add Explicit Hydrogens (ID: AddExplicitH)
Neutralize (ID: Neutralize)
Clean 2D (ID: Clean2D)

> <knn Distance>
3.60555124282837

> <CpId>
237

$$$$
271
  Mrv1532301301811342D          

 26 25  0  0  0  0            999 V2000
    3.3526    0.2666    0.0000 C   0  0  0  0  0  0  0  0  0  0  0  0
    2.6381    0.6791    0.0000 C   0  0  0  0  0  0  0  0  0  0  0  0
    1.9237    0.2666    0.0000 C   0  0  0  0  0  0  0  0  0  0  0  0
    1.2092    0.6791    0.0000 Si  0  0  0  0  0  0  0  0  0  0  0  0
    0.4947    1.0916    0.0000 O   0  0  0  0  0  0  0  0  0  0  0  0
   -0.2198    0.6791    0.0000 C   0  0  0  0  0  0  0  0  0  0  0  0
    1.6217    1.3936    0.0000 O   0  0  0  0  0  0  0  0  0  0  0  0
    1.2092    2.1080    0.0000 C   0  0  0  0  0  0  0  0  0  0  0  0
    0.7967   -0.0354    0.0000 O   0  0  0  0  0  0  0  0  0  0  0  0
   -0.0283   -0.0354    0.0000 C   0  0  0  0  0  0  0  0  0  0  0  0
    2.9401   -0.4479    0.0000 H   0  0  0  0  0  0  0  0  0  0  0  0
    4.0671   -0.1459    0.0000 H   0  0  0  0  0  0  0  0  0  0  0  0
    3.7651    0.9811    0.0000 H   0  0  0  0  0  0  0  0  0  0  0  0
    3.0084    1.4164    0.0000 H   0  0  0  0  0  0  0  0  0  0  0  0
    2.2679    1.4164    0.0000 H   0  0  0  0  0  0  0  0  0  0  0  0
    1.5534   -0.4706    0.0000 H   0  0  0  0  0  0  0  0  0  0  0  0
    2.2939   -0.4706    0.0000 H   0  0  0  0  0  0  0  0  0  0  0  0
   -0.2737    1.5023    0.0000 H   0  0  0  0  0  0  0  0  0  0  0  0
   -0.9820    0.9948    0.0000 H   0  0  0  0  0  0  0  0  0  0  0  0
   -0.8400    0.1351    0.0000 H   0  0  0  0  0  0  0  0  0  0  0  0
    1.9237    2.5205    0.0000 H   0  0  0  0  0  0  0  0  0  0  0  0
    0.7967    2.8225    0.0000 H   0  0  0  0  0  0  0  0  0  0  0  0
    0.4947    1.6955    0.0000 H   0  0  0  0  0  0  0  0  0  0  0  0
   -0.4061   -0.7688    0.0000 H   0  0  0  0  0  0  0  0  0  0  0  0
    0.1906   -0.8308    0.0000 H   0  0  0  0  0  0  0  0  0  0  0  0
    0.4739    0.6192    0.0000 H   0  0  0  0  0  0  0  0  0  0  0  0
  1  2  1  0  0  0  0
  2  3  1  0  0  0  0
  3  4  1  0  0  0  0
  4  5  1  0  0  0  0
  5  6  1  0  0  0  0
  4  7  1  0  0  0  0
  7  8  1  0  0  0  0
  4  9  1  0  0  0  0
  9 10  1  0  0  0  0
  1 11  1  0  0  0  0
  1 12  1  0  0  0  0
  1 13  1  0  0  0  0
  2 14  1  0  0  0  0
  2 15  1  0  0  0  0
  3 16  1  0  0  0  0
  3 17  1  0  0  0  0
  6 18  1  0  0  0  0
  6 19  1  0  0  0  0
  6 20  1  0  0  0  0
  8 21  1  0  0  0  0
  8 22  1  0  0  0  0
  8 23  1  0  0  0  0
 10 24  1  0  0  0  0
 10 25  1  0  0  0  0
 10 26  1  0  0  0  0
M  END
>  <InChIKey>
HQYALQRYBUJWDH-UHFFFAOYSA-N

>  <UN GHS>
Non-irritant

>  <CASRN>
1067-25-0

> <Outcome>
0

>  <Index>
271

>  <StandardizerResult>
Clear Stereo (ID: ClearStereo)
Wedge Clean (ID: WedgeClean)
Mesomerize (ID: Mesomerize)
Tautomerize (ID: Tautomerize)
Add Explicit Hydrogens (ID: AddExplicitH)
Neutralize (ID: Neutralize)
Clean 2D (ID: Clean2D)

> <knn Distance>
3.60555124282837

> <CpId>
271

$$$$
335
  Mrv1532301301811342D          

 47 48  0  0  0  0            999 V2000
    7.8725   -5.3673    0.0000 C   0  0  0  0  0  0  0  0  0  0  0  0
    7.8725   -6.1923    0.0000 C   0  0  0  0  0  0  0  0  0  0  0  0
    7.1580   -6.6048    0.0000 C   0  0  0  0  0  0  0  0  0  0  0  0
    6.4436   -6.1923    0.0000 O   0  0  0  0  0  0  0  0  0  0  0  0
    5.7291   -6.6048    0.0000 C   0  0  0  0  0  0  0  0  0  0  0  0
    5.0146   -6.1923    0.0000 C   0  0  0  0  0  0  0  0  0  0  0  0
    5.0146   -5.3673    0.0000 C   0  0  0  0  0  0  0  0  0  0  0  0
    4.3001   -6.6048    0.0000 O   0  0  0  0  0  0  0  0  0  0  0  0
    3.5857   -6.1923    0.0000 C   0  0  0  0  0  0  0  0  0  0  0  0
    3.5857   -5.3673    0.0000 O   0  0  0  0  0  0  0  0  0  0  0  0
    2.8712   -6.6048    0.0000 C   0  0  0  0  0  0  0  0  0  0  0  0
    2.8712   -7.4298    0.0000 C   0  0  0  0  0  0  0  0  0  0  0  0
    2.1567   -7.8423    0.0000 C   0  0  0  0  0  0  0  0  0  0  0  0
    1.4423   -7.4298    0.0000 C   0  0  0  0  0  0  0  0  0  0  0  0
    1.4423   -6.6048    0.0000 C   0  0  0  0  0  0  0  0  0  0  0  0
    2.1567   -6.1923    0.0000 C   0  0  0  0  0  0  0  0  0  0  0  0
    8.5870   -6.6048    0.0000 O   0  0  0  0  0  0  0  0  0  0  0  0
    9.3014   -6.1923    0.0000 C   0  0  0  0  0  0  0  0  0  0  0  0
    9.3014   -5.3673    0.0000 O   0  0  0  0  0  0  0  0  0  0  0  0
   10.0159   -6.6048    0.0000 C   0  0  0  0  0  0  0  0  0  0  0  0
   10.7304   -6.1923    0.0000 C   0  0  0  0  0  0  0  0  0  0  0  0
   11.4449   -6.6048    0.0000 C   0  0  0  0  0  0  0  0  0  0  0  0
   11.4449   -7.4298    0.0000 C   0  0  0  0  0  0  0  0  0  0  0  0
   10.7304   -7.8423    0.0000 C   0  0  0  0  0  0  0  0  0  0  0  0
   10.0159   -7.4298    0.0000 C   0  0  0  0  0  0  0  0  0  0  0  0
    8.6975   -5.3673    0.0000 H   0  0  0  0  0  0  0  0  0  0  0  0
    7.8725   -4.5423    0.0000 H   0  0  0  0  0  0  0  0  0  0  0  0
    7.0475   -5.3673    0.0000 H   0  0  0  0  0  0  0  0  0  0  0  0
    7.1580   -5.7798    0.0000 H   0  0  0  0  0  0  0  0  0  0  0  0
    6.7878   -7.3420    0.0000 H   0  0  0  0  0  0  0  0  0  0  0  0
    7.5283   -7.3420    0.0000 H   0  0  0  0  0  0  0  0  0  0  0  0
    5.3588   -7.3420    0.0000 H   0  0  0  0  0  0  0  0  0  0  0  0
    6.0994   -7.3420    0.0000 H   0  0  0  0  0  0  0  0  0  0  0  0
    5.7291   -5.7798    0.0000 H   0  0  0  0  0  0  0  0  0  0  0  0
    5.5980   -4.7839    0.0000 H   0  0  0  0  0  0  0  0  0  0  0  0
    4.6021   -4.6528    0.0000 H   0  0  0  0  0  0  0  0  0  0  0  0
    4.2177   -5.5808    0.0000 H   0  0  0  0  0  0  0  0  0  0  0  0
    3.5857   -7.8423    0.0000 H   0  0  0  0  0  0  0  0  0  0  0  0
    2.1567   -8.6673    0.0000 H   0  0  0  0  0  0  0  0  0  0  0  0
    0.7278   -7.8423    0.0000 H   0  0  0  0  0  0  0  0  0  0  0  0
    0.7278   -6.1923    0.0000 H   0  0  0  0  0  0  0  0  0  0  0  0
    2.1567   -5.3673    0.0000 H   0  0  0  0  0  0  0  0  0  0  0  0
   10.7304   -5.3673    0.0000 H   0  0  0  0  0  0  0  0  0  0  0  0
   12.1593   -6.1923    0.0000 H   0  0  0  0  0  0  0  0  0  0  0  0
   12.1593   -7.8423    0.0000 H   0  0  0  0  0  0  0  0  0  0  0  0
   10.7304   -8.6673    0.0000 H   0  0  0  0  0  0  0  0  0  0  0  0
    9.3014   -7.8423    0.0000 H   0  0  0  0  0  0  0  0  0  0  0  0
  1  2  1  0  0  0  0
  2  3  1  0  0  0  0
  3  4  1  0  0  0  0
  4  5  1  0  0  0  0
  5  6  1  0  0  0  0
  6  7  1  0  0  0  0
  6  8  1  0  0  0  0
  8  9  1  0  0  0  0
  9 10  2  0  0  0  0
  9 11  1  0  0  0  0
 11 12  4  0  0  0  0
 12 13  4  0  0  0  0
 13 14  4  0  0  0  0
 14 15  4  0  0  0  0
 15 16  4  0  0  0  0
 11 16  4  0  0  0  0
  2 17  1  0  0  0  0
 17 18  1  0  0  0  0
 18 19  2  0  0  0  0
 18 20  1  0  0  0  0
 20 21  4  0  0  0  0
 21 22  4  0  0  0  0
 22 23  4  0  0  0  0
 23 24  4  0  0  0  0
 24 25  4  0  0  0  0
 20 25  4  0  0  0  0
  1 26  1  0  0  0  0
  1 27  1  0  0  0  0
  1 28  1  0  0  0  0
  2 29  1  0  0  0  0
  3 30  1  0  0  0  0
  3 31  1  0  0  0  0
  5 32  1  0  0  0  0
  5 33  1  0  0  0  0
  6 34  1  0  0  0  0
  7 35  1  0  0  0  0
  7 36  1  0  0  0  0
  7 37  1  0  0  0  0
 12 38  1  0  0  0  0
 13 39  1  0  0  0  0
 14 40  1  0  0  0  0
 15 41  1  0  0  0  0
 16 42  1  0  0  0  0
 21 43  1  0  0  0  0
 22 44  1  0  0  0  0
 23 45  1  0  0  0  0
 24 46  1  0  0  0  0
 25 47  1  0  0  0  0
M  END
>  <InChIKey>
IZYUWBATGXUSIK-UHFFFAOYSA-N

>  <UN GHS>
Non-irritant

>  <CASRN>
27138-31-4

> <Outcome>
0

>  <Index>
335

>  <StandardizerResult>
Dearomatize (ID: Dearomatize)
Clear Stereo (ID: ClearStereo)
Wedge Clean (ID: WedgeClean)
Mesomerize (ID: Mesomerize)
Tautomerize (ID: Tautomerize)
Aromatize (ID: Aromatize)
Add Explicit Hydrogens (ID: AddExplicitH)
Neutralize (ID: Neutralize)
Clean 2D (ID: Clean2D)

> <knn Distance>
3.60555124282837

> <CpId>
335

$$$$
378
  Mrv1532301301811342D          

 24 25  0  0  0  0            999 V2000
    1.8994    1.9016    0.0000 C   0  0  0  0  0  0  0  0  0  0  0  0
    2.6139    2.3141    0.0000 C   0  0  0  0  0  0  0  0  0  0  0  0
    2.6139    3.1391    0.0000 C   0  0  0  0  0  0  0  0  0  0  0  0
    3.3283    3.5516    0.0000 C   0  0  0  0  0  0  0  0  0  0  0  0
    4.0428    3.1391    0.0000 C   0  0  0  0  0  0  0  0  0  0  0  0
    4.0428    2.3141    0.0000 C   0  0  0  0  0  0  0  0  0  0  0  0
    3.3283    1.9016    0.0000 C   0  0  0  0  0  0  0  0  0  0  0  0
    3.3283    1.0766    0.0000 O   0  0  0  0  0  0  0  0  0  0  0  0
    4.0428    0.6641    0.0000 C   0  0  0  0  0  0  0  0  0  0  0  0
    4.0428   -0.1609    0.0000 C   0  0  0  0  0  0  0  0  0  0  0  0
    4.4553   -0.8754    0.0000 C   0  0  0  0  0  0  0  0  0  0  0  0
    3.6303   -0.8754    0.0000 O   0  0  0  0  0  0  0  0  0  0  0  0
    1.4869    2.6161    0.0000 H   0  0  0  0  0  0  0  0  0  0  0  0
    1.1849    1.4891    0.0000 H   0  0  0  0  0  0  0  0  0  0  0  0
    2.3119    1.1871    0.0000 H   0  0  0  0  0  0  0  0  0  0  0  0
    1.8994    3.5516    0.0000 H   0  0  0  0  0  0  0  0  0  0  0  0
    3.3283    4.3766    0.0000 H   0  0  0  0  0  0  0  0  0  0  0  0
    4.7573    3.5516    0.0000 H   0  0  0  0  0  0  0  0  0  0  0  0
    4.7573    1.9016    0.0000 H   0  0  0  0  0  0  0  0  0  0  0  0
    4.8664    0.7121    0.0000 H   0  0  0  0  0  0  0  0  0  0  0  0
    4.4961    1.3534    0.0000 H   0  0  0  0  0  0  0  0  0  0  0  0
    3.2459    0.0526    0.0000 H   0  0  0  0  0  0  0  0  0  0  0  0
    4.8256   -1.6126    0.0000 H   0  0  0  0  0  0  0  0  0  0  0  0
    5.2789   -0.8274    0.0000 H   0  0  0  0  0  0  0  0  0  0  0  0
  1  2  1  0  0  0  0
  2  3  4  0  0  0  0
  3  4  4  0  0  0  0
  4  5  4  0  0  0  0
  5  6  4  0  0  0  0
  6  7  4  0  0  0  0
  2  7  4  0  0  0  0
  7  8  1  0  0  0  0
  8  9  1  0  0  0  0
  9 10  1  0  0  0  0
 10 11  1  0  0  0  0
 11 12  1  0  0  0  0
 10 12  1  0  0  0  0
  1 13  1  0  0  0  0
  1 14  1  0  0  0  0
  1 15  1  0  0  0  0
  3 16  1  0  0  0  0
  4 17  1  0  0  0  0
  5 18  1  0  0  0  0
  6 19  1  0  0  0  0
  9 20  1  0  0  0  0
  9 21  1  0  0  0  0
 10 22  1  0  0  0  0
 11 23  1  0  0  0  0
 11 24  1  0  0  0  0
M  END
>  <InChIKey>
KFUSXMDYOPXKKT-UHFFFAOYSA-N

>  <UN GHS>
Non-irritant

>  <CASRN>
2210-79-9

> <Outcome>
0

>  <Index>
378

>  <StandardizerResult>
Dearomatize (ID: Dearomatize)
Clear Stereo (ID: ClearStereo)
Wedge Clean (ID: WedgeClean)
Mesomerize (ID: Mesomerize)
Tautomerize (ID: Tautomerize)
Aromatize (ID: Aromatize)
Add Explicit Hydrogens (ID: AddExplicitH)
Neutralize (ID: Neutralize)
Clean 2D (ID: Clean2D)

> <knn Distance>
3.60555124282837

> <CpId>
378

$$$$
394
  Mrv1532301301811342D          

 42 41  0  0  0  0            999 V2000
    0.5616   -2.0138    0.0000 C   0  0  0  0  0  0  0  0  0  0  0  0
    0.5616   -1.1888    0.0000 C   0  0  0  0  0  0  0  0  0  0  0  0
   -0.1529   -0.7763    0.0000 C   0  0  0  0  0  0  0  0  0  0  0  0
    1.2760   -0.7763    0.0000 Si  0  0  0  0  0  0  0  0  0  0  0  0
    1.9905   -0.3638    0.0000 O   0  0  0  0  0  0  0  0  0  0  0  0
    2.7050   -0.7763    0.0000 C   0  0  0  0  0  0  0  0  0  0  0  0
    2.7050   -1.6013    0.0000 O   0  0  0  0  0  0  0  0  0  0  0  0
    3.4195   -0.3638    0.0000 C   0  0  0  0  0  0  0  0  0  0  0  0
    3.4195    0.4612    0.0000 C   0  0  0  0  0  0  0  0  0  0  0  0
    4.1339   -0.7763    0.0000 C   0  0  0  0  0  0  0  0  0  0  0  0
    1.6885   -1.4907    0.0000 C   0  0  0  0  0  0  0  0  0  0  0  0
    2.3560   -1.9756    0.0000 C   0  0  0  0  0  0  0  0  0  0  0  0
    1.2760   -2.2052    0.0000 C   0  0  0  0  0  0  0  0  0  0  0  0
    0.8635   -0.0618    0.0000 C   0  0  0  0  0  0  0  0  0  0  0  0
    1.2760    0.6527    0.0000 C   0  0  0  0  0  0  0  0  0  0  0  0
    0.0385   -0.0618    0.0000 C   0  0  0  0  0  0  0  0  0  0  0  0
   -0.1784   -1.6489    0.0000 H   0  0  0  0  0  0  0  0  0  0  0  0
   -0.0929   -2.5160    0.0000 H   0  0  0  0  0  0  0  0  0  0  0  0
    0.7225   -2.8229    0.0000 H   0  0  0  0  0  0  0  0  0  0  0  0
    0.5616   -0.3638    0.0000 H   0  0  0  0  0  0  0  0  0  0  0  0
   -0.6062   -0.0870    0.0000 H   0  0  0  0  0  0  0  0  0  0  0  0
   -0.9692   -0.6567    0.0000 H   0  0  0  0  0  0  0  0  0  0  0  0
   -0.7849   -1.3065    0.0000 H   0  0  0  0  0  0  0  0  0  0  0  0
    4.2445    0.4612    0.0000 H   0  0  0  0  0  0  0  0  0  0  0  0
    3.4195    1.2862    0.0000 H   0  0  0  0  0  0  0  0  0  0  0  0
    2.5945    0.4612    0.0000 H   0  0  0  0  0  0  0  0  0  0  0  0
    4.1339   -1.6013    0.0000 H   0  0  0  0  0  0  0  0  0  0  0  0
    4.8484   -0.3638    0.0000 H   0  0  0  0  0  0  0  0  0  0  0  0
    2.3016   -0.9387    0.0000 H   0  0  0  0  0  0  0  0  0  0  0  0
    1.6397   -2.3851    0.0000 H   0  0  0  0  0  0  0  0  0  0  0  0
    2.4351   -2.7968    0.0000 H   0  0  0  0  0  0  0  0  0  0  0  0
    3.1372   -2.2407    0.0000 H   0  0  0  0  0  0  0  0  0  0  0  0
    1.4322   -3.0153    0.0000 H   0  0  0  0  0  0  0  0  0  0  0  0
    0.9603   -1.4430    0.0000 H   0  0  0  0  0  0  0  0  0  0  0  0
    2.0656   -1.9662    0.0000 H   0  0  0  0  0  0  0  0  0  0  0  0
    1.6885   -0.0618    0.0000 H   0  0  0  0  0  0  0  0  0  0  0  0
    2.0729    0.8662    0.0000 H   0  0  0  0  0  0  0  0  0  0  0  0
    1.2760    1.4777    0.0000 H   0  0  0  0  0  0  0  0  0  0  0  0
    0.4792    0.8662    0.0000 H   0  0  0  0  0  0  0  0  0  0  0  0
    0.6162    0.5272    0.0000 H   0  0  0  0  0  0  0  0  0  0  0  0
    0.0224    0.7631    0.0000 H   0  0  0  0  0  0  0  0  0  0  0  0
   -0.5617    0.5043    0.0000 H   0  0  0  0  0  0  0  0  0  0  0  0
  1  2  1  0  0  0  0
  2  3  1  0  0  0  0
  2  4  1  0  0  0  0
  4  5  1  0  0  0  0
  5  6  1  0  0  0  0
  6  7  2  0  0  0  0
  6  8  1  0  0  0  0
  8  9  1  0  0  0  0
  8 10  2  0  0  0  0
  4 11  1  0  0  0  0
 11 12  1  0  0  0  0
 11 13  1  0  0  0  0
  4 14  1  0  0  0  0
 14 15  1  0  0  0  0
 14 16  1  0  0  0  0
  1 17  1  0  0  0  0
  1 18  1  0  0  0  0
  1 19  1  0  0  0  0
  2 20  1  0  0  0  0
  3 21  1  0  0  0  0
  3 22  1  0  0  0  0
  3 23  1  0  0  0  0
  9 24  1  0  0  0  0
  9 25  1  0  0  0  0
  9 26  1  0  0  0  0
 10 27  1  0  0  0  0
 10 28  1  0  0  0  0
 11 29  1  0  0  0  0
 12 30  1  0  0  0  0
 12 31  1  0  0  0  0
 12 32  1  0  0  0  0
 13 33  1  0  0  0  0
 13 34  1  0  0  0  0
 13 35  1  0  0  0  0
 14 36  1  0  0  0  0
 15 37  1  0  0  0  0
 15 38  1  0  0  0  0
 15 39  1  0  0  0  0
 16 40  1  0  0  0  0
 16 41  1  0  0  0  0
 16 42  1  0  0  0  0
M  END
>  <InChIKey>
KNNOZYMZRGTZQM-UHFFFAOYSA-N

>  <UN GHS>
Non-irritant

>  <CASRN>
134652-60-1

> <Outcome>
0

>  <Index>
394

>  <StandardizerResult>
Clear Stereo (ID: ClearStereo)
Wedge Clean (ID: WedgeClean)
Mesomerize (ID: Mesomerize)
Tautomerize (ID: Tautomerize)
Add Explicit Hydrogens (ID: AddExplicitH)
Neutralize (ID: Neutralize)
Clean 2D (ID: Clean2D)

> <knn Distance>
3.60555124282837

> <CpId>
394

$$$$
402
  Mrv1532301301811342D          

 35 34  0  0  0  0            999 V2000
    2.2532    3.1224    0.0000 C   0  0  0  0  0  0  0  0  0  0  0  0
    1.5387    2.7099    0.0000 C   0  0  0  0  0  0  0  0  0  0  0  0
    1.5387    1.8849    0.0000 O   0  0  0  0  0  0  0  0  0  0  0  0
    0.8242    1.4724    0.0000 Si  0  0  0  0  0  0  0  0  0  0  0  0
    0.1098    1.0599    0.0000 C   0  0  0  0  0  0  0  0  0  0  0  0
   -0.6047    1.4724    0.0000 C   0  0  0  0  0  0  0  0  0  0  0  0
   -1.3192    1.0599    0.0000 C   0  0  0  0  0  0  0  0  0  0  0  0
   -1.3192    0.2349    0.0000 Cl  0  0  0  0  0  0  0  0  0  0  0  0
    0.4117    2.1869    0.0000 O   0  0  0  0  0  0  0  0  0  0  0  0
   -0.4133    2.1869    0.0000 C   0  0  0  0  0  0  0  0  0  0  0  0
   -0.8258    2.9013    0.0000 C   0  0  0  0  0  0  0  0  0  0  0  0
    1.2367    0.7579    0.0000 O   0  0  0  0  0  0  0  0  0  0  0  0
    0.8242    0.0435    0.0000 C   0  0  0  0  0  0  0  0  0  0  0  0
   -0.0008    0.0435    0.0000 C   0  0  0  0  0  0  0  0  0  0  0  0
    2.6657    2.4079    0.0000 H   0  0  0  0  0  0  0  0  0  0  0  0
    2.9676    3.5349    0.0000 H   0  0  0  0  0  0  0  0  0  0  0  0
    1.8407    3.8369    0.0000 H   0  0  0  0  0  0  0  0  0  0  0  0
    1.0854    3.3992    0.0000 H   0  0  0  0  0  0  0  0  0  0  0  0
    0.7151    2.7579    0.0000 H   0  0  0  0  0  0  0  0  0  0  0  0
   -0.2605    0.3226    0.0000 H   0  0  0  0  0  0  0  0  0  0  0  0
    0.4800    0.3226    0.0000 H   0  0  0  0  0  0  0  0  0  0  0  0
   -1.2592    1.9746    0.0000 H   0  0  0  0  0  0  0  0  0  0  0  0
    0.1575    1.7881    0.0000 H   0  0  0  0  0  0  0  0  0  0  0  0
   -2.0825    1.3728    0.0000 H   0  0  0  0  0  0  0  0  0  0  0  0
   -2.1014    0.7975    0.0000 H   0  0  0  0  0  0  0  0  0  0  0  0
    0.2187    2.7172    0.0000 H   0  0  0  0  0  0  0  0  0  0  0  0
   -0.2700    2.9993    0.0000 H   0  0  0  0  0  0  0  0  0  0  0  0
   -0.7181    3.7193    0.0000 H   0  0  0  0  0  0  0  0  0  0  0  0
   -1.5735    3.2500    0.0000 H   0  0  0  0  0  0  0  0  0  0  0  0
   -1.3831    2.2931    0.0000 H   0  0  0  0  0  0  0  0  0  0  0  0
    0.8722   -0.7802    0.0000 H   0  0  0  0  0  0  0  0  0  0  0  0
    1.5135   -0.4099    0.0000 H   0  0  0  0  0  0  0  0  0  0  0  0
   -0.8140   -0.0955    0.0000 H   0  0  0  0  0  0  0  0  0  0  0  0
   -0.3302   -0.7129    0.0000 H   0  0  0  0  0  0  0  0  0  0  0  0
    0.4514   -0.6466    0.0000 H   0  0  0  0  0  0  0  0  0  0  0  0
  1  2  1  0  0  0  0
  2  3  1  0  0  0  0
  3  4  1  0  0  0  0
  4  5  1  0  0  0  0
  5  6  1  0  0  0  0
  6  7  1  0  0  0  0
  7  8  1  0  0  0  0
  4  9  1  0  0  0  0
  9 10  1  0  0  0  0
 10 11  1  0  0  0  0
  4 12  1  0  0  0  0
 12 13  1  0  0  0  0
 13 14  1  0  0  0  0
  1 15  1  0  0  0  0
  1 16  1  0  0  0  0
  1 17  1  0  0  0  0
  2 18  1  0  0  0  0
  2 19  1  0  0  0  0
  5 20  1  0  0  0  0
  5 21  1  0  0  0  0
  6 22  1  0  0  0  0
  6 23  1  0  0  0  0
  7 24  1  0  0  0  0
  7 25  1  0  0  0  0
 10 26  1  0  0  0  0
 10 27  1  0  0  0  0
 11 28  1  0  0  0  0
 11 29  1  0  0  0  0
 11 30  1  0  0  0  0
 13 31  1  0  0  0  0
 13 32  1  0  0  0  0
 14 33  1  0  0  0  0
 14 34  1  0  0  0  0
 14 35  1  0  0  0  0
M  END
>  <InChIKey>
KSCAZPYHLGGNPZ-UHFFFAOYSA-N

>  <UN GHS>
Non-irritant

>  <CASRN>
5089-70-3

> <Outcome>
0

>  <Index>
402

>  <StandardizerResult>
Clear Stereo (ID: ClearStereo)
Wedge Clean (ID: WedgeClean)
Mesomerize (ID: Mesomerize)
Tautomerize (ID: Tautomerize)
Add Explicit Hydrogens (ID: AddExplicitH)
Neutralize (ID: Neutralize)
Clean 2D (ID: Clean2D)

> <knn Distance>
3.60555124282837

> <CpId>
402

$$$$
418
  Mrv1532301301811342D          

 19 18  0  0  0  0            999 V2000
    1.2317    2.2126    0.0000 C   0  0  0  0  0  0  0  0  0  0  0  0
    0.8192    1.4982    0.0000 C   0  0  0  0  0  0  0  0  0  0  0  0
   -0.0058    1.4982    0.0000 C   0  0  0  0  0  0  0  0  0  0  0  0
    1.2317    0.7837    0.0000 C   0  0  0  0  0  0  0  0  0  0  0  0
    2.0567    0.7837    0.0000 N   0  0  0  0  0  0  0  0  0  0  0  0
    0.8192    0.0692    0.0000 C   0  0  0  0  0  0  0  0  0  0  0  0
    1.2317   -0.6453    0.0000 O   0  0  0  0  0  0  0  0  0  0  0  0
   -0.0058    0.0692    0.0000 O   0  0  0  0  0  0  0  0  0  0  0  0
    1.9462    1.8001    0.0000 H   0  0  0  0  0  0  0  0  0  0  0  0
    1.6442    2.9271    0.0000 H   0  0  0  0  0  0  0  0  0  0  0  0
    0.5173    2.6251    0.0000 H   0  0  0  0  0  0  0  0  0  0  0  0
    0.4067    2.2126    0.0000 H   0  0  0  0  0  0  0  0  0  0  0  0
   -0.5891    2.0815    0.0000 H   0  0  0  0  0  0  0  0  0  0  0  0
   -0.7202    1.0857    0.0000 H   0  0  0  0  0  0  0  0  0  0  0  0
    0.2078    0.7013    0.0000 H   0  0  0  0  0  0  0  0  0  0  0  0
    1.6442    1.4982    0.0000 H   0  0  0  0  0  0  0  0  0  0  0  0
    2.4270    0.0464    0.0000 H   0  0  0  0  0  0  0  0  0  0  0  0
    2.8803    0.8317    0.0000 H   0  0  0  0  0  0  0  0  0  0  0  0
    0.8192   -1.3597    0.0000 H   0  0  0  0  0  0  0  0  0  0  0  0
  1  2  1  0  0  0  0
  2  3  1  0  0  0  0
  2  4  1  0  0  0  0
  4  5  1  0  0  0  0
  4  6  1  0  0  0  0
  6  7  1  0  0  0  0
  6  8  2  0  0  0  0
  1  9  1  0  0  0  0
  1 10  1  0  0  0  0
  1 11  1  0  0  0  0
  2 12  1  0  0  0  0
  3 13  1  0  0  0  0
  3 14  1  0  0  0  0
  3 15  1  0  0  0  0
  4 16  1  0  0  0  0
  5 17  1  0  0  0  0
  5 18  1  0  0  0  0
  7 19  1  0  0  0  0
M  END
>  <InChIKey>
KZSNJWFQEVHDMF-UHFFFAOYSA-N

>  <UN GHS>
Non-irritant

>  <CASRN>
72-18-4

> <Outcome>
0

>  <Index>
418

>  <StandardizerResult>
Clear Stereo (ID: ClearStereo)
Wedge Clean (ID: WedgeClean)
Mesomerize (ID: Mesomerize)
Tautomerize (ID: Tautomerize)
Add Explicit Hydrogens (ID: AddExplicitH)
Neutralize (ID: Neutralize)
Clean 2D (ID: Clean2D)

> <knn Distance>
3.60555124282837

> <CpId>
418

$$$$
507
  Mrv1532301301811342D          

 28 28  0  0  0  0            999 V2000
    0.7578    4.5460    0.0000 C   0  0  0  0  0  0  0  0  0  0  0  0
    0.7578    3.7210    0.0000 C   0  0  0  0  0  0  0  0  0  0  0  0
    0.0434    3.3085    0.0000 C   0  0  0  0  0  0  0  0  0  0  0  0
    0.0434    2.4835    0.0000 C   0  0  0  0  0  0  0  0  0  0  0  0
    0.7578    2.0710    0.0000 C   0  0  0  0  0  0  0  0  0  0  0  0
    0.7578    1.2460    0.0000 C   0  0  0  0  0  0  0  0  0  0  0  0
    1.4723    0.8335    0.0000 C   0  0  0  0  0  0  0  0  0  0  0  0
    1.4723    0.0085    0.0000 C   0  0  0  0  0  0  0  0  0  0  0  0
    0.7578   -0.4040    0.0000 C   0  0  0  0  0  0  0  0  0  0  0  0
    0.0434    0.0085    0.0000 C   0  0  0  0  0  0  0  0  0  0  0  0
   -0.6711   -0.4040    0.0000 O   0  0  0  0  0  0  0  0  0  0  0  0
    0.0434    0.8335    0.0000 O   0  0  0  0  0  0  0  0  0  0  0  0
    1.5828    4.5460    0.0000 H   0  0  0  0  0  0  0  0  0  0  0  0
    0.7578    5.3710    0.0000 H   0  0  0  0  0  0  0  0  0  0  0  0
   -0.0672    4.5460    0.0000 H   0  0  0  0  0  0  0  0  0  0  0  0
    1.4723    3.3085    0.0000 H   0  0  0  0  0  0  0  0  0  0  0  0
   -0.6711    3.7210    0.0000 H   0  0  0  0  0  0  0  0  0  0  0  0
   -0.7802    2.4355    0.0000 H   0  0  0  0  0  0  0  0  0  0  0  0
   -0.4100    1.7942    0.0000 H   0  0  0  0  0  0  0  0  0  0  0  0
    1.5814    2.1189    0.0000 H   0  0  0  0  0  0  0  0  0  0  0  0
    1.2112    2.7602    0.0000 H   0  0  0  0  0  0  0  0  0  0  0  0
    0.0434    1.6585    0.0000 H   0  0  0  0  0  0  0  0  0  0  0  0
    2.2959    0.8814    0.0000 H   0  0  0  0  0  0  0  0  0  0  0  0
    1.9257    1.5227    0.0000 H   0  0  0  0  0  0  0  0  0  0  0  0
    1.9257   -0.6808    0.0000 H   0  0  0  0  0  0  0  0  0  0  0  0
    2.2959   -0.0395    0.0000 H   0  0  0  0  0  0  0  0  0  0  0  0
    0.3876   -1.1413    0.0000 H   0  0  0  0  0  0  0  0  0  0  0  0
    1.1281   -1.1413    0.0000 H   0  0  0  0  0  0  0  0  0  0  0  0
  2  1  1  4  0  0  0
  2  3  2  0  0  0  0
  3  4  1  0  0  0  0
  4  5  1  0  0  0  0
  5  6  1  0  0  0  0
  6  7  1  0  0  0  0
  7  8  1  0  0  0  0
  8  9  1  0  0  0  0
  9 10  1  0  0  0  0
 10 11  2  0  0  0  0
 10 12  1  0  0  0  0
  6 12  1  0  0  0  0
  1 13  1  0  0  0  0
  1 14  1  0  0  0  0
  1 15  1  0  0  0  0
  2 16  1  0  0  0  0
  3 17  1  0  0  0  0
  4 18  1  0  0  0  0
  4 19  1  0  0  0  0
  5 20  1  0  0  0  0
  5 21  1  0  0  0  0
  6 22  1  0  0  0  0
  7 23  1  0  0  0  0
  7 24  1  0  0  0  0
  8 25  1  0  0  0  0
  8 26  1  0  0  0  0
  9 27  1  0  0  0  0
  9 28  1  0  0  0  0
M  END
>  <InChIKey>
NBCMACYORPIYNY-NSCUHMNNSA-N

>  <UN GHS>
Non-irritant

>  <CASRN>
32764-98-0

> <Outcome>
0

>  <Index>
507

>  <StandardizerResult>
Clear Stereo (ID: ClearStereo)
Wedge Clean (ID: WedgeClean)
Mesomerize (ID: Mesomerize)
Tautomerize (ID: Tautomerize)
Add Explicit Hydrogens (ID: AddExplicitH)
Neutralize (ID: Neutralize)
Clean 2D (ID: Clean2D)

> <knn Distance>
3.60555124282837

> <CpId>
507

$$$$
509
  Mrv1532301301811342D          

  8  7  0  0  0  0            999 V2000
    0.8250   -0.8250    0.0000 O   0  0  0  0  0  0  0  0  0  0  0  0
    0.8250    0.0000    0.0000 P   0  0  0  0  0  0  0  0  0  0  0  0
    0.8250    0.8250    0.0000 O   0  0  0  0  0  0  0  0  0  0  0  0
    1.6500   -0.0000    0.0000 O   0  0  0  0  0  0  0  0  0  0  0  0
    0.0000    0.0000    0.0000 O   0  0  0  0  0  0  0  0  0  0  0  0
    0.1105   -1.2375    0.0000 H   0  0  0  0  0  0  0  0  0  0  0  0
    1.5395    1.2375    0.0000 H   0  0  0  0  0  0  0  0  0  0  0  0
    2.0625   -0.7145    0.0000 H   0  0  0  0  0  0  0  0  0  0  0  0
  1  2  1  0  0  0  0
  2  3  1  0  0  0  0
  2  4  1  0  0  0  0
  2  5  2  0  0  0  0
  1  6  1  0  0  0  0
  3  7  1  0  0  0  0
  4  8  1  0  0  0  0
M  END
>  <InChIKey>
NBIIXXVUZAFLBC-UHFFFAOYSA-M

>  <UN GHS>
Non-irritant

>  <CASRN>
7722-76-1

> <Outcome>
0

>  <Index>
509

>  <StandardizerResult>
Clear Stereo (ID: ClearStereo)
Wedge Clean (ID: WedgeClean)
Mesomerize (ID: Mesomerize)
Tautomerize (ID: Tautomerize)
Add Explicit Hydrogens (ID: AddExplicitH)
Neutralize (ID: Neutralize)
Clean 2D (ID: Clean2D)

> <knn Distance>
3.60555124282837

> <CpId>
509

$$$$
524
  Mrv1532301301811342D          

 41 40  0  0  0  0            999 V2000
    1.7819   -1.8300    0.0000 C   0  0  0  0  0  0  0  0  0  0  0  0
    2.4964   -1.4175    0.0000 C   0  0  0  0  0  0  0  0  0  0  0  0
    3.2109   -1.8300    0.0000 C   0  0  0  0  0  0  0  0  0  0  0  0
    3.9254   -1.4175    0.0000 C   0  0  0  0  0  0  0  0  0  0  0  0
    4.6398   -1.8300    0.0000 C   0  0  0  0  0  0  0  0  0  0  0  0
    5.3543   -1.4175    0.0000 C   0  0  0  0  0  0  0  0  0  0  0  0
    6.0688   -1.8300    0.0000 C   0  0  0  0  0  0  0  0  0  0  0  0
    6.7832   -1.4175    0.0000 C   0  0  0  0  0  0  0  0  0  0  0  0
    7.4977   -1.8300    0.0000 Si  0  0  0  0  0  0  0  0  0  0  0  0
    8.2122   -2.2425    0.0000 O   0  0  0  0  0  0  0  0  0  0  0  0
    8.9266   -1.8300    0.0000 C   0  0  0  0  0  0  0  0  0  0  0  0
    7.0852   -2.5445    0.0000 O   0  0  0  0  0  0  0  0  0  0  0  0
    7.4977   -3.2590    0.0000 C   0  0  0  0  0  0  0  0  0  0  0  0
    7.9102   -1.1156    0.0000 O   0  0  0  0  0  0  0  0  0  0  0  0
    8.7352   -1.1156    0.0000 C   0  0  0  0  0  0  0  0  0  0  0  0
    1.3694   -1.1156    0.0000 H   0  0  0  0  0  0  0  0  0  0  0  0
    1.0675   -2.2425    0.0000 H   0  0  0  0  0  0  0  0  0  0  0  0
    2.1944   -2.5445    0.0000 H   0  0  0  0  0  0  0  0  0  0  0  0
    2.8667   -0.6803    0.0000 H   0  0  0  0  0  0  0  0  0  0  0  0
    2.1262   -0.6803    0.0000 H   0  0  0  0  0  0  0  0  0  0  0  0
    2.8406   -2.5673    0.0000 H   0  0  0  0  0  0  0  0  0  0  0  0
    3.5811   -2.5673    0.0000 H   0  0  0  0  0  0  0  0  0  0  0  0
    4.2956   -0.6803    0.0000 H   0  0  0  0  0  0  0  0  0  0  0  0
    3.5551   -0.6803    0.0000 H   0  0  0  0  0  0  0  0  0  0  0  0
    4.2696   -2.5673    0.0000 H   0  0  0  0  0  0  0  0  0  0  0  0
    5.0101   -2.5673    0.0000 H   0  0  0  0  0  0  0  0  0  0  0  0
    5.7246   -0.6803    0.0000 H   0  0  0  0  0  0  0  0  0  0  0  0
    4.9840   -0.6803    0.0000 H   0  0  0  0  0  0  0  0  0  0  0  0
    5.6985   -2.5673    0.0000 H   0  0  0  0  0  0  0  0  0  0  0  0
    6.4390   -2.5673    0.0000 H   0  0  0  0  0  0  0  0  0  0  0  0
    7.1535   -0.6803    0.0000 H   0  0  0  0  0  0  0  0  0  0  0  0
    6.4130   -0.6803    0.0000 H   0  0  0  0  0  0  0  0  0  0  0  0
    8.9806   -2.6533    0.0000 H   0  0  0  0  0  0  0  0  0  0  0  0
    9.6889   -2.1457    0.0000 H   0  0  0  0  0  0  0  0  0  0  0  0
    9.5469   -1.2861    0.0000 H   0  0  0  0  0  0  0  0  0  0  0  0
    6.7832   -3.6715    0.0000 H   0  0  0  0  0  0  0  0  0  0  0  0
    7.9102   -3.9734    0.0000 H   0  0  0  0  0  0  0  0  0  0  0  0
    8.2122   -2.8465    0.0000 H   0  0  0  0  0  0  0  0  0  0  0  0
    9.1130   -0.3821    0.0000 H   0  0  0  0  0  0  0  0  0  0  0  0
    8.5163   -0.3201    0.0000 H   0  0  0  0  0  0  0  0  0  0  0  0
    8.2330   -1.7701    0.0000 H   0  0  0  0  0  0  0  0  0  0  0  0
  1  2  1  0  0  0  0
  2  3  1  0  0  0  0
  3  4  1  0  0  0  0
  4  5  1  0  0  0  0
  5  6  1  0  0  0  0
  6  7  1  0  0  0  0
  7  8  1  0  0  0  0
  8  9  1  0  0  0  0
  9 10  1  0  0  0  0
 10 11  1  0  0  0  0
  9 12  1  0  0  0  0
 12 13  1  0  0  0  0
  9 14  1  0  0  0  0
 14 15  1  0  0  0  0
  1 16  1  0  0  0  0
  1 17  1  0  0  0  0
  1 18  1  0  0  0  0
  2 19  1  0  0  0  0
  2 20  1  0  0  0  0
  3 21  1  0  0  0  0
  3 22  1  0  0  0  0
  4 23  1  0  0  0  0
  4 24  1  0  0  0  0
  5 25  1  0  0  0  0
  5 26  1  0  0  0  0
  6 27  1  0  0  0  0
  6 28  1  0  0  0  0
  7 29  1  0  0  0  0
  7 30  1  0  0  0  0
  8 31  1  0  0  0  0
  8 32  1  0  0  0  0
 11 33  1  0  0  0  0
 11 34  1  0  0  0  0
 11 35  1  0  0  0  0
 13 36  1  0  0  0  0
 13 37  1  0  0  0  0
 13 38  1  0  0  0  0
 15 39  1  0  0  0  0
 15 40  1  0  0  0  0
 15 41  1  0  0  0  0
M  END
>  <InChIKey>
NMEPHPOFYLLFTK-UHFFFAOYSA-N

>  <UN GHS>
Non-irritant

>  <CASRN>
3069-40-7

> <Outcome>
0

>  <Index>
524

>  <StandardizerResult>
Clear Stereo (ID: ClearStereo)
Wedge Clean (ID: WedgeClean)
Mesomerize (ID: Mesomerize)
Tautomerize (ID: Tautomerize)
Add Explicit Hydrogens (ID: AddExplicitH)
Neutralize (ID: Neutralize)
Clean 2D (ID: Clean2D)

> <knn Distance>
3.60555124282837

> <CpId>
524

$$$$
539
  Mrv1532301301811342D          

 41 42  0  0  0  0            999 V2000
    0.7145   -2.0625    0.0000 O   0  0  0  0  0  0  0  0  0  0  0  0
    0.7145   -1.2375    0.0000 C   0  0  0  0  0  0  0  0  0  0  0  0
    1.4289   -0.8250    0.0000 O   0  0  0  0  0  0  0  0  0  0  0  0
    2.1434   -1.2375    0.0000 C   0  0  0  0  0  0  0  0  0  0  0  0
    2.8579   -0.8250    0.0000 C   0  0  0  0  0  0  0  0  0  0  0  0
    3.5724   -1.2375    0.0000 O   0  0  0  0  0  0  0  0  0  0  0  0
    4.2868   -0.8250    0.0000 C   0  0  0  0  0  0  0  0  0  0  0  0
    5.0013   -1.2375    0.0000 C   0  0  0  0  0  0  0  0  0  0  0  0
    5.7158   -0.8250    0.0000 O   0  0  0  0  0  0  0  0  0  0  0  0
    6.4302   -1.2375    0.0000 C   0  0  0  0  0  0  0  0  0  0  0  0
    6.4302   -2.0625    0.0000 O   0  0  0  0  0  0  0  0  0  0  0  0
    7.1447   -0.8250    0.0000 C   0  0  0  0  0  0  0  0  0  0  0  0
    7.1447    0.0000    0.0000 C   0  0  0  0  0  0  0  0  0  0  0  0
    7.8592    0.4125    0.0000 C   0  0  0  0  0  0  0  0  0  0  0  0
    8.5737    0.0000    0.0000 C   0  0  0  0  0  0  0  0  0  0  0  0
    8.5737   -0.8250    0.0000 C   0  0  0  0  0  0  0  0  0  0  0  0
    7.8592   -1.2375    0.0000 C   0  0  0  0  0  0  0  0  0  0  0  0
    0.0000   -0.8250    0.0000 C   0  0  0  0  0  0  0  0  0  0  0  0
   -0.7145   -1.2375    0.0000 C   0  0  0  0  0  0  0  0  0  0  0  0
   -1.4289   -0.8250    0.0000 C   0  0  0  0  0  0  0  0  0  0  0  0
   -1.4289    0.0000    0.0000 C   0  0  0  0  0  0  0  0  0  0  0  0
   -0.7145    0.4125    0.0000 C   0  0  0  0  0  0  0  0  0  0  0  0
    0.0000    0.0000    0.0000 C   0  0  0  0  0  0  0  0  0  0  0  0
    1.7732   -1.9747    0.0000 H   0  0  0  0  0  0  0  0  0  0  0  0
    2.5137   -1.9747    0.0000 H   0  0  0  0  0  0  0  0  0  0  0  0
    3.2281   -0.0878    0.0000 H   0  0  0  0  0  0  0  0  0  0  0  0
    2.4876   -0.0878    0.0000 H   0  0  0  0  0  0  0  0  0  0  0  0
    4.6571   -0.0878    0.0000 H   0  0  0  0  0  0  0  0  0  0  0  0
    3.9166   -0.0878    0.0000 H   0  0  0  0  0  0  0  0  0  0  0  0
    4.6310   -1.9747    0.0000 H   0  0  0  0  0  0  0  0  0  0  0  0
    5.3716   -1.9747    0.0000 H   0  0  0  0  0  0  0  0  0  0  0  0
    6.4302    0.4125    0.0000 H   0  0  0  0  0  0  0  0  0  0  0  0
    7.8592    1.2375    0.0000 H   0  0  0  0  0  0  0  0  0  0  0  0
    9.2881    0.4125    0.0000 H   0  0  0  0  0  0  0  0  0  0  0  0
    9.2881   -1.2375    0.0000 H   0  0  0  0  0  0  0  0  0  0  0  0
    7.8592   -2.0625    0.0000 H   0  0  0  0  0  0  0  0  0  0  0  0
   -0.7145   -2.0625    0.0000 H   0  0  0  0  0  0  0  0  0  0  0  0
   -2.1434   -1.2375    0.0000 H   0  0  0  0  0  0  0  0  0  0  0  0
   -2.1434    0.4125    0.0000 H   0  0  0  0  0  0  0  0  0  0  0  0
   -0.7145    1.2375    0.0000 H   0  0  0  0  0  0  0  0  0  0  0  0
    0.7145    0.4125    0.0000 H   0  0  0  0  0  0  0  0  0  0  0  0
  1  2  2  0  0  0  0
  2  3  1  0  0  0  0
  3  4  1  0  0  0  0
  4  5  1  0  0  0  0
  5  6  1  0  0  0  0
  6  7  1  0  0  0  0
  7  8  1  0  0  0  0
  8  9  1  0  0  0  0
  9 10  1  0  0  0  0
 10 11  2  0  0  0  0
 10 12  1  0  0  0  0
 12 13  4  0  0  0  0
 13 14  4  0  0  0  0
 14 15  4  0  0  0  0
 15 16  4  0  0  0  0
 16 17  4  0  0  0  0
 12 17  4  0  0  0  0
  2 18  1  0  0  0  0
 18 19  4  0  0  0  0
 19 20  4  0  0  0  0
 20 21  4  0  0  0  0
 21 22  4  0  0  0  0
 22 23  4  0  0  0  0
 18 23  4  0  0  0  0
  4 24  1  0  0  0  0
  4 25  1  0  0  0  0
  5 26  1  0  0  0  0
  5 27  1  0  0  0  0
  7 28  1  0  0  0  0
  7 29  1  0  0  0  0
  8 30  1  0  0  0  0
  8 31  1  0  0  0  0
 13 32  1  0  0  0  0
 14 33  1  0  0  0  0
 15 34  1  0  0  0  0
 16 35  1  0  0  0  0
 17 36  1  0  0  0  0
 19 37  1  0  0  0  0
 20 38  1  0  0  0  0
 21 39  1  0  0  0  0
 22 40  1  0  0  0  0
 23 41  1  0  0  0  0
M  END
>  <InChIKey>
NXQMCAOPTPLPRL-UHFFFAOYSA-N

>  <UN GHS>
Non-irritant

>  <CASRN>
120-55-8

> <Outcome>
0

>  <Index>
539

>  <StandardizerResult>
Dearomatize (ID: Dearomatize)
Clear Stereo (ID: ClearStereo)
Wedge Clean (ID: WedgeClean)
Mesomerize (ID: Mesomerize)
Tautomerize (ID: Tautomerize)
Aromatize (ID: Aromatize)
Add Explicit Hydrogens (ID: AddExplicitH)
Neutralize (ID: Neutralize)
Clean 2D (ID: Clean2D)

> <knn Distance>
3.60555124282837

> <CpId>
539

$$$$
581
  Mrv1532301301811342D          

 49 50  0  0  0  0            999 V2000
    0.6657    0.3631    0.0000 C   0  0  0  0  0  0  0  0  0  0  0  0
    1.3801   -0.0494    0.0000 C   0  0  0  0  0  0  0  0  0  0  0  0
    0.9676   -0.7639    0.0000 C   0  0  0  0  0  0  0  0  0  0  0  0
    1.7926    0.6650    0.0000 O   0  0  0  0  0  0  0  0  0  0  0  0
    2.0946   -0.4619    0.0000 C   0  0  0  0  0  0  0  0  0  0  0  0
    2.8091   -0.0494    0.0000 O   0  0  0  0  0  0  0  0  0  0  0  0
    2.0946   -1.2869    0.0000 C   0  0  0  0  0  0  0  0  0  0  0  0
    2.8091   -1.6994    0.0000 C   0  0  0  0  0  0  0  0  0  0  0  0
    2.8091   -2.5244    0.0000 C   0  0  0  0  0  0  0  0  0  0  0  0
    2.0946   -2.9369    0.0000 C   0  0  0  0  0  0  0  0  0  0  0  0
    2.0946   -3.7619    0.0000 C   0  0  0  0  0  0  0  0  0  0  0  0
    1.3801   -4.1744    0.0000 C   0  0  0  0  0  0  0  0  0  0  0  0
    1.3801   -4.9994    0.0000 C   0  0  0  0  0  0  0  0  0  0  0  0
    0.6657   -5.4119    0.0000 C   0  0  0  0  0  0  0  0  0  0  0  0
   -0.0488   -4.9994    0.0000 C   0  0  0  0  0  0  0  0  0  0  0  0
   -0.0488   -4.1744    0.0000 C   0  0  0  0  0  0  0  0  0  0  0  0
    0.6657   -3.7619    0.0000 C   0  0  0  0  0  0  0  0  0  0  0  0
   -0.7633   -5.4119    0.0000 C   0  0  0  0  0  0  0  0  0  0  0  0
   -1.4778   -4.9994    0.0000 O   0  0  0  0  0  0  0  0  0  0  0  0
   -0.7633   -6.2369    0.0000 C   0  0  0  0  0  0  0  0  0  0  0  0
   -0.7633   -7.0619    0.0000 C   0  0  0  0  0  0  0  0  0  0  0  0
   -1.5883   -6.2369    0.0000 C   0  0  0  0  0  0  0  0  0  0  0  0
    0.0617   -6.2369    0.0000 O   0  0  0  0  0  0  0  0  0  0  0  0
    1.3801   -2.5244    0.0000 C   0  0  0  0  0  0  0  0  0  0  0  0
    1.3801   -1.6994    0.0000 C   0  0  0  0  0  0  0  0  0  0  0  0
    1.0782    1.0775    0.0000 H   0  0  0  0  0  0  0  0  0  0  0  0
   -0.0488    0.7756    0.0000 H   0  0  0  0  0  0  0  0  0  0  0  0
    0.2532   -0.3514    0.0000 H   0  0  0  0  0  0  0  0  0  0  0  0
    0.3131   -1.2661    0.0000 H   0  0  0  0  0  0  0  0  0  0  0  0
    1.1812   -1.5608    0.0000 H   0  0  0  0  0  0  0  0  0  0  0  0
    1.7856   -0.8716    0.0000 H   0  0  0  0  0  0  0  0  0  0  0  0
    2.5895    0.8785    0.0000 H   0  0  0  0  0  0  0  0  0  0  0  0
    3.5235   -1.2869    0.0000 H   0  0  0  0  0  0  0  0  0  0  0  0
    3.5235   -2.9369    0.0000 H   0  0  0  0  0  0  0  0  0  0  0  0
    2.5479   -4.4512    0.0000 H   0  0  0  0  0  0  0  0  0  0  0  0
    2.9182   -3.8099    0.0000 H   0  0  0  0  0  0  0  0  0  0  0  0
    2.0946   -5.4119    0.0000 H   0  0  0  0  0  0  0  0  0  0  0  0
    0.6657   -6.2369    0.0000 H   0  0  0  0  0  0  0  0  0  0  0  0
   -0.7633   -3.7619    0.0000 H   0  0  0  0  0  0  0  0  0  0  0  0
    0.6657   -2.9369    0.0000 H   0  0  0  0  0  0  0  0  0  0  0  0
   -1.5883   -7.0619    0.0000 H   0  0  0  0  0  0  0  0  0  0  0  0
   -0.7633   -7.8869    0.0000 H   0  0  0  0  0  0  0  0  0  0  0  0
    0.0617   -7.0619    0.0000 H   0  0  0  0  0  0  0  0  0  0  0  0
   -1.2726   -5.4747    0.0000 H   0  0  0  0  0  0  0  0  0  0  0  0
   -2.1716   -5.6536    0.0000 H   0  0  0  0  0  0  0  0  0  0  0  0
   -2.3505   -6.5527    0.0000 H   0  0  0  0  0  0  0  0  0  0  0  0
    0.0617   -5.4119    0.0000 H   0  0  0  0  0  0  0  0  0  0  0  0
    0.6657   -2.1119    0.0000 H   0  0  0  0  0  0  0  0  0  0  0  0
    2.0946   -2.1119    0.0000 H   0  0  0  0  0  0  0  0  0  0  0  0
  1  2  1  0  0  0  0
  2  3  1  0  0  0  0
  2  4  1  0  0  0  0
  2  5  1  0  0  0  0
  5  6  2  0  0  0  0
  5  7  1  0  0  0  0
  7  8  4  0  0  0  0
  8  9  4  0  0  0  0
  9 10  4  0  0  0  0
 10 11  1  0  0  0  0
 11 12  1  0  0  0  0
 12 13  4  0  0  0  0
 13 14  4  0  0  0  0
 14 15  4  0  0  0  0
 15 16  4  0  0  0  0
 16 17  4  0  0  0  0
 12 17  4  0  0  0  0
 15 18  1  0  0  0  0
 18 19  2  0  0  0  0
 18 20  1  0  0  0  0
 20 21  1  0  0  0  0
 20 22  1  0  0  0  0
 20 23  1  0  0  0  0
 10 24  4  0  0  0  0
 24 25  4  0  0  0  0
  7 25  4  0  0  0  0
  1 26  1  0  0  0  0
  1 27  1  0  0  0  0
  1 28  1  0  0  0  0
  3 29  1  0  0  0  0
  3 30  1  0  0  0  0
  3 31  1  0  0  0  0
  4 32  1  0  0  0  0
  8 33  1  0  0  0  0
  9 34  1  0  0  0  0
 11 35  1  0  0  0  0
 11 36  1  0  0  0  0
 13 37  1  0  0  0  0
 14 38  1  0  0  0  0
 16 39  1  0  0  0  0
 17 40  1  0  0  0  0
 21 41  1  0  0  0  0
 21 42  1  0  0  0  0
 21 43  1  0  0  0  0
 22 44  1  0  0  0  0
 22 45  1  0  0  0  0
 22 46  1  0  0  0  0
 23 47  1  0  0  0  0
 24 48  1  0  0  0  0
 25 49  1  0  0  0  0
M  END
>  <InChIKey>
PCKZAVNWRLEHIP-UHFFFAOYSA-N

>  <UN GHS>
Non-irritant

>  <CASRN>
474510-57-1

> <Outcome>
0

>  <Index>
581

>  <StandardizerResult>
Dearomatize (ID: Dearomatize)
Clear Stereo (ID: ClearStereo)
Wedge Clean (ID: WedgeClean)
Mesomerize (ID: Mesomerize)
Tautomerize (ID: Tautomerize)
Aromatize (ID: Aromatize)
Add Explicit Hydrogens (ID: AddExplicitH)
Neutralize (ID: Neutralize)
Clean 2D (ID: Clean2D)

> <knn Distance>
3.60555124282837

> <CpId>
581

$$$$
646
  Mrv1532301301811342D          

 31 32  0  0  0  0            999 V2000
    1.7761   -0.0457    0.0000 O   0  0  0  0  0  0  0  0  0  0  0  0
    2.3064   -0.6777    0.0000 C   0  0  0  0  0  0  0  0  0  0  0  0
    3.0209   -1.0902    0.0000 C   0  0  0  0  0  0  0  0  0  0  0  0
    3.0209   -1.9152    0.0000 C   0  0  0  0  0  0  0  0  0  0  0  0
    2.3064   -2.3277    0.0000 C   0  0  0  0  0  0  0  0  0  0  0  0
    1.5920   -1.9152    0.0000 C   0  0  0  0  0  0  0  0  0  0  0  0
    1.5920   -1.0902    0.0000 C   0  0  0  0  0  0  0  0  0  0  0  0
    2.8367   -0.0457    0.0000 C   0  0  0  0  0  0  0  0  0  0  0  0
    2.5546    0.7296    0.0000 O   0  0  0  0  0  0  0  0  0  0  0  0
    3.6492   -0.1889    0.0000 C   0  0  0  0  0  0  0  0  0  0  0  0
    4.1795    0.4431    0.0000 C   0  0  0  0  0  0  0  0  0  0  0  0
    4.9920    0.2998    0.0000 C   0  0  0  0  0  0  0  0  0  0  0  0
    5.2741   -0.4755    0.0000 C   0  0  0  0  0  0  0  0  0  0  0  0
    4.7438   -1.1074    0.0000 C   0  0  0  0  0  0  0  0  0  0  0  0
    3.9314   -0.9642    0.0000 C   0  0  0  0  0  0  0  0  0  0  0  0
    2.0583    0.7296    0.0000 H   0  0  0  0  0  0  0  0  0  0  0  0
    3.1792   -0.2805    0.0000 H   0  0  0  0  0  0  0  0  0  0  0  0
    2.3064   -1.5027    0.0000 H   0  0  0  0  0  0  0  0  0  0  0  0
    3.4743   -2.6044    0.0000 H   0  0  0  0  0  0  0  0  0  0  0  0
    3.8445   -1.9631    0.0000 H   0  0  0  0  0  0  0  0  0  0  0  0
    1.9362   -3.0649    0.0000 H   0  0  0  0  0  0  0  0  0  0  0  0
    2.6767   -3.0649    0.0000 H   0  0  0  0  0  0  0  0  0  0  0  0
    0.7684   -1.9631    0.0000 H   0  0  0  0  0  0  0  0  0  0  0  0
    1.1386   -2.6044    0.0000 H   0  0  0  0  0  0  0  0  0  0  0  0
    1.1386   -0.4009    0.0000 H   0  0  0  0  0  0  0  0  0  0  0  0
    0.7684   -1.0422    0.0000 H   0  0  0  0  0  0  0  0  0  0  0  0
    3.8973    1.2183    0.0000 H   0  0  0  0  0  0  0  0  0  0  0  0
    5.5223    0.9318    0.0000 H   0  0  0  0  0  0  0  0  0  0  0  0
    6.0866   -0.6187    0.0000 H   0  0  0  0  0  0  0  0  0  0  0  0
    5.0260   -1.8827    0.0000 H   0  0  0  0  0  0  0  0  0  0  0  0
    3.9161   -1.7890    0.0000 H   0  0  0  0  0  0  0  0  0  0  0  0
  1  2  1  0  0  0  0
  2  3  1  0  0  0  0
  3  4  1  0  0  0  0
  4  5  1  0  0  0  0
  5  6  1  0  0  0  0
  6  7  1  0  0  0  0
  2  7  1  0  0  0  0
  2  8  1  0  0  0  0
  8  9  2  0  0  0  0
  8 10  1  0  0  0  0
 10 11  4  0  0  0  0
 11 12  4  0  0  0  0
 12 13  4  0  0  0  0
 13 14  4  0  0  0  0
 14 15  4  0  0  0  0
 10 15  4  0  0  0  0
  1 16  1  0  0  0  0
  3 17  1  0  0  0  0
  3 18  1  0  0  0  0
  4 19  1  0  0  0  0
  4 20  1  0  0  0  0
  5 21  1  0  0  0  0
  5 22  1  0  0  0  0
  6 23  1  0  0  0  0
  6 24  1  0  0  0  0
  7 25  1  0  0  0  0
  7 26  1  0  0  0  0
 11 27  1  0  0  0  0
 12 28  1  0  0  0  0
 13 29  1  0  0  0  0
 14 30  1  0  0  0  0
 15 31  1  0  0  0  0
M  END
>  <InChIKey>
QNODIIQQMGDSEF-UHFFFAOYSA-N

>  <UN GHS>
Non-irritant

>  <CASRN>
947-19-3

> <Outcome>
0

>  <Index>
646

>  <StandardizerResult>
Dearomatize (ID: Dearomatize)
Clear Stereo (ID: ClearStereo)
Wedge Clean (ID: WedgeClean)
Mesomerize (ID: Mesomerize)
Tautomerize (ID: Tautomerize)
Aromatize (ID: Aromatize)
Add Explicit Hydrogens (ID: AddExplicitH)
Neutralize (ID: Neutralize)
Clean 2D (ID: Clean2D)

> <knn Distance>
3.60555124282837

> <CpId>
646

$$$$
687
  Mrv1532301301811342D          

 65 64  0  0  0  0            999 V2000
    6.7109   -4.7102    0.0000 C   0  0  0  0  0  0  0  0  0  0  0  0
    7.4254   -4.2977    0.0000 C   0  0  0  0  0  0  0  0  0  0  0  0
    8.1398   -4.7102    0.0000 C   0  0  0  0  0  0  0  0  0  0  0  0
    8.8543   -4.2977    0.0000 C   0  0  0  0  0  0  0  0  0  0  0  0
    9.5688   -4.7102    0.0000 C   0  0  0  0  0  0  0  0  0  0  0  0
   10.2833   -4.2977    0.0000 C   0  0  0  0  0  0  0  0  0  0  0  0
   10.9977   -4.7102    0.0000 C   0  0  0  0  0  0  0  0  0  0  0  0
   11.7122   -4.2977    0.0000 C   0  0  0  0  0  0  0  0  0  0  0  0
   12.4267   -4.7102    0.0000 C   0  0  0  0  0  0  0  0  0  0  0  0
   13.1411   -4.2977    0.0000 C   0  0  0  0  0  0  0  0  0  0  0  0
   13.8556   -4.7102    0.0000 C   0  0  0  0  0  0  0  0  0  0  0  0
   14.5701   -4.2977    0.0000 C   0  0  0  0  0  0  0  0  0  0  0  0
   15.2845   -4.7102    0.0000 C   0  0  0  0  0  0  0  0  0  0  0  0
   15.9990   -4.2977    0.0000 C   0  0  0  0  0  0  0  0  0  0  0  0
   16.7135   -4.7102    0.0000 C   0  0  0  0  0  0  0  0  0  0  0  0
   17.4280   -4.2977    0.0000 C   0  0  0  0  0  0  0  0  0  0  0  0
   18.1424   -4.7102    0.0000 Si  0  0  0  0  0  0  0  0  0  0  0  0
   18.8569   -5.1227    0.0000 O   0  0  0  0  0  0  0  0  0  0  0  0
   19.5714   -4.7102    0.0000 C   0  0  0  0  0  0  0  0  0  0  0  0
   17.7299   -5.4246    0.0000 O   0  0  0  0  0  0  0  0  0  0  0  0
   18.1424   -6.1391    0.0000 C   0  0  0  0  0  0  0  0  0  0  0  0
   18.5549   -3.9957    0.0000 O   0  0  0  0  0  0  0  0  0  0  0  0
   19.3799   -3.9957    0.0000 C   0  0  0  0  0  0  0  0  0  0  0  0
    6.2984   -3.9957    0.0000 H   0  0  0  0  0  0  0  0  0  0  0  0
    5.9964   -5.1227    0.0000 H   0  0  0  0  0  0  0  0  0  0  0  0
    7.1234   -5.4246    0.0000 H   0  0  0  0  0  0  0  0  0  0  0  0
    7.7956   -3.5604    0.0000 H   0  0  0  0  0  0  0  0  0  0  0  0
    7.0551   -3.5604    0.0000 H   0  0  0  0  0  0  0  0  0  0  0  0
    7.7696   -5.4474    0.0000 H   0  0  0  0  0  0  0  0  0  0  0  0
    8.5101   -5.4474    0.0000 H   0  0  0  0  0  0  0  0  0  0  0  0
    9.2246   -3.5604    0.0000 H   0  0  0  0  0  0  0  0  0  0  0  0
    8.4841   -3.5604    0.0000 H   0  0  0  0  0  0  0  0  0  0  0  0
    9.1985   -5.4474    0.0000 H   0  0  0  0  0  0  0  0  0  0  0  0
    9.9390   -5.4474    0.0000 H   0  0  0  0  0  0  0  0  0  0  0  0
   10.6535   -3.5604    0.0000 H   0  0  0  0  0  0  0  0  0  0  0  0
    9.9130   -3.5604    0.0000 H   0  0  0  0  0  0  0  0  0  0  0  0
   10.6275   -5.4474    0.0000 H   0  0  0  0  0  0  0  0  0  0  0  0
   11.3680   -5.4474    0.0000 H   0  0  0  0  0  0  0  0  0  0  0  0
   12.0825   -3.5604    0.0000 H   0  0  0  0  0  0  0  0  0  0  0  0
   11.3419   -3.5604    0.0000 H   0  0  0  0  0  0  0  0  0  0  0  0
   12.0564   -5.4474    0.0000 H   0  0  0  0  0  0  0  0  0  0  0  0
   12.7969   -5.4474    0.0000 H   0  0  0  0  0  0  0  0  0  0  0  0
   13.5114   -3.5604    0.0000 H   0  0  0  0  0  0  0  0  0  0  0  0
   12.7709   -3.5604    0.0000 H   0  0  0  0  0  0  0  0  0  0  0  0
   13.4853   -5.4474    0.0000 H   0  0  0  0  0  0  0  0  0  0  0  0
   14.2259   -5.4474    0.0000 H   0  0  0  0  0  0  0  0  0  0  0  0
   14.9403   -3.5604    0.0000 H   0  0  0  0  0  0  0  0  0  0  0  0
   14.1998   -3.5604    0.0000 H   0  0  0  0  0  0  0  0  0  0  0  0
   14.9143   -5.4474    0.0000 H   0  0  0  0  0  0  0  0  0  0  0  0
   15.6548   -5.4474    0.0000 H   0  0  0  0  0  0  0  0  0  0  0  0
   16.3693   -3.5604    0.0000 H   0  0  0  0  0  0  0  0  0  0  0  0
   15.6288   -3.5604    0.0000 H   0  0  0  0  0  0  0  0  0  0  0  0
   16.3432   -5.4474    0.0000 H   0  0  0  0  0  0  0  0  0  0  0  0
   17.0837   -5.4474    0.0000 H   0  0  0  0  0  0  0  0  0  0  0  0
   17.7982   -3.5604    0.0000 H   0  0  0  0  0  0  0  0  0  0  0  0
   17.0577   -3.5604    0.0000 H   0  0  0  0  0  0  0  0  0  0  0  0
   19.6253   -5.5334    0.0000 H   0  0  0  0  0  0  0  0  0  0  0  0
   20.3336   -5.0259    0.0000 H   0  0  0  0  0  0  0  0  0  0  0  0
   20.1916   -4.1662    0.0000 H   0  0  0  0  0  0  0  0  0  0  0  0
   17.4280   -6.5516    0.0000 H   0  0  0  0  0  0  0  0  0  0  0  0
   18.5549   -6.8536    0.0000 H   0  0  0  0  0  0  0  0  0  0  0  0
   18.8569   -5.7266    0.0000 H   0  0  0  0  0  0  0  0  0  0  0  0
   19.7577   -3.2623    0.0000 H   0  0  0  0  0  0  0  0  0  0  0  0
   19.1610   -3.2003    0.0000 H   0  0  0  0  0  0  0  0  0  0  0  0
   18.8777   -4.6502    0.0000 H   0  0  0  0  0  0  0  0  0  0  0  0
  1  2  1  0  0  0  0
  2  3  1  0  0  0  0
  3  4  1  0  0  0  0
  4  5  1  0  0  0  0
  5  6  1  0  0  0  0
  6  7  1  0  0  0  0
  7  8  1  0  0  0  0
  8  9  1  0  0  0  0
  9 10  1  0  0  0  0
 10 11  1  0  0  0  0
 11 12  1  0  0  0  0
 12 13  1  0  0  0  0
 13 14  1  0  0  0  0
 14 15  1  0  0  0  0
 15 16  1  0  0  0  0
 16 17  1  0  0  0  0
 17 18  1  0  0  0  0
 18 19  1  0  0  0  0
 17 20  1  0  0  0  0
 20 21  1  0  0  0  0
 17 22  1  0  0  0  0
 22 23  1  0  0  0  0
  1 24  1  0  0  0  0
  1 25  1  0  0  0  0
  1 26  1  0  0  0  0
  2 27  1  0  0  0  0
  2 28  1  0  0  0  0
  3 29  1  0  0  0  0
  3 30  1  0  0  0  0
  4 31  1  0  0  0  0
  4 32  1  0  0  0  0
  5 33  1  0  0  0  0
  5 34  1  0  0  0  0
  6 35  1  0  0  0  0
  6 36  1  0  0  0  0
  7 37  1  0  0  0  0
  7 38  1  0  0  0  0
  8 39  1  0  0  0  0
  8 40  1  0  0  0  0
  9 41  1  0  0  0  0
  9 42  1  0  0  0  0
 10 43  1  0  0  0  0
 10 44  1  0  0  0  0
 11 45  1  0  0  0  0
 11 46  1  0  0  0  0
 12 47  1  0  0  0  0
 12 48  1  0  0  0  0
 13 49  1  0  0  0  0
 13 50  1  0  0  0  0
 14 51  1  0  0  0  0
 14 52  1  0  0  0  0
 15 53  1  0  0  0  0
 15 54  1  0  0  0  0
 16 55  1  0  0  0  0
 16 56  1  0  0  0  0
 19 57  1  0  0  0  0
 19 58  1  0  0  0  0
 19 59  1  0  0  0  0
 21 60  1  0  0  0  0
 21 61  1  0  0  0  0
 21 62  1  0  0  0  0
 23 63  1  0  0  0  0
 23 64  1  0  0  0  0
 23 65  1  0  0  0  0
M  END
>  <InChIKey>
RSKGMYDENCAJEN-UHFFFAOYSA-N

>  <UN GHS>
Non-irritant

>  <CASRN>
16415-12-6

> <Outcome>
0

>  <Index>
687

>  <StandardizerResult>
Clear Stereo (ID: ClearStereo)
Wedge Clean (ID: WedgeClean)
Mesomerize (ID: Mesomerize)
Tautomerize (ID: Tautomerize)
Add Explicit Hydrogens (ID: AddExplicitH)
Neutralize (ID: Neutralize)
Clean 2D (ID: Clean2D)

> <knn Distance>
3.60555124282837

> <CpId>
687

$$$$
812
  Mrv1532301301811342D          

 18 19  0  0  0  0            999 V2000
    1.4289   -2.4750    0.0000 O   0  0  0  0  0  0  0  0  0  0  0  0
    1.4289   -1.6500    0.0000 C   0  0  0  0  0  0  0  0  0  0  0  0
    0.7145   -1.2375    0.0000 C   0  0  0  0  0  0  0  0  0  0  0  0
    0.0000   -1.6500    0.0000 I   0  0  0  0  0  0  0  0  0  0  0  0
    0.7145   -0.4125    0.0000 C   0  0  0  0  0  0  0  0  0  0  0  0
    1.4289   -0.0000    0.0000 C   0  0  0  0  0  0  0  0  0  0  0  0
    1.4289    0.8250    0.0000 I   0  0  0  0  0  0  0  0  0  0  0  0
    2.1434   -0.4125    0.0000 C   0  0  0  0  0  0  0  0  0  0  0  0
    2.8579   -0.0000    0.0000 C   0  0  0  0  0  0  0  0  0  0  0  0
    3.5724   -0.4125    0.0000 C   0  0  0  0  0  0  0  0  0  0  0  0
    3.5724   -1.2375    0.0000 C   0  0  0  0  0  0  0  0  0  0  0  0
    2.8579   -1.6500    0.0000 N   0  0  0  0  0  0  0  0  0  0  0  0
    2.1434   -1.2375    0.0000 C   0  0  0  0  0  0  0  0  0  0  0  0
    0.7145   -2.8875    0.0000 H   0  0  0  0  0  0  0  0  0  0  0  0
    0.0000   -0.0000    0.0000 H   0  0  0  0  0  0  0  0  0  0  0  0
    2.8579    0.8250    0.0000 H   0  0  0  0  0  0  0  0  0  0  0  0
    4.2868   -0.0000    0.0000 H   0  0  0  0  0  0  0  0  0  0  0  0
    4.2868   -1.6500    0.0000 H   0  0  0  0  0  0  0  0  0  0  0  0
  1  2  1  0  0  0  0
  2  3  4  0  0  0  0
  3  4  1  0  0  0  0
  3  5  4  0  0  0  0
  5  6  4  0  0  0  0
  6  7  1  0  0  0  0
  6  8  4  0  0  0  0
  8  9  4  0  0  0  0
  9 10  4  0  0  0  0
 10 11  4  0  0  0  0
 11 12  4  0  0  0  0
 12 13  4  0  0  0  0
  2 13  4  0  0  0  0
  8 13  4  0  0  0  0
  1 14  1  0  0  0  0
  5 15  1  0  0  0  0
  9 16  1  0  0  0  0
 10 17  1  0  0  0  0
 11 18  1  0  0  0  0
M  END
>  <InChIKey>
UXZFQZANDVDGMM-UHFFFAOYSA-N

>  <UN GHS>
Non-irritant

>  <CASRN>
83-73-8

> <Outcome>
0

>  <Index>
812

>  <StandardizerResult>
Dearomatize (ID: Dearomatize)
Clear Stereo (ID: ClearStereo)
Wedge Clean (ID: WedgeClean)
Mesomerize (ID: Mesomerize)
Tautomerize (ID: Tautomerize)
Aromatize (ID: Aromatize)
Add Explicit Hydrogens (ID: AddExplicitH)
Neutralize (ID: Neutralize)
Clean 2D (ID: Clean2D)

> <knn Distance>
3.60555124282837

> <CpId>
812

$$$$
840
  Mrv1532301301811342D          

 47 47  0  0  0  0            999 V2000
   -2.1700   -1.9897    0.0000 C   0  0  0  0  0  0  0  0  0  0  0  0
   -1.4555   -2.4022    0.0000 C   0  0  0  0  0  0  0  0  0  0  0  0
   -0.7410   -1.9897    0.0000 O   0  0  0  0  0  0  0  0  0  0  0  0
   -0.0265   -2.4022    0.0000 C   0  0  0  0  0  0  0  0  0  0  0  0
    0.6879   -1.9897    0.0000 O   0  0  0  0  0  0  0  0  0  0  0  0
    1.4024   -2.4022    0.0000 C   0  0  0  0  0  0  0  0  0  0  0  0
    1.4024   -1.5772    0.0000 C   0  0  0  0  0  0  0  0  0  0  0  0
    2.1169   -1.1647    0.0000 C   0  0  0  0  0  0  0  0  0  0  0  0
    2.8313   -1.5772    0.0000 C   0  0  0  0  0  0  0  0  0  0  0  0
    2.8313   -2.4022    0.0000 C   0  0  0  0  0  0  0  0  0  0  0  0
    3.5458   -2.8147    0.0000 C   0  0  0  0  0  0  0  0  0  0  0  0
    3.5458   -3.6397    0.0000 C   0  0  0  0  0  0  0  0  0  0  0  0
    2.8313   -4.0522    0.0000 C   0  0  0  0  0  0  0  0  0  0  0  0
    2.1169   -3.6397    0.0000 C   0  0  0  0  0  0  0  0  0  0  0  0
    1.4024   -4.0522    0.0000 C   0  0  0  0  0  0  0  0  0  0  0  0
    0.6879   -3.6397    0.0000 C   0  0  0  0  0  0  0  0  0  0  0  0
    0.6879   -2.8147    0.0000 C   0  0  0  0  0  0  0  0  0  0  0  0
   -1.7575   -1.2752    0.0000 H   0  0  0  0  0  0  0  0  0  0  0  0
   -2.8844   -1.5772    0.0000 H   0  0  0  0  0  0  0  0  0  0  0  0
   -2.5825   -2.7042    0.0000 H   0  0  0  0  0  0  0  0  0  0  0  0
   -1.8257   -3.1394    0.0000 H   0  0  0  0  0  0  0  0  0  0  0  0
   -1.0852   -3.1394    0.0000 H   0  0  0  0  0  0  0  0  0  0  0  0
   -0.6585   -2.9325    0.0000 H   0  0  0  0  0  0  0  0  0  0  0  0
   -0.1698   -3.2147    0.0000 H   0  0  0  0  0  0  0  0  0  0  0  0
    2.1169   -2.8147    0.0000 H   0  0  0  0  0  0  0  0  0  0  0  0
    1.2591   -0.7647    0.0000 H   0  0  0  0  0  0  0  0  0  0  0  0
    0.7704   -1.0469    0.0000 H   0  0  0  0  0  0  0  0  0  0  0  0
    2.7305   -0.6133    0.0000 H   0  0  0  0  0  0  0  0  0  0  0  0
    2.2166   -0.3457    0.0000 H   0  0  0  0  0  0  0  0  0  0  0  0
    3.6174   -1.8277    0.0000 H   0  0  0  0  0  0  0  0  0  0  0  0
    3.5870   -1.2462    0.0000 H   0  0  0  0  0  0  0  0  0  0  0  0
    2.8313   -3.2272    0.0000 H   0  0  0  0  0  0  0  0  0  0  0  0
    2.1169   -1.9897    0.0000 H   0  0  0  0  0  0  0  0  0  0  0  0
    4.3694   -2.7667    0.0000 H   0  0  0  0  0  0  0  0  0  0  0  0
    3.9992   -2.1254    0.0000 H   0  0  0  0  0  0  0  0  0  0  0  0
    3.9992   -4.3290    0.0000 H   0  0  0  0  0  0  0  0  0  0  0  0
    4.3694   -3.6877    0.0000 H   0  0  0  0  0  0  0  0  0  0  0  0
    2.4611   -4.7894    0.0000 H   0  0  0  0  0  0  0  0  0  0  0  0
    3.2016   -4.7894    0.0000 H   0  0  0  0  0  0  0  0  0  0  0  0
    1.4024   -3.2272    0.0000 H   0  0  0  0  0  0  0  0  0  0  0  0
    2.1169   -4.4647    0.0000 H   0  0  0  0  0  0  0  0  0  0  0  0
    0.7704   -4.5825    0.0000 H   0  0  0  0  0  0  0  0  0  0  0  0
    1.2591   -4.8647    0.0000 H   0  0  0  0  0  0  0  0  0  0  0  0
   -0.1122   -3.8406    0.0000 H   0  0  0  0  0  0  0  0  0  0  0  0
    0.2094   -4.3117    0.0000 H   0  0  0  0  0  0  0  0  0  0  0  0
    1.5129   -2.8147    0.0000 H   0  0  0  0  0  0  0  0  0  0  0  0
    0.2447   -3.5105    0.0000 H   0  0  0  0  0  0  0  0  0  0  0  0
  1  2  1  0  0  0  0
  2  3  1  0  0  0  0
  3  4  1  0  0  0  0
  4  5  1  0  0  0  0
  5  6  1  0  0  0  0
  6  7  1  0  0  0  0
  7  8  1  0  0  0  0
  8  9  1  0  0  0  0
  9 10  1  0  0  0  0
 10 11  1  0  0  0  0
 11 12  1  0  0  0  0
 12 13  1  0  0  0  0
 13 14  1  0  0  0  0
 14 15  1  0  0  0  0
 15 16  1  0  0  0  0
 16 17  1  0  0  0  0
  6 17  1  0  0  0  0
  1 18  1  0  0  0  0
  1 19  1  0  0  0  0
  1 20  1  0  0  0  0
  2 21  1  0  0  0  0
  2 22  1  0  0  0  0
  4 23  1  0  0  0  0
  4 24  1  0  0  0  0
  6 25  1  0  0  0  0
  7 26  1  0  0  0  0
  7 27  1  0  0  0  0
  8 28  1  0  0  0  0
  8 29  1  0  0  0  0
  9 30  1  0  0  0  0
  9 31  1  0  0  0  0
 10 32  1  0  0  0  0
 10 33  1  0  0  0  0
 11 34  1  0  0  0  0
 11 35  1  0  0  0  0
 12 36  1  0  0  0  0
 12 37  1  0  0  0  0
 13 38  1  0  0  0  0
 13 39  1  0  0  0  0
 14 40  1  0  0  0  0
 14 41  1  0  0  0  0
 15 42  1  0  0  0  0
 15 43  1  0  0  0  0
 16 44  1  0  0  0  0
 16 45  1  0  0  0  0
 17 46  1  0  0  0  0
 17 47  1  0  0  0  0
M  END
>  <InChIKey>
VQNUNMBDOKEZHS-UHFFFAOYSA-N

>  <UN GHS>
Non-irritant

>  <CASRN>
58567-11-6

> <Outcome>
0

>  <Index>
840

>  <StandardizerResult>
Clear Stereo (ID: ClearStereo)
Wedge Clean (ID: WedgeClean)
Mesomerize (ID: Mesomerize)
Tautomerize (ID: Tautomerize)
Add Explicit Hydrogens (ID: AddExplicitH)
Neutralize (ID: Neutralize)
Clean 2D (ID: Clean2D)

> <knn Distance>
3.60555124282837

> <CpId>
840

$$$$
869
  Mrv1532301301811342D          

 43 42  0  0  0  0            999 V2000
    5.6300    0.6822    0.0000 C   0  0  0  0  0  0  0  0  0  0  0  0
    4.9155    1.0947    0.0000 C   0  0  0  0  0  0  0  0  0  0  0  0
    4.2010    0.6822    0.0000 C   0  0  0  0  0  0  0  0  0  0  0  0
    3.7885    1.3967    0.0000 C   0  0  0  0  0  0  0  0  0  0  0  0
    2.9635    1.3967    0.0000 O   0  0  0  0  0  0  0  0  0  0  0  0
    4.6135   -0.0322    0.0000 C   0  0  0  0  0  0  0  0  0  0  0  0
    4.2010   -0.7467    0.0000 O   0  0  0  0  0  0  0  0  0  0  0  0
    3.4866    0.2697    0.0000 C   0  0  0  0  0  0  0  0  0  0  0  0
    2.7721    0.6822    0.0000 O   0  0  0  0  0  0  0  0  0  0  0  0
    2.0576    0.2697    0.0000 C   0  0  0  0  0  0  0  0  0  0  0  0
    1.3432    0.6822    0.0000 C   0  0  0  0  0  0  0  0  0  0  0  0
    0.6287    1.0947    0.0000 C   0  0  0  0  0  0  0  0  0  0  0  0
   -0.0858    0.6822    0.0000 C   0  0  0  0  0  0  0  0  0  0  0  0
    1.7557    1.3967    0.0000 C   0  0  0  0  0  0  0  0  0  0  0  0
    1.3432    2.1112    0.0000 O   0  0  0  0  0  0  0  0  0  0  0  0
    0.9307   -0.0322    0.0000 C   0  0  0  0  0  0  0  0  0  0  0  0
    0.1057   -0.0322    0.0000 O   0  0  0  0  0  0  0  0  0  0  0  0
    5.2175   -0.0322    0.0000 H   0  0  0  0  0  0  0  0  0  0  0  0
    6.3444    0.2697    0.0000 H   0  0  0  0  0  0  0  0  0  0  0  0
    6.0425    1.3967    0.0000 H   0  0  0  0  0  0  0  0  0  0  0  0
    5.2858    1.8320    0.0000 H   0  0  0  0  0  0  0  0  0  0  0  0
    4.5452    1.8320    0.0000 H   0  0  0  0  0  0  0  0  0  0  0  0
    3.5756    2.1938    0.0000 H   0  0  0  0  0  0  0  0  0  0  0  0
    3.3760    0.6822    0.0000 H   0  0  0  0  0  0  0  0  0  0  0  0
    2.4613    2.0512    0.0000 H   0  0  0  0  0  0  0  0  0  0  0  0
    5.0260    0.6822    0.0000 H   0  0  0  0  0  0  0  0  0  0  0  0
    5.0260   -0.7467    0.0000 H   0  0  0  0  0  0  0  0  0  0  0  0
    3.4866   -1.1592    0.0000 H   0  0  0  0  0  0  0  0  0  0  0  0
    3.1163   -0.4675    0.0000 H   0  0  0  0  0  0  0  0  0  0  0  0
    3.8568   -0.4675    0.0000 H   0  0  0  0  0  0  0  0  0  0  0  0
    1.6874   -0.4675    0.0000 H   0  0  0  0  0  0  0  0  0  0  0  0
    2.4279   -0.4675    0.0000 H   0  0  0  0  0  0  0  0  0  0  0  0
    0.9989    1.8320    0.0000 H   0  0  0  0  0  0  0  0  0  0  0  0
    0.2584    1.8320    0.0000 H   0  0  0  0  0  0  0  0  0  0  0  0
   -0.1397    1.5055    0.0000 H   0  0  0  0  0  0  0  0  0  0  0  0
   -0.8480    0.9980    0.0000 H   0  0  0  0  0  0  0  0  0  0  0  0
   -0.7061    0.1383    0.0000 H   0  0  0  0  0  0  0  0  0  0  0  0
    2.0949    0.6447    0.0000 H   0  0  0  0  0  0  0  0  0  0  0  0
    2.5643    1.2332    0.0000 H   0  0  0  0  0  0  0  0  0  0  0  0
    1.4932    2.9224    0.0000 H   0  0  0  0  0  0  0  0  0  0  0  0
    0.7178   -0.8293    0.0000 H   0  0  0  0  0  0  0  0  0  0  0  0
    0.5182    0.6822    0.0000 H   0  0  0  0  0  0  0  0  0  0  0  0
    0.0204   -0.8528    0.0000 H   0  0  0  0  0  0  0  0  0  0  0  0
  1  2  1  0  0  0  0
  2  3  1  0  0  0  0
  3  4  1  0  0  0  0
  4  5  1  0  0  0  0
  3  6  1  0  0  0  0
  6  7  1  0  0  0  0
  3  8  1  0  0  0  0
  8  9  1  0  0  0  0
  9 10  1  0  0  0  0
 10 11  1  0  0  0  0
 11 12  1  0  0  0  0
 12 13  1  0  0  0  0
 11 14  1  0  0  0  0
 14 15  1  0  0  0  0
 11 16  1  0  0  0  0
 16 17  1  0  0  0  0
  1 18  1  0  0  0  0
  1 19  1  0  0  0  0
  1 20  1  0  0  0  0
  2 21  1  0  0  0  0
  2 22  1  0  0  0  0
  4 23  1  0  0  0  0
  4 24  1  0  0  0  0
  5 25  1  0  0  0  0
  6 26  1  0  0  0  0
  6 27  1  0  0  0  0
  7 28  1  0  0  0  0
  8 29  1  0  0  0  0
  8 30  1  0  0  0  0
 10 31  1  0  0  0  0
 10 32  1  0  0  0  0
 12 33  1  0  0  0  0
 12 34  1  0  0  0  0
 13 35  1  0  0  0  0
 13 36  1  0  0  0  0
 13 37  1  0  0  0  0
 14 38  1  0  0  0  0
 14 39  1  0  0  0  0
 15 40  1  0  0  0  0
 16 41  1  0  0  0  0
 16 42  1  0  0  0  0
 17 43  1  0  0  0  0
M  END
>  <InChIKey>
WMYINDVYGQKYMI-UHFFFAOYSA-N

>  <UN GHS>
Non-irritant

>  <CASRN>
23235-61-2

> <Outcome>
0

>  <Index>
869

>  <StandardizerResult>
Clear Stereo (ID: ClearStereo)
Wedge Clean (ID: WedgeClean)
Mesomerize (ID: Mesomerize)
Tautomerize (ID: Tautomerize)
Add Explicit Hydrogens (ID: AddExplicitH)
Neutralize (ID: Neutralize)
Clean 2D (ID: Clean2D)

> <knn Distance>
3.60555124282837

> <CpId>
869

$$$$
891
  Mrv1532301301811342D          

 22 22  0  0  0  0            999 V2000
    0.7685    2.0667    0.0000 C   0  0  0  0  0  0  0  0  0  0  0  0
    0.7685    1.2417    0.0000 C   0  0  0  0  0  0  0  0  0  0  0  0
    1.4829    0.8292    0.0000 C   0  0  0  0  0  0  0  0  0  0  0  0
    1.4829    0.0042    0.0000 C   0  0  0  0  0  0  0  0  0  0  0  0
    0.7685   -0.4083    0.0000 C   0  0  0  0  0  0  0  0  0  0  0  0
    0.0540    0.0042    0.0000 C   0  0  0  0  0  0  0  0  0  0  0  0
    0.0540    0.8292    0.0000 C   0  0  0  0  0  0  0  0  0  0  0  0
   -0.6605    1.2417    0.0000 C   0  0  0  0  0  0  0  0  0  0  0  0
    0.7685   -1.2333    0.0000 S   0  0  0  0  0  0  0  0  0  0  0  0
    0.7685   -2.0583    0.0000 O   0  0  0  0  0  0  0  0  0  0  0  0
   -0.0565   -1.2333    0.0000 O   0  0  0  0  0  0  0  0  0  0  0  0
    1.5935   -1.2333    0.0000 O   0  0  0  0  0  0  0  0  0  0  0  0
    1.5935    2.0667    0.0000 H   0  0  0  0  0  0  0  0  0  0  0  0
    0.7685    2.8917    0.0000 H   0  0  0  0  0  0  0  0  0  0  0  0
   -0.0565    2.0667    0.0000 H   0  0  0  0  0  0  0  0  0  0  0  0
    2.1974    1.2417    0.0000 H   0  0  0  0  0  0  0  0  0  0  0  0
    2.1974   -0.4083    0.0000 H   0  0  0  0  0  0  0  0  0  0  0  0
   -0.6605   -0.4083    0.0000 H   0  0  0  0  0  0  0  0  0  0  0  0
   -0.2480    1.9562    0.0000 H   0  0  0  0  0  0  0  0  0  0  0  0
   -1.3749    1.6542    0.0000 H   0  0  0  0  0  0  0  0  0  0  0  0
   -1.0730    0.5272    0.0000 H   0  0  0  0  0  0  0  0  0  0  0  0
    0.0540   -2.4708    0.0000 H   0  0  0  0  0  0  0  0  0  0  0  0
  1  2  1  0  0  0  0
  2  3  4  0  0  0  0
  3  4  4  0  0  0  0
  4  5  4  0  0  0  0
  5  6  4  0  0  0  0
  6  7  4  0  0  0  0
  2  7  4  0  0  0  0
  7  8  1  0  0  0  0
  5  9  1  0  0  0  0
  9 10  1  0  0  0  0
  9 11  2  0  0  0  0
  9 12  2  0  0  0  0
  1 13  1  0  0  0  0
  1 14  1  0  0  0  0
  1 15  1  0  0  0  0
  3 16  1  0  0  0  0
  4 17  1  0  0  0  0
  6 18  1  0  0  0  0
  8 19  1  0  0  0  0
  8 20  1  0  0  0  0
  8 21  1  0  0  0  0
 10 22  1  0  0  0  0
M  END
>  <InChIKey>
WYCOJIVDCGJKDB-UHFFFAOYSA-M

>  <UN GHS>
Non-irritant

>  <CASRN>
1300-72-7

> <Outcome>
0

>  <Index>
891

>  <StandardizerResult>
Dearomatize (ID: Dearomatize)
Clear Stereo (ID: ClearStereo)
Wedge Clean (ID: WedgeClean)
Mesomerize (ID: Mesomerize)
Tautomerize (ID: Tautomerize)
Aromatize (ID: Aromatize)
Add Explicit Hydrogens (ID: AddExplicitH)
Neutralize (ID: Neutralize)
Clean 2D (ID: Clean2D)

> <knn Distance>
3.60555124282837

> <CpId>
891

$$$$
913
  Mrv1532301301811342D          

 61 62  0  0  0  0            999 V2000
    2.9297   -1.6910    0.0000 C   0  0  0  0  0  0  0  0  0  0  0  0
    2.2152   -2.1035    0.0000 C   0  0  0  0  0  0  0  0  0  0  0  0
    1.5008   -1.6910    0.0000 C   0  0  0  0  0  0  0  0  0  0  0  0
    2.2152   -2.9285    0.0000 C   0  0  0  0  0  0  0  0  0  0  0  0
    2.9297   -3.3410    0.0000 C   0  0  0  0  0  0  0  0  0  0  0  0
    2.9297   -4.1660    0.0000 C   0  0  0  0  0  0  0  0  0  0  0  0
    2.2152   -4.5785    0.0000 C   0  0  0  0  0  0  0  0  0  0  0  0
    1.5008   -4.1660    0.0000 C   0  0  0  0  0  0  0  0  0  0  0  0
    0.7863   -4.5785    0.0000 C   0  0  0  0  0  0  0  0  0  0  0  0
    0.0718   -4.1660    0.0000 C   0  0  0  0  0  0  0  0  0  0  0  0
    0.7863   -5.4035    0.0000 C   0  0  0  0  0  0  0  0  0  0  0  0
    1.5008   -3.3410    0.0000 C   0  0  0  0  0  0  0  0  0  0  0  0
    0.7863   -2.9285    0.0000 N   0  0  0  0  0  0  0  0  0  0  0  0
    0.0718   -3.3410    0.0000 C   0  0  0  0  0  0  0  0  0  0  0  0
   -0.6427   -3.7535    0.0000 N   0  0  0  0  0  0  0  0  0  0  0  0
   -1.3571   -3.3410    0.0000 C   0  0  0  0  0  0  0  0  0  0  0  0
   -2.0716   -3.7535    0.0000 C   0  0  0  0  0  0  0  0  0  0  0  0
   -2.7861   -3.3410    0.0000 C   0  0  0  0  0  0  0  0  0  0  0  0
   -2.7861   -2.5160    0.0000 C   0  0  0  0  0  0  0  0  0  0  0  0
   -2.0716   -2.1035    0.0000 C   0  0  0  0  0  0  0  0  0  0  0  0
   -1.3571   -2.5160    0.0000 C   0  0  0  0  0  0  0  0  0  0  0  0
   -0.6427   -2.1035    0.0000 C   0  0  0  0  0  0  0  0  0  0  0  0
    0.0718   -2.5160    0.0000 C   0  0  0  0  0  0  0  0  0  0  0  0
   -0.6427   -1.2785    0.0000 C   0  0  0  0  0  0  0  0  0  0  0  0
   -2.0716   -4.5785    0.0000 C   0  0  0  0  0  0  0  0  0  0  0  0
   -2.7861   -4.9910    0.0000 C   0  0  0  0  0  0  0  0  0  0  0  0
   -1.3571   -4.9910    0.0000 C   0  0  0  0  0  0  0  0  0  0  0  0
    3.3422   -2.4055    0.0000 H   0  0  0  0  0  0  0  0  0  0  0  0
    3.6442   -1.2785    0.0000 H   0  0  0  0  0  0  0  0  0  0  0  0
    2.5172   -0.9765    0.0000 H   0  0  0  0  0  0  0  0  0  0  0  0
    2.2152   -1.2785    0.0000 H   0  0  0  0  0  0  0  0  0  0  0  0
    1.2872   -0.8941    0.0000 H   0  0  0  0  0  0  0  0  0  0  0  0
    0.6758   -1.6910    0.0000 H   0  0  0  0  0  0  0  0  0  0  0  0
    1.2872   -2.4879    0.0000 H   0  0  0  0  0  0  0  0  0  0  0  0
    3.6442   -2.9285    0.0000 H   0  0  0  0  0  0  0  0  0  0  0  0
    3.6442   -4.5785    0.0000 H   0  0  0  0  0  0  0  0  0  0  0  0
    2.2152   -5.4035    0.0000 H   0  0  0  0  0  0  0  0  0  0  0  0
    0.7863   -3.7535    0.0000 H   0  0  0  0  0  0  0  0  0  0  0  0
   -0.7251   -4.3795    0.0000 H   0  0  0  0  0  0  0  0  0  0  0  0
   -0.3407   -4.8805    0.0000 H   0  0  0  0  0  0  0  0  0  0  0  0
    0.2853   -4.9629    0.0000 H   0  0  0  0  0  0  0  0  0  0  0  0
    0.1231   -5.8942    0.0000 H   0  0  0  0  0  0  0  0  0  0  0  0
    1.1262   -6.1552    0.0000 H   0  0  0  0  0  0  0  0  0  0  0  0
    1.5928   -5.2296    0.0000 H   0  0  0  0  0  0  0  0  0  0  0  0
   -3.5005   -3.7535    0.0000 H   0  0  0  0  0  0  0  0  0  0  0  0
   -3.5005   -2.1035    0.0000 H   0  0  0  0  0  0  0  0  0  0  0  0
   -2.0716   -1.2785    0.0000 H   0  0  0  0  0  0  0  0  0  0  0  0
   -0.6427   -2.9285    0.0000 H   0  0  0  0  0  0  0  0  0  0  0  0
    0.8687   -2.3025    0.0000 H   0  0  0  0  0  0  0  0  0  0  0  0
    0.4843   -1.8015    0.0000 H   0  0  0  0  0  0  0  0  0  0  0  0
   -0.1417   -1.7191    0.0000 H   0  0  0  0  0  0  0  0  0  0  0  0
    0.0205   -0.7878    0.0000 H   0  0  0  0  0  0  0  0  0  0  0  0
   -0.9826   -0.5268    0.0000 H   0  0  0  0  0  0  0  0  0  0  0  0
   -1.4491   -1.4524    0.0000 H   0  0  0  0  0  0  0  0  0  0  0  0
   -2.7861   -4.1660    0.0000 H   0  0  0  0  0  0  0  0  0  0  0  0
   -3.5830   -4.7775    0.0000 H   0  0  0  0  0  0  0  0  0  0  0  0
   -3.1986   -5.7055    0.0000 H   0  0  0  0  0  0  0  0  0  0  0  0
   -2.2027   -5.5743    0.0000 H   0  0  0  0  0  0  0  0  0  0  0  0
   -2.0450   -5.4465    0.0000 H   0  0  0  0  0  0  0  0  0  0  0  0
   -1.2562   -5.8098    0.0000 H   0  0  0  0  0  0  0  0  0  0  0  0
   -0.5793   -5.2658    0.0000 H   0  0  0  0  0  0  0  0  0  0  0  0
  1  2  1  0  0  0  0
  2  3  1  0  0  0  0
  2  4  1  0  0  0  0
  4  5  4  0  0  0  0
  5  6  4  0  0  0  0
  6  7  4  0  0  0  0
  7  8  4  0  0  0  0
  8  9  1  0  0  0  0
  9 10  1  0  0  0  0
  9 11  1  0  0  0  0
  8 12  4  0  0  0  0
  4 12  4  0  0  0  0
 12 13  1  0  0  0  0
 13 14  2  0  0  0  0
 14 15  2  0  0  0  0
 15 16  1  0  0  0  0
 16 17  4  0  0  0  0
 17 18  4  0  0  0  0
 18 19  4  0  0  0  0
 19 20  4  0  0  0  0
 20 21  4  0  0  0  0
 16 21  4  0  0  0  0
 21 22  1  0  0  0  0
 22 23  1  0  0  0  0
 22 24  1  0  0  0  0
 17 25  1  0  0  0  0
 25 26  1  0  0  0  0
 25 27  1  0  0  0  0
  1 28  1  0  0  0  0
  1 29  1  0  0  0  0
  1 30  1  0  0  0  0
  2 31  1  0  0  0  0
  3 32  1  0  0  0  0
  3 33  1  0  0  0  0
  3 34  1  0  0  0  0
  5 35  1  0  0  0  0
  6 36  1  0  0  0  0
  7 37  1  0  0  0  0
  9 38  1  0  0  0  0
 10 39  1  0  0  0  0
 10 40  1  0  0  0  0
 10 41  1  0  0  0  0
 11 42  1  0  0  0  0
 11 43  1  0  0  0  0
 11 44  1  0  0  0  0
 18 45  1  0  0  0  0
 19 46  1  0  0  0  0
 20 47  1  0  0  0  0
 22 48  1  0  0  0  0
 23 49  1  0  0  0  0
 23 50  1  0  0  0  0
 23 51  1  0  0  0  0
 24 52  1  0  0  0  0
 24 53  1  0  0  0  0
 24 54  1  0  0  0  0
 25 55  1  0  0  0  0
 26 56  1  0  0  0  0
 26 57  1  0  0  0  0
 26 58  1  0  0  0  0
 27 59  1  0  0  0  0
 27 60  1  0  0  0  0
 27 61  1  0  0  0  0
M  END
>  <InChIKey>
XLDBGFGREOMWSL-UHFFFAOYSA-N

>  <UN GHS>
Non-irritant

>  <CASRN>
2162-74-5

> <Outcome>
0

>  <Index>
913

>  <StandardizerResult>
Dearomatize (ID: Dearomatize)
Clear Stereo (ID: ClearStereo)
Wedge Clean (ID: WedgeClean)
Mesomerize (ID: Mesomerize)
Tautomerize (ID: Tautomerize)
Aromatize (ID: Aromatize)
Add Explicit Hydrogens (ID: AddExplicitH)
Neutralize (ID: Neutralize)
Clean 2D (ID: Clean2D)

> <knn Distance>
3.60555124282837

> <CpId>
913

$$$$
945
  Mrv1532301301811342D          

 29 28  0  0  0  0            999 V2000
    1.9523   -0.5062    0.0000 C   0  0  0  0  0  0  0  0  0  0  0  0
    1.9523    0.3188    0.0000 O   0  0  0  0  0  0  0  0  0  0  0  0
    1.2378    0.7313    0.0000 Si  0  0  0  0  0  0  0  0  0  0  0  0
    0.5234    1.1438    0.0000 C   0  0  0  0  0  0  0  0  0  0  0  0
    0.5234    1.9688    0.0000 C   0  0  0  0  0  0  0  0  0  0  0  0
   -0.1911    2.3813    0.0000 C   0  0  0  0  0  0  0  0  0  0  0  0
    1.2378    2.3813    0.0000 C   0  0  0  0  0  0  0  0  0  0  0  0
    1.6503    1.4457    0.0000 O   0  0  0  0  0  0  0  0  0  0  0  0
    2.4753    1.4457    0.0000 C   0  0  0  0  0  0  0  0  0  0  0  0
    0.8253    0.0168    0.0000 O   0  0  0  0  0  0  0  0  0  0  0  0
    0.0003    0.0168    0.0000 C   0  0  0  0  0  0  0  0  0  0  0  0
    1.1273   -0.5062    0.0000 H   0  0  0  0  0  0  0  0  0  0  0  0
    1.9523   -1.3312    0.0000 H   0  0  0  0  0  0  0  0  0  0  0  0
    2.7773   -0.5062    0.0000 H   0  0  0  0  0  0  0  0  0  0  0  0
   -0.3002    1.0958    0.0000 H   0  0  0  0  0  0  0  0  0  0  0  0
    0.0700    0.4545    0.0000 H   0  0  0  0  0  0  0  0  0  0  0  0
   -0.1911    1.5563    0.0000 H   0  0  0  0  0  0  0  0  0  0  0  0
    0.3922    2.9646    0.0000 H   0  0  0  0  0  0  0  0  0  0  0  0
   -0.6036    3.0957    0.0000 H   0  0  0  0  0  0  0  0  0  0  0  0
   -0.9880    2.1677    0.0000 H   0  0  0  0  0  0  0  0  0  0  0  0
    1.6503    1.6668    0.0000 H   0  0  0  0  0  0  0  0  0  0  0  0
    1.9523    2.7938    0.0000 H   0  0  0  0  0  0  0  0  0  0  0  0
    0.8253    3.0957    0.0000 H   0  0  0  0  0  0  0  0  0  0  0  0
    2.4214    0.6225    0.0000 H   0  0  0  0  0  0  0  0  0  0  0  0
    3.2933    1.3381    0.0000 H   0  0  0  0  0  0  0  0  0  0  0  0
    2.6363    2.2549    0.0000 H   0  0  0  0  0  0  0  0  0  0  0  0
   -0.7192    0.4203    0.0000 H   0  0  0  0  0  0  0  0  0  0  0  0
   -0.6272   -0.5187    0.0000 H   0  0  0  0  0  0  0  0  0  0  0  0
    0.2857   -0.7573    0.0000 H   0  0  0  0  0  0  0  0  0  0  0  0
  1  2  1  0  0  0  0
  2  3  1  0  0  0  0
  3  4  1  0  0  0  0
  4  5  1  0  0  0  0
  5  6  1  0  0  0  0
  5  7  1  0  0  0  0
  3  8  1  0  0  0  0
  8  9  1  0  0  0  0
  3 10  1  0  0  0  0
 10 11  1  0  0  0  0
  1 12  1  0  0  0  0
  1 13  1  0  0  0  0
  1 14  1  0  0  0  0
  4 15  1  0  0  0  0
  4 16  1  0  0  0  0
  5 17  1  0  0  0  0
  6 18  1  0  0  0  0
  6 19  1  0  0  0  0
  6 20  1  0  0  0  0
  7 21  1  0  0  0  0
  7 22  1  0  0  0  0
  7 23  1  0  0  0  0
  9 24  1  0  0  0  0
  9 25  1  0  0  0  0
  9 26  1  0  0  0  0
 11 27  1  0  0  0  0
 11 28  1  0  0  0  0
 11 29  1  0  0  0  0
M  END
>  <InChIKey>
XYJRNCYWTVGEEG-UHFFFAOYSA-N

>  <UN GHS>
Non-irritant

>  <CASRN>
18395-30-7

> <Outcome>
0

>  <Index>
945

>  <StandardizerResult>
Clear Stereo (ID: ClearStereo)
Wedge Clean (ID: WedgeClean)
Mesomerize (ID: Mesomerize)
Tautomerize (ID: Tautomerize)
Add Explicit Hydrogens (ID: AddExplicitH)
Neutralize (ID: Neutralize)
Clean 2D (ID: Clean2D)

> <knn Distance>
3.60555124282837

> <CpId>
945

$$$$
950
  Mrv1532301301811342D          

 44 46  0  0  0  0            999 V2000
    1.7524   -1.5776    0.0000 C   0  0  0  0  0  0  0  0  0  0  0  0
    1.7022   -0.7542    0.0000 C   0  0  0  0  0  0  0  0  0  0  0  0
    0.9872   -0.3267    0.0000 C   0  0  0  0  0  0  0  0  0  0  0  0
    1.1651    0.4844    0.0000 C   0  0  0  0  0  0  0  0  0  0  0  0
    1.9897    0.5654    0.0000 C   0  0  0  0  0  0  0  0  0  0  0  0
    2.5977    1.1972    0.0000 C   0  0  0  0  0  0  0  0  0  0  0  0
    1.9484    1.7062    0.0000 C   0  0  0  0  0  0  0  0  0  0  0  0
    3.0383    1.8947    0.0000 C   0  0  0  0  0  0  0  0  0  0  0  0
    3.3676    0.8139    0.0000 C   0  0  0  0  0  0  0  0  0  0  0  0
    2.9008    0.2324    0.0000 C   0  0  0  0  0  0  0  0  0  0  0  0
    2.3694   -0.2355    0.0000 C   0  0  0  0  0  0  0  0  0  0  0  0
    3.0559   -0.8201    0.0000 C   0  0  0  0  0  0  0  0  0  0  0  0
    3.8920   -0.5750    0.0000 C   0  0  0  0  0  0  0  0  0  0  0  0
    4.5080   -1.1238    0.0000 C   0  0  0  0  0  0  0  0  0  0  0  0
    5.2913   -0.8647    0.0000 C   0  0  0  0  0  0  0  0  0  0  0  0
    4.3408   -1.9317    0.0000 O   0  0  0  0  0  0  0  0  0  0  0  0
    4.0359    0.2645    0.0000 C   0  0  0  0  0  0  0  0  0  0  0  0
    4.8091    0.5525    0.0000 C   0  0  0  0  0  0  0  0  0  0  0  0
    0.9289   -1.6279    0.0000 H   0  0  0  0  0  0  0  0  0  0  0  0
    1.8027   -2.4011    0.0000 H   0  0  0  0  0  0  0  0  0  0  0  0
    2.5759   -1.5274    0.0000 H   0  0  0  0  0  0  0  0  0  0  0  0
    2.4539   -1.0940    0.0000 H   0  0  0  0  0  0  0  0  0  0  0  0
    0.1648   -0.2610    0.0000 H   0  0  0  0  0  0  0  0  0  0  0  0
    0.4716   -0.9707    0.0000 H   0  0  0  0  0  0  0  0  0  0  0  0
    0.9708    1.2862    0.0000 H   0  0  0  0  0  0  0  0  0  0  0  0
    0.3917    0.7717    0.0000 H   0  0  0  0  0  0  0  0  0  0  0  0
    1.6299    1.3078    0.0000 H   0  0  0  0  0  0  0  0  0  0  0  0
    2.6680    2.1096    0.0000 H   0  0  0  0  0  0  0  0  0  0  0  0
    1.8531    2.5257    0.0000 H   0  0  0  0  0  0  0  0  0  0  0  0
    1.1554    1.9336    0.0000 H   0  0  0  0  0  0  0  0  0  0  0  0
    3.5204    1.2253    0.0000 H   0  0  0  0  0  0  0  0  0  0  0  0
    3.8395    2.0915    0.0000 H   0  0  0  0  0  0  0  0  0  0  0  0
    3.1554    2.7114    0.0000 H   0  0  0  0  0  0  0  0  0  0  0  0
    4.1641    1.0289    0.0000 H   0  0  0  0  0  0  0  0  0  0  0  0
    3.4973   -0.3376    0.0000 H   0  0  0  0  0  0  0  0  0  0  0  0
    2.3044    0.8024    0.0000 H   0  0  0  0  0  0  0  0  0  0  0  0
    3.2368   -1.6250    0.0000 H   0  0  0  0  0  0  0  0  0  0  0  0
    3.7667   -1.2388    0.0000 H   0  0  0  0  0  0  0  0  0  0  0  0
    5.5504   -1.6480    0.0000 H   0  0  0  0  0  0  0  0  0  0  0  0
    6.0745   -0.6056    0.0000 H   0  0  0  0  0  0  0  0  0  0  0  0
    5.0322   -0.0814    0.0000 H   0  0  0  0  0  0  0  0  0  0  0  0
    5.5977    0.3103    0.0000 H   0  0  0  0  0  0  0  0  0  0  0  0
    5.4725    1.0428    0.0000 H   0  0  0  0  0  0  0  0  0  0  0  0
    4.8090    1.3775    0.0000 H   0  0  0  0  0  0  0  0  0  0  0  0
  1  2  1  0  0  0  0
  2  3  1  0  0  0  0
  3  4  1  0  0  0  0
  4  5  1  0  0  0  0
  5  6  1  0  0  0  0
  6  7  1  0  0  0  0
  6  8  1  0  0  0  0
  6  9  1  0  0  0  0
  9 10  1  0  0  0  0
 10 11  1  0  0  0  0
  2 11  1  0  0  0  0
  5 11  1  0  0  0  0
 11 12  1  0  0  0  0
 12 13  1  0  0  0  0
 13 14  1  0  0  0  0
 14 15  1  0  0  0  0
 14 16  2  0  0  0  0
 13 17  2  0  0  0  0
  9 17  1  0  0  0  0
 17 18  1  0  0  0  0
  1 19  1  0  0  0  0
  1 20  1  0  0  0  0
  1 21  1  0  0  0  0
  2 22  1  0  0  0  0
  3 23  1  0  0  0  0
  3 24  1  0  0  0  0
  4 25  1  0  0  0  0
  4 26  1  0  0  0  0
  5 27  1  0  0  0  0
  7 28  1  0  0  0  0
  7 29  1  0  0  0  0
  7 30  1  0  0  0  0
  8 31  1  0  0  0  0
  8 32  1  0  0  0  0
  8 33  1  0  0  0  0
  9 34  1  0  0  0  0
 10 35  1  0  0  0  0
 10 36  1  0  0  0  0
 12 37  1  0  0  0  0
 12 38  1  0  0  0  0
 15 39  1  0  0  0  0
 15 40  1  0  0  0  0
 15 41  1  0  0  0  0
 18 42  1  0  0  0  0
 18 43  1  0  0  0  0
 18 44  1  0  0  0  0
M  END
>  <InChIKey>
YBUIAJZFOGJGLJ-UHFFFAOYSA-N

>  <UN GHS>
Non-irritant

>  <CASRN>
32388-55-9

> <Outcome>
0

>  <Index>
950

>  <StandardizerResult>
Clear Stereo (ID: ClearStereo)
Wedge Clean (ID: WedgeClean)
Mesomerize (ID: Mesomerize)
Tautomerize (ID: Tautomerize)
Add Explicit Hydrogens (ID: AddExplicitH)
Neutralize (ID: Neutralize)
Clean 2D (ID: Clean2D)

> <knn Distance>
3.60555124282837

> <CpId>
950

$$$$
994
  Mrv1532301301811342D          

 29 28  0  0  0  0            999 V2000
    2.9133    1.9104    0.0000 C   0  0  0  0  0  0  0  0  0  0  0  0
    2.1988    1.4979    0.0000 C   0  0  0  0  0  0  0  0  0  0  0  0
    1.4844    1.9104    0.0000 O   0  0  0  0  0  0  0  0  0  0  0  0
    0.7699    1.4979    0.0000 Si  0  0  0  0  0  0  0  0  0  0  0  0
    0.3574    2.2124    0.0000 C   0  0  0  0  0  0  0  0  0  0  0  0
   -0.4676    2.2124    0.0000 Cl  0  0  0  0  0  0  0  0  0  0  0  0
    0.0554    1.0854    0.0000 O   0  0  0  0  0  0  0  0  0  0  0  0
   -0.6590    1.4979    0.0000 C   0  0  0  0  0  0  0  0  0  0  0  0
   -1.3735    1.0854    0.0000 C   0  0  0  0  0  0  0  0  0  0  0  0
    1.1824    0.7834    0.0000 O   0  0  0  0  0  0  0  0  0  0  0  0
    0.7699    0.0690    0.0000 C   0  0  0  0  0  0  0  0  0  0  0  0
   -0.0551    0.0690    0.0000 C   0  0  0  0  0  0  0  0  0  0  0  0
    3.3258    1.1959    0.0000 H   0  0  0  0  0  0  0  0  0  0  0  0
    3.6278    2.3229    0.0000 H   0  0  0  0  0  0  0  0  0  0  0  0
    2.5008    2.6249    0.0000 H   0  0  0  0  0  0  0  0  0  0  0  0
    1.8286    0.7607    0.0000 H   0  0  0  0  0  0  0  0  0  0  0  0
    2.5691    0.7607    0.0000 H   0  0  0  0  0  0  0  0  0  0  0  0
    1.0467    2.6657    0.0000 H   0  0  0  0  0  0  0  0  0  0  0  0
    0.4054    3.0360    0.0000 H   0  0  0  0  0  0  0  0  0  0  0  0
   -1.3136    2.0001    0.0000 H   0  0  0  0  0  0  0  0  0  0  0  0
    0.1032    1.8136    0.0000 H   0  0  0  0  0  0  0  0  0  0  0  0
   -2.1590    1.3378    0.0000 H   0  0  0  0  0  0  0  0  0  0  0  0
   -1.8092    0.3848    0.0000 H   0  0  0  0  0  0  0  0  0  0  0  0
   -0.7998    0.4926    0.0000 H   0  0  0  0  0  0  0  0  0  0  0  0
    0.8179   -0.7546    0.0000 H   0  0  0  0  0  0  0  0  0  0  0  0
    1.4592   -0.3844    0.0000 H   0  0  0  0  0  0  0  0  0  0  0  0
   -0.5643   -0.5802    0.0000 H   0  0  0  0  0  0  0  0  0  0  0  0
    0.0665   -0.7470    0.0000 H   0  0  0  0  0  0  0  0  0  0  0  0
    0.1559    0.8665    0.0000 H   0  0  0  0  0  0  0  0  0  0  0  0
  1  2  1  0  0  0  0
  2  3  1  0  0  0  0
  3  4  1  0  0  0  0
  4  5  1  0  0  0  0
  5  6  1  0  0  0  0
  4  7  1  0  0  0  0
  7  8  1  0  0  0  0
  8  9  1  0  0  0  0
  4 10  1  0  0  0  0
 10 11  1  0  0  0  0
 11 12  1  0  0  0  0
  1 13  1  0  0  0  0
  1 14  1  0  0  0  0
  1 15  1  0  0  0  0
  2 16  1  0  0  0  0
  2 17  1  0  0  0  0
  5 18  1  0  0  0  0
  5 19  1  0  0  0  0
  8 20  1  0  0  0  0
  8 21  1  0  0  0  0
  9 22  1  0  0  0  0
  9 23  1  0  0  0  0
  9 24  1  0  0  0  0
 11 25  1  0  0  0  0
 11 26  1  0  0  0  0
 12 27  1  0  0  0  0
 12 28  1  0  0  0  0
 12 29  1  0  0  0  0
M  END
>  <InChIKey>
ZDOBWJOCPDIBRZ-UHFFFAOYSA-N

>  <UN GHS>
Non-irritant

>  <CASRN>
15267-95-5

> <Outcome>
0

>  <Index>
994

>  <StandardizerResult>
Clear Stereo (ID: ClearStereo)
Wedge Clean (ID: WedgeClean)
Mesomerize (ID: Mesomerize)
Tautomerize (ID: Tautomerize)
Add Explicit Hydrogens (ID: AddExplicitH)
Neutralize (ID: Neutralize)
Clean 2D (ID: Clean2D)

> <knn Distance>
3.60555124282837

> <CpId>
994

$$$$
1010
  Mrv1532301301811342D          

 27 27  0  0  0  0            999 V2000
    0.0209    3.2657    0.0000 C   0  0  0  0  0  0  0  0  0  0  0  0
    0.7353    2.8532    0.0000 O   0  0  0  0  0  0  0  0  0  0  0  0
    0.7353    2.0282    0.0000 Si  0  0  0  0  0  0  0  0  0  0  0  0
   -0.0897    2.0282    0.0000 O   0  0  0  0  0  0  0  0  0  0  0  0
   -0.5022    1.3138    0.0000 C   0  0  0  0  0  0  0  0  0  0  0  0
    1.5603    2.0282    0.0000 O   0  0  0  0  0  0  0  0  0  0  0  0
    1.9728    1.3138    0.0000 C   0  0  0  0  0  0  0  0  0  0  0  0
    0.7353    1.2032    0.0000 C   0  0  0  0  0  0  0  0  0  0  0  0
    1.4498    0.7907    0.0000 C   0  0  0  0  0  0  0  0  0  0  0  0
    1.4498   -0.0343    0.0000 C   0  0  0  0  0  0  0  0  0  0  0  0
    0.7353   -0.4468    0.0000 C   0  0  0  0  0  0  0  0  0  0  0  0
    0.0209   -0.0343    0.0000 C   0  0  0  0  0  0  0  0  0  0  0  0
    0.0209    0.7907    0.0000 C   0  0  0  0  0  0  0  0  0  0  0  0
    0.4334    3.9802    0.0000 H   0  0  0  0  0  0  0  0  0  0  0  0
   -0.6936    3.6782    0.0000 H   0  0  0  0  0  0  0  0  0  0  0  0
   -0.3916    2.5513    0.0000 H   0  0  0  0  0  0  0  0  0  0  0  0
   -0.9605    1.9997    0.0000 H   0  0  0  0  0  0  0  0  0  0  0  0
   -1.3201    1.2061    0.0000 H   0  0  0  0  0  0  0  0  0  0  0  0
   -0.7673    0.5326    0.0000 H   0  0  0  0  0  0  0  0  0  0  0  0
    2.2380    0.5326    0.0000 H   0  0  0  0  0  0  0  0  0  0  0  0
    2.7908    1.2061    0.0000 H   0  0  0  0  0  0  0  0  0  0  0  0
    2.4312    1.9997    0.0000 H   0  0  0  0  0  0  0  0  0  0  0  0
    0.7353    0.3782    0.0000 H   0  0  0  0  0  0  0  0  0  0  0  0
    2.1643   -0.4468    0.0000 H   0  0  0  0  0  0  0  0  0  0  0  0
    0.7353   -1.2718    0.0000 H   0  0  0  0  0  0  0  0  0  0  0  0
   -0.6936   -0.4468    0.0000 H   0  0  0  0  0  0  0  0  0  0  0  0
    0.1286    1.6087    0.0000 H   0  0  0  0  0  0  0  0  0  0  0  0
  1  2  1  0  0  0  0
  2  3  1  0  0  0  0
  3  4  1  0  0  0  0
  4  5  1  0  0  0  0
  3  6  1  0  0  0  0
  6  7  1  0  0  0  0
  3  8  1  0  0  0  0
  8  9  4  0  0  0  0
  9 10  4  0  0  0  0
 10 11  4  0  0  0  0
 11 12  4  0  0  0  0
 12 13  4  0  0  0  0
  8 13  4  0  0  0  0
  1 14  1  0  0  0  0
  1 15  1  0  0  0  0
  1 16  1  0  0  0  0
  5 17  1  0  0  0  0
  5 18  1  0  0  0  0
  5 19  1  0  0  0  0
  7 20  1  0  0  0  0
  7 21  1  0  0  0  0
  7 22  1  0  0  0  0
  9 23  1  0  0  0  0
 10 24  1  0  0  0  0
 11 25  1  0  0  0  0
 12 26  1  0  0  0  0
 13 27  1  0  0  0  0
M  END
>  <InChIKey>
ZNOCGWVLWPVKAO-UHFFFAOYSA-N

>  <UN GHS>
Non-irritant

>  <CASRN>
2996-92-1

> <Outcome>
0

>  <Index>
1010

>  <StandardizerResult>
Dearomatize (ID: Dearomatize)
Clear Stereo (ID: ClearStereo)
Wedge Clean (ID: WedgeClean)
Mesomerize (ID: Mesomerize)
Tautomerize (ID: Tautomerize)
Aromatize (ID: Aromatize)
Add Explicit Hydrogens (ID: AddExplicitH)
Neutralize (ID: Neutralize)
Clean 2D (ID: Clean2D)

> <knn Distance>
3.60555124282837

> <CpId>
1010

$$$$
1020
  Mrv1532301301811342D          

 45 44  0  0  0  0            999 V2000
   -1.4513    3.9277    0.0000 C   0  0  0  0  0  0  0  0  0  0  0  0
   -0.7369    3.5152    0.0000 C   0  0  0  0  0  0  0  0  0  0  0  0
   -0.7369    2.6902    0.0000 C   0  0  0  0  0  0  0  0  0  0  0  0
   -0.0224    2.2777    0.0000 O   0  0  0  0  0  0  0  0  0  0  0  0
   -0.0224    1.4527    0.0000 Si  0  0  0  0  0  0  0  0  0  0  0  0
   -0.0224    0.6277    0.0000 O   0  0  0  0  0  0  0  0  0  0  0  0
   -0.7369    0.2152    0.0000 C   0  0  0  0  0  0  0  0  0  0  0  0
   -0.7369   -0.6098    0.0000 C   0  0  0  0  0  0  0  0  0  0  0  0
   -0.0224   -1.0223    0.0000 C   0  0  0  0  0  0  0  0  0  0  0  0
   -0.8474    1.4527    0.0000 O   0  0  0  0  0  0  0  0  0  0  0  0
   -1.2599    0.7383    0.0000 C   0  0  0  0  0  0  0  0  0  0  0  0
   -2.0849    0.7383    0.0000 C   0  0  0  0  0  0  0  0  0  0  0  0
   -2.4974    1.4527    0.0000 C   0  0  0  0  0  0  0  0  0  0  0  0
    0.8026    1.4527    0.0000 O   0  0  0  0  0  0  0  0  0  0  0  0
    1.2151    0.7383    0.0000 C   0  0  0  0  0  0  0  0  0  0  0  0
    0.8026    0.0238    0.0000 C   0  0  0  0  0  0  0  0  0  0  0  0
   -0.0224    0.0238    0.0000 C   0  0  0  0  0  0  0  0  0  0  0  0
   -1.0388    4.6422    0.0000 H   0  0  0  0  0  0  0  0  0  0  0  0
   -2.1658    4.3402    0.0000 H   0  0  0  0  0  0  0  0  0  0  0  0
   -1.8638    3.2133    0.0000 H   0  0  0  0  0  0  0  0  0  0  0  0
    0.0867    3.5632    0.0000 H   0  0  0  0  0  0  0  0  0  0  0  0
   -0.2835    4.2045    0.0000 H   0  0  0  0  0  0  0  0  0  0  0  0
   -1.5605    2.6423    0.0000 H   0  0  0  0  0  0  0  0  0  0  0  0
   -1.1902    2.0010    0.0000 H   0  0  0  0  0  0  0  0  0  0  0  0
   -1.4991   -0.1005    0.0000 H   0  0  0  0  0  0  0  0  0  0  0  0
   -0.6292    1.0332    0.0000 H   0  0  0  0  0  0  0  0  0  0  0  0
   -1.3896   -1.1144    0.0000 H   0  0  0  0  0  0  0  0  0  0  0  0
   -0.9008   -1.4183    0.0000 H   0  0  0  0  0  0  0  0  0  0  0  0
    0.1308   -1.8329    0.0000 H   0  0  0  0  0  0  0  0  0  0  0  0
    0.8016   -1.0635    0.0000 H   0  0  0  0  0  0  0  0  0  0  0  0
    0.2110   -0.2310    0.0000 H   0  0  0  0  0  0  0  0  0  0  0  0
   -1.4032    1.5507    0.0000 H   0  0  0  0  0  0  0  0  0  0  0  0
   -1.8919    1.2686    0.0000 H   0  0  0  0  0  0  0  0  0  0  0  0
   -2.7742    0.2849    0.0000 H   0  0  0  0  0  0  0  0  0  0  0  0
   -2.1329   -0.0853    0.0000 H   0  0  0  0  0  0  0  0  0  0  0  0
   -2.1141    2.1833    0.0000 H   0  0  0  0  0  0  0  0  0  0  0  0
   -3.1434    1.9658    0.0000 H   0  0  0  0  0  0  0  0  0  0  0  0
   -3.1222    0.9140    0.0000 H   0  0  0  0  0  0  0  0  0  0  0  0
    1.9523    0.3680    0.0000 H   0  0  0  0  0  0  0  0  0  0  0  0
    1.9523    1.1085    0.0000 H   0  0  0  0  0  0  0  0  0  0  0  0
    1.0517   -0.7627    0.0000 H   0  0  0  0  0  0  0  0  0  0  0  0
    1.5547   -0.3154    0.0000 H   0  0  0  0  0  0  0  0  0  0  0  0
   -0.2791   -0.7603    0.0000 H   0  0  0  0  0  0  0  0  0  0  0  0
    0.1517   -0.7826    0.0000 H   0  0  0  0  0  0  0  0  0  0  0  0
    0.5610    0.6072    0.0000 H   0  0  0  0  0  0  0  0  0  0  0  0
  1  2  1  0  0  0  0
  2  3  1  0  0  0  0
  3  4  1  0  0  0  0
  4  5  1  0  0  0  0
  5  6  1  0  0  0  0
  6  7  1  0  0  0  0
  7  8  1  0  0  0  0
  8  9  1  0  0  0  0
  5 10  1  0  0  0  0
 10 11  1  0  0  0  0
 11 12  1  0  0  0  0
 12 13  1  0  0  0  0
  5 14  1  0  0  0  0
 14 15  1  0  0  0  0
 15 16  1  0  0  0  0
 16 17  1  0  0  0  0
  1 18  1  0  0  0  0
  1 19  1  0  0  0  0
  1 20  1  0  0  0  0
  2 21  1  0  0  0  0
  2 22  1  0  0  0  0
  3 23  1  0  0  0  0
  3 24  1  0  0  0  0
  7 25  1  0  0  0  0
  7 26  1  0  0  0  0
  8 27  1  0  0  0  0
  8 28  1  0  0  0  0
  9 29  1  0  0  0  0
  9 30  1  0  0  0  0
  9 31  1  0  0  0  0
 11 32  1  0  0  0  0
 11 33  1  0  0  0  0
 12 34  1  0  0  0  0
 12 35  1  0  0  0  0
 13 36  1  0  0  0  0
 13 37  1  0  0  0  0
 13 38  1  0  0  0  0
 15 39  1  0  0  0  0
 15 40  1  0  0  0  0
 16 41  1  0  0  0  0
 16 42  1  0  0  0  0
 17 43  1  0  0  0  0
 17 44  1  0  0  0  0
 17 45  1  0  0  0  0
M  END
>  <InChIKey>
ZQZCOBSUOFHDEE-UHFFFAOYSA-N

>  <UN GHS>
Non-irritant

>  <CASRN>
682-01-9

> <Outcome>
0

>  <Index>
1020

>  <StandardizerResult>
Clear Stereo (ID: ClearStereo)
Wedge Clean (ID: WedgeClean)
Mesomerize (ID: Mesomerize)
Tautomerize (ID: Tautomerize)
Add Explicit Hydrogens (ID: AddExplicitH)
Neutralize (ID: Neutralize)
Clean 2D (ID: Clean2D)

> <knn Distance>
3.60555124282837

> <CpId>
1020

$$$$
1049
  Mrv1532301301811342D          

 21 22  0  0  0  0            999 V2000
    0.7791   -0.3993    0.0000 N   0  0  0  0  0  0  0  0  0  0  0  0
    0.7791   -1.2243    0.0000 C   0  0  0  0  0  0  0  0  0  0  0  0
    1.1916   -1.9388    0.0000 C   0  0  0  0  0  0  0  0  0  0  0  0
    0.3666   -1.9388    0.0000 C   0  0  0  0  0  0  0  0  0  0  0  0
   -0.3479   -2.3513    0.0000 C   0  0  0  0  0  0  0  0  0  0  0  0
   -0.3479   -3.1763    0.0000 C   0  0  0  0  0  0  0  0  0  0  0  0
   -1.0623   -3.5888    0.0000 C   0  0  0  0  0  0  0  0  0  0  0  0
   -1.7768   -3.1763    0.0000 C   0  0  0  0  0  0  0  0  0  0  0  0
   -1.7768   -2.3513    0.0000 C   0  0  0  0  0  0  0  0  0  0  0  0
   -1.0623   -1.9388    0.0000 C   0  0  0  0  0  0  0  0  0  0  0  0
    1.4936    0.0132    0.0000 H   0  0  0  0  0  0  0  0  0  0  0  0
    0.0646    0.0132    0.0000 H   0  0  0  0  0  0  0  0  0  0  0  0
   -0.0178   -1.0108    0.0000 H   0  0  0  0  0  0  0  0  0  0  0  0
    1.5619   -2.6760    0.0000 H   0  0  0  0  0  0  0  0  0  0  0  0
    2.0152   -1.8908    0.0000 H   0  0  0  0  0  0  0  0  0  0  0  0
   -0.2168   -1.3554    0.0000 H   0  0  0  0  0  0  0  0  0  0  0  0
    0.3666   -3.5888    0.0000 H   0  0  0  0  0  0  0  0  0  0  0  0
   -1.0623   -4.4138    0.0000 H   0  0  0  0  0  0  0  0  0  0  0  0
   -2.4913   -3.5888    0.0000 H   0  0  0  0  0  0  0  0  0  0  0  0
   -2.4913   -1.9388    0.0000 H   0  0  0  0  0  0  0  0  0  0  0  0
   -1.0623   -1.1138    0.0000 H   0  0  0  0  0  0  0  0  0  0  0  0
  1  2  1  0  0  0  0
  2  3  1  0  0  0  0
  3  4  1  0  0  0  0
  2  4  1  0  0  0  0
  4  5  1  0  0  0  0
  5  6  4  0  0  0  0
  6  7  4  0  0  0  0
  7  8  4  0  0  0  0
  8  9  4  0  0  0  0
  9 10  4  0  0  0  0
  5 10  4  0  0  0  0
  1 11  1  0  0  0  0
  1 12  1  0  0  0  0
  2 13  1  0  0  0  0
  3 14  1  0  0  0  0
  3 15  1  0  0  0  0
  4 16  1  0  0  0  0
  6 17  1  0  0  0  0
  7 18  1  0  0  0  0
  8 19  1  0  0  0  0
  9 20  1  0  0  0  0
 10 21  1  0  0  0  0
M  END
>  <InChIKey>
InChI=1S/C9H11N/c10-9-6-8(9)7-4-2-1-3-5-7/h1-5,8-9H,6,10H2

>  <CASRN>
95-62-5

> <Outcome>
0

>  <Index>
1049

>  <StandardizerResult>
Dearomatize (ID: Dearomatize)
Clear Stereo (ID: ClearStereo)
Wedge Clean (ID: WedgeClean)
Mesomerize (ID: Mesomerize)
Tautomerize (ID: Tautomerize)
Aromatize (ID: Aromatize)
Add Explicit Hydrogens (ID: AddExplicitH)
Neutralize (ID: Neutralize)
Clean 2D (ID: Clean2D)

> <knn Distance>
3.60555124282837

> <CpId>
1049

$$$$
1052
  Mrv1532301301811342D          

 38 37  0  0  0  0            999 V2000
   -0.1307   -3.1133    0.0000 C   0  0  0  0  0  0  0  0  0  0  0  0
    0.6794   -2.9574    0.0000 C   0  0  0  0  0  0  0  0  0  0  0  0
    1.2195   -3.5810    0.0000 C   0  0  0  0  0  0  0  0  0  0  0  0
    0.9494   -4.3606    0.0000 C   0  0  0  0  0  0  0  0  0  0  0  0
    0.1393   -4.5165    0.0000 O   0  0  0  0  0  0  0  0  0  0  0  0
    2.0296   -3.4251    0.0000 N   0  0  0  0  0  0  0  0  0  0  0  0
    2.5697   -4.0487    0.0000 C   0  0  0  0  0  0  0  0  0  0  0  0
    3.3798   -3.8928    0.0000 C   0  0  0  0  0  0  0  0  0  0  0  0
    3.9199   -4.5165    0.0000 N   0  0  0  0  0  0  0  0  0  0  0  0
    4.7301   -4.3606    0.0000 C   0  0  0  0  0  0  0  0  0  0  0  0
    5.2702   -4.9842    0.0000 C   0  0  0  0  0  0  0  0  0  0  0  0
    6.0803   -4.8283    0.0000 C   0  0  0  0  0  0  0  0  0  0  0  0
    5.0001   -3.5810    0.0000 C   0  0  0  0  0  0  0  0  0  0  0  0
    5.8102   -3.4251    0.0000 O   0  0  0  0  0  0  0  0  0  0  0  0
   -0.2867   -2.3031    0.0000 H   0  0  0  0  0  0  0  0  0  0  0  0
   -0.9409   -3.2692    0.0000 H   0  0  0  0  0  0  0  0  0  0  0  0
    0.0252   -3.9234    0.0000 H   0  0  0  0  0  0  0  0  0  0  0  0
    1.2706   -2.3819    0.0000 H   0  0  0  0  0  0  0  0  0  0  0  0
    0.5709   -2.1395    0.0000 H   0  0  0  0  0  0  0  0  0  0  0  0
    0.4093   -3.7369    0.0000 H   0  0  0  0  0  0  0  0  0  0  0  0
    1.1522   -5.1603    0.0000 H   0  0  0  0  0  0  0  0  0  0  0  0
    1.7120   -4.6755    0.0000 H   0  0  0  0  0  0  0  0  0  0  0  0
   -0.3233   -5.1996    0.0000 H   0  0  0  0  0  0  0  0  0  0  0  0
    2.2997   -2.6455    0.0000 H   0  0  0  0  0  0  0  0  0  0  0  0
    1.9785   -4.6242    0.0000 H   0  0  0  0  0  0  0  0  0  0  0  0
    2.6782   -4.8666    0.0000 H   0  0  0  0  0  0  0  0  0  0  0  0
    3.9710   -3.3174    0.0000 H   0  0  0  0  0  0  0  0  0  0  0  0
    3.2713   -3.0750    0.0000 H   0  0  0  0  0  0  0  0  0  0  0  0
    3.6499   -5.2960    0.0000 H   0  0  0  0  0  0  0  0  0  0  0  0
    4.4600   -5.1401    0.0000 H   0  0  0  0  0  0  0  0  0  0  0  0
    5.1396   -5.7988    0.0000 H   0  0  0  0  0  0  0  0  0  0  0  0
    5.6937   -5.6922    0.0000 H   0  0  0  0  0  0  0  0  0  0  0  0
    6.7317   -5.3346    0.0000 H   0  0  0  0  0  0  0  0  0  0  0  0
    6.7269   -4.3159    0.0000 H   0  0  0  0  0  0  0  0  0  0  0  0
    5.7363   -4.0784    0.0000 H   0  0  0  0  0  0  0  0  0  0  0  0
    4.7974   -2.7813    0.0000 H   0  0  0  0  0  0  0  0  0  0  0  0
    4.2376   -3.2661    0.0000 H   0  0  0  0  0  0  0  0  0  0  0  0
    6.3706   -2.8196    0.0000 H   0  0  0  0  0  0  0  0  0  0  0  0
  1  2  1  0  0  0  0
  2  3  1  0  0  0  0
  3  4  1  0  0  0  0
  4  5  1  0  0  0  0
  3  6  1  0  0  0  0
  6  7  1  0  0  0  0
  7  8  1  0  0  0  0
  8  9  1  0  0  0  0
  9 10  1  0  0  0  0
 10 11  1  0  0  0  0
 11 12  1  0  0  0  0
 10 13  1  0  0  0  0
 13 14  1  0  0  0  0
  1 15  1  0  0  0  0
  1 16  1  0  0  0  0
  1 17  1  0  0  0  0
  2 18  1  0  0  0  0
  2 19  1  0  0  0  0
  3 20  1  0  0  0  0
  4 21  1  0  0  0  0
  4 22  1  0  0  0  0
  5 23  1  0  0  0  0
  6 24  1  0  0  0  0
  7 25  1  0  0  0  0
  7 26  1  0  0  0  0
  8 27  1  0  0  0  0
  8 28  1  0  0  0  0
  9 29  1  0  0  0  0
 10 30  1  0  0  0  0
 11 31  1  0  0  0  0
 11 32  1  0  0  0  0
 12 33  1  0  0  0  0
 12 34  1  0  0  0  0
 12 35  1  0  0  0  0
 13 36  1  0  0  0  0
 13 37  1  0  0  0  0
 14 38  1  0  0  0  0
M  END
>  <InChIKey>
InChI=1S/C10H24N2O2/c1-3-9(7-13)11-5-6-12-10(4-2)8-14/h9-14H,3-8H2,1-2H3

>  <CASRN>
74-55-5

> <Outcome>
0

>  <Index>
1052

>  <StandardizerResult>
Clear Stereo (ID: ClearStereo)
Wedge Clean (ID: WedgeClean)
Mesomerize (ID: Mesomerize)
Tautomerize (ID: Tautomerize)
Add Explicit Hydrogens (ID: AddExplicitH)
Neutralize (ID: Neutralize)
Clean 2D (ID: Clean2D)

> <knn Distance>
3.60555124282837

> <CpId>
1052

$$$$
1438
  Mrv1532301301811342D          

 43 44  0  0  0  0            999 V2000
    2.5359   -2.1505    0.0000 C   0  0  0  0  0  0  0  0  0  0  0  0
    2.1234   -2.8649    0.0000 C   0  0  0  0  0  0  0  0  0  0  0  0
    1.7109   -3.5794    0.0000 C   0  0  0  0  0  0  0  0  0  0  0  0
    2.8379   -3.2774    0.0000 C   0  0  0  0  0  0  0  0  0  0  0  0
    2.8379   -4.1024    0.0000 O   0  0  0  0  0  0  0  0  0  0  0  0
    3.5523   -4.5149    0.0000 C   0  0  0  0  0  0  0  0  0  0  0  0
    4.2668   -4.1024    0.0000 O   0  0  0  0  0  0  0  0  0  0  0  0
    3.5523   -5.3399    0.0000 C   0  0  0  0  0  0  0  0  0  0  0  0
    4.2668   -5.7524    0.0000 C   0  0  0  0  0  0  0  0  0  0  0  0
    4.2668   -6.5774    0.0000 C   0  0  0  0  0  0  0  0  0  0  0  0
    3.5523   -6.9899    0.0000 C   0  0  0  0  0  0  0  0  0  0  0  0
    2.8379   -6.5774    0.0000 C   0  0  0  0  0  0  0  0  0  0  0  0
    2.8379   -5.7524    0.0000 C   0  0  0  0  0  0  0  0  0  0  0  0
    1.4089   -2.4524    0.0000 C   0  0  0  0  0  0  0  0  0  0  0  0
    1.4089   -1.6274    0.0000 O   0  0  0  0  0  0  0  0  0  0  0  0
    0.6944   -1.2149    0.0000 C   0  0  0  0  0  0  0  0  0  0  0  0
   -0.0200   -1.6274    0.0000 O   0  0  0  0  0  0  0  0  0  0  0  0
    0.6944   -0.3899    0.0000 C   0  0  0  0  0  0  0  0  0  0  0  0
   -0.0200    0.0226    0.0000 C   0  0  0  0  0  0  0  0  0  0  0  0
   -0.0200    0.8476    0.0000 C   0  0  0  0  0  0  0  0  0  0  0  0
    0.6944    1.2601    0.0000 C   0  0  0  0  0  0  0  0  0  0  0  0
    1.4089    0.8476    0.0000 C   0  0  0  0  0  0  0  0  0  0  0  0
    1.4089    0.0226    0.0000 C   0  0  0  0  0  0  0  0  0  0  0  0
    3.2504   -2.5630    0.0000 H   0  0  0  0  0  0  0  0  0  0  0  0
    2.9484   -1.4360    0.0000 H   0  0  0  0  0  0  0  0  0  0  0  0
    1.8214   -1.7380    0.0000 H   0  0  0  0  0  0  0  0  0  0  0  0
    0.9964   -3.1669    0.0000 H   0  0  0  0  0  0  0  0  0  0  0  0
    1.2984   -4.2939    0.0000 H   0  0  0  0  0  0  0  0  0  0  0  0
    2.4254   -3.9919    0.0000 H   0  0  0  0  0  0  0  0  0  0  0  0
    3.4698   -3.8077    0.0000 H   0  0  0  0  0  0  0  0  0  0  0  0
    3.6503   -3.1342    0.0000 H   0  0  0  0  0  0  0  0  0  0  0  0
    4.9813   -5.3399    0.0000 H   0  0  0  0  0  0  0  0  0  0  0  0
    4.9813   -6.9899    0.0000 H   0  0  0  0  0  0  0  0  0  0  0  0
    3.5523   -7.8149    0.0000 H   0  0  0  0  0  0  0  0  0  0  0  0
    2.1234   -6.9899    0.0000 H   0  0  0  0  0  0  0  0  0  0  0  0
    2.1234   -5.3399    0.0000 H   0  0  0  0  0  0  0  0  0  0  0  0
    0.6120   -2.2389    0.0000 H   0  0  0  0  0  0  0  0  0  0  0  0
    1.6224   -3.2493    0.0000 H   0  0  0  0  0  0  0  0  0  0  0  0
   -0.7345   -0.3899    0.0000 H   0  0  0  0  0  0  0  0  0  0  0  0
   -0.7345    1.2601    0.0000 H   0  0  0  0  0  0  0  0  0  0  0  0
    0.6944    2.0851    0.0000 H   0  0  0  0  0  0  0  0  0  0  0  0
    2.1234    1.2601    0.0000 H   0  0  0  0  0  0  0  0  0  0  0  0
    2.1234   -0.3899    0.0000 H   0  0  0  0  0  0  0  0  0  0  0  0
  1  2  1  0  0  0  0
  2  3  1  0  0  0  0
  2  4  1  0  0  0  0
  4  5  1  0  0  0  0
  5  6  1  0  0  0  0
  6  7  2  0  0  0  0
  6  8  1  0  0  0  0
  8  9  4  0  0  0  0
  9 10  4  0  0  0  0
 10 11  4  0  0  0  0
 11 12  4  0  0  0  0
 12 13  4  0  0  0  0
  8 13  4  0  0  0  0
  2 14  1  0  0  0  0
 14 15  1  0  0  0  0
 15 16  1  0  0  0  0
 16 17  2  0  0  0  0
 16 18  1  0  0  0  0
 18 19  4  0  0  0  0
 19 20  4  0  0  0  0
 20 21  4  0  0  0  0
 21 22  4  0  0  0  0
 22 23  4  0  0  0  0
 18 23  4  0  0  0  0
  1 24  1  0  0  0  0
  1 25  1  0  0  0  0
  1 26  1  0  0  0  0
  3 27  1  0  0  0  0
  3 28  1  0  0  0  0
  3 29  1  0  0  0  0
  4 30  1  0  0  0  0
  4 31  1  0  0  0  0
  9 32  1  0  0  0  0
 10 33  1  0  0  0  0
 11 34  1  0  0  0  0
 12 35  1  0  0  0  0
 13 36  1  0  0  0  0
 14 37  1  0  0  0  0
 14 38  1  0  0  0  0
 19 39  1  0  0  0  0
 20 40  1  0  0  0  0
 21 41  1  0  0  0  0
 22 42  1  0  0  0  0
 23 43  1  0  0  0  0
M  END
>  <InChIKey>
InChI=1S/C19H20O4/c1-19(2,13-22-17(20)15-9-5-3-6-10-15)14-23-18(21)16-11-7-4-8-12-16/h3-12H,13-14H2,1-2H3

>  <UN GHS>
Non-irritant

>  <CASRN>
4196-89-8

> <Outcome>
0

>  <Index>
1438

>  <StandardizerResult>
Dearomatize (ID: Dearomatize)
Clear Stereo (ID: ClearStereo)
Wedge Clean (ID: WedgeClean)
Mesomerize (ID: Mesomerize)
Tautomerize (ID: Tautomerize)
Aromatize (ID: Aromatize)
Add Explicit Hydrogens (ID: AddExplicitH)
Neutralize (ID: Neutralize)
Clean 2D (ID: Clean2D)

> <knn Distance>
3.60555124282837

> <CpId>
1438

$$$$
1543
  Mrv1532301301811342D          

 26 26  0  0  0  0            999 V2000
    0.0451    3.2315    0.0000 C   0  0  0  0  0  0  0  0  0  0  0  0
    0.0451    2.4065    0.0000 C   0  0  0  0  0  0  0  0  0  0  0  0
   -0.6693    1.9940    0.0000 N   0  0  0  0  0  0  0  0  0  0  0  0
    0.7596    1.9940    0.0000 C   0  0  0  0  0  0  0  0  0  0  0  0
    1.4741    2.4065    0.0000 O   0  0  0  0  0  0  0  0  0  0  0  0
    0.7596    1.1690    0.0000 C   0  0  0  0  0  0  0  0  0  0  0  0
    1.4741    0.7565    0.0000 C   0  0  0  0  0  0  0  0  0  0  0  0
    1.4741   -0.0685    0.0000 C   0  0  0  0  0  0  0  0  0  0  0  0
    0.7596   -0.4810    0.0000 C   0  0  0  0  0  0  0  0  0  0  0  0
    0.7596   -1.3060    0.0000 O   0  0  0  0  0  0  0  0  0  0  0  0
    0.0451   -0.0685    0.0000 C   0  0  0  0  0  0  0  0  0  0  0  0
   -0.6693   -0.4810    0.0000 O   0  0  0  0  0  0  0  0  0  0  0  0
    0.0451    0.7565    0.0000 C   0  0  0  0  0  0  0  0  0  0  0  0
    0.8701    3.2315    0.0000 H   0  0  0  0  0  0  0  0  0  0  0  0
    0.0451    4.0565    0.0000 H   0  0  0  0  0  0  0  0  0  0  0  0
   -0.7799    3.2315    0.0000 H   0  0  0  0  0  0  0  0  0  0  0  0
   -0.6693    2.8190    0.0000 H   0  0  0  0  0  0  0  0  0  0  0  0
   -1.4066    1.6238    0.0000 H   0  0  0  0  0  0  0  0  0  0  0  0
   -0.6214    1.1704    0.0000 H   0  0  0  0  0  0  0  0  0  0  0  0
    0.7596    2.8190    0.0000 H   0  0  0  0  0  0  0  0  0  0  0  0
    2.2991    2.4065    0.0000 H   0  0  0  0  0  0  0  0  0  0  0  0
    2.1886    1.1690    0.0000 H   0  0  0  0  0  0  0  0  0  0  0  0
    2.1886   -0.4810    0.0000 H   0  0  0  0  0  0  0  0  0  0  0  0
    0.0451   -1.7185    0.0000 H   0  0  0  0  0  0  0  0  0  0  0  0
   -1.3838   -0.0685    0.0000 H   0  0  0  0  0  0  0  0  0  0  0  0
    0.0584    1.5814    0.0000 H   0  0  0  0  0  0  0  0  0  0  0  0
  1  2  1  0  0  0  0
  2  3  1  0  0  0  0
  2  4  1  0  0  0  0
  4  5  1  0  0  0  0
  4  6  1  0  0  0  0
  6  7  4  0  0  0  0
  7  8  4  0  0  0  0
  8  9  4  0  0  0  0
  9 10  1  0  0  0  0
  9 11  4  0  0  0  0
 11 12  1  0  0  0  0
 11 13  4  0  0  0  0
  6 13  4  0  0  0  0
  1 14  1  0  0  0  0
  1 15  1  0  0  0  0
  1 16  1  0  0  0  0
  2 17  1  0  0  0  0
  3 18  1  0  0  0  0
  3 19  1  0  0  0  0
  4 20  1  0  0  0  0
  5 21  1  0  0  0  0
  7 22  1  0  0  0  0
  8 23  1  0  0  0  0
 10 24  1  0  0  0  0
 12 25  1  0  0  0  0
 13 26  1  0  0  0  0
M  END
>  <InChIKey>
InChI=1S/C9H13NO3/c1-5(10)9(13)6-2-3-7(11)8(12)4-6/h2-5,9,11-13H,10H2,1H3

>  <CASRN>
829-74-3

> <Outcome>
0

>  <Index>
1543

>  <StandardizerResult>
Dearomatize (ID: Dearomatize)
Clear Stereo (ID: ClearStereo)
Wedge Clean (ID: WedgeClean)
Mesomerize (ID: Mesomerize)
Tautomerize (ID: Tautomerize)
Aromatize (ID: Aromatize)
Add Explicit Hydrogens (ID: AddExplicitH)
Neutralize (ID: Neutralize)
Clean 2D (ID: Clean2D)

> <knn Distance>
3.60555124282837

> <CpId>
1543

$$$$
1586
  Mrv1532301301811342D          

 21 22  0  0  0  0            999 V2000
    0.0000   -1.6500    0.0000 C   0  0  0  0  0  0  0  0  0  0  0  0
    0.7145   -1.2375    0.0000 C   0  0  0  0  0  0  0  0  0  0  0  0
    0.7145   -0.4125    0.0000 C   0  0  0  0  0  0  0  0  0  0  0  0
    1.4289    0.0000    0.0000 C   0  0  0  0  0  0  0  0  0  0  0  0
    2.1434   -0.4125    0.0000 C   0  0  0  0  0  0  0  0  0  0  0  0
    2.8579    0.0000    0.0000 C   0  0  0  0  0  0  0  0  0  0  0  0
    2.8579    0.8250    0.0000 Cl  0  0  0  0  0  0  0  0  0  0  0  0
    3.5724   -0.4125    0.0000 C   0  0  0  0  0  0  0  0  0  0  0  0
    3.5724   -1.2375    0.0000 C   0  0  0  0  0  0  0  0  0  0  0  0
    4.2868   -1.6500    0.0000 Cl  0  0  0  0  0  0  0  0  0  0  0  0
    2.8579   -1.6500    0.0000 C   0  0  0  0  0  0  0  0  0  0  0  0
    2.8579   -2.4750    0.0000 O   0  0  0  0  0  0  0  0  0  0  0  0
    2.1434   -1.2375    0.0000 C   0  0  0  0  0  0  0  0  0  0  0  0
    1.4289   -1.6500    0.0000 N   0  0  0  0  0  0  0  0  0  0  0  0
   -0.4125   -0.9355    0.0000 H   0  0  0  0  0  0  0  0  0  0  0  0
   -0.7145   -2.0625    0.0000 H   0  0  0  0  0  0  0  0  0  0  0  0
    0.4125   -2.3645    0.0000 H   0  0  0  0  0  0  0  0  0  0  0  0
    0.0000    0.0000    0.0000 H   0  0  0  0  0  0  0  0  0  0  0  0
    1.4289    0.8250    0.0000 H   0  0  0  0  0  0  0  0  0  0  0  0
    4.2868    0.0000    0.0000 H   0  0  0  0  0  0  0  0  0  0  0  0
    2.1434   -2.8875    0.0000 H   0  0  0  0  0  0  0  0  0  0  0  0
  1  2  1  0  0  0  0
  2  3  4  0  0  0  0
  3  4  4  0  0  0  0
  4  5  4  0  0  0  0
  5  6  4  0  0  0  0
  6  7  1  0  0  0  0
  6  8  4  0  0  0  0
  8  9  4  0  0  0  0
  9 10  1  0  0  0  0
  9 11  4  0  0  0  0
 11 12  1  0  0  0  0
 11 13  4  0  0  0  0
  5 13  4  0  0  0  0
 13 14  4  0  0  0  0
  2 14  4  0  0  0  0
  1 15  1  0  0  0  0
  1 16  1  0  0  0  0
  1 17  1  0  0  0  0
  3 18  1  0  0  0  0
  4 19  1  0  0  0  0
  8 20  1  0  0  0  0
 12 21  1  0  0  0  0
M  END
>  <InChIKey>
InChI=1S/C10H7Cl2NO/c1-5-2-3-6-7(11)4-8(12)10(14)9(6)13-5/h2-4,14H,1H3

>  <CASRN>
72-80-0

> <Outcome>
0

>  <Index>
1586

>  <StandardizerResult>
Dearomatize (ID: Dearomatize)
Clear Stereo (ID: ClearStereo)
Wedge Clean (ID: WedgeClean)
Mesomerize (ID: Mesomerize)
Tautomerize (ID: Tautomerize)
Aromatize (ID: Aromatize)
Add Explicit Hydrogens (ID: AddExplicitH)
Neutralize (ID: Neutralize)
Clean 2D (ID: Clean2D)

> <knn Distance>
3.60555124282837

> <CpId>
1586

$$$$
1697
  Mrv1532301301811342D          

 28 28  0  0  0  0            999 V2000
   -0.0149    1.6583    0.0000 C   0  0  0  0  0  0  0  0  0  0  0  0
    0.6996    1.2458    0.0000 O   0  0  0  0  0  0  0  0  0  0  0  0
    1.4140    1.6583    0.0000 C   0  0  0  0  0  0  0  0  0  0  0  0
    1.4140    2.4833    0.0000 C   0  0  0  0  0  0  0  0  0  0  0  0
    2.1285    2.8958    0.0000 C   0  0  0  0  0  0  0  0  0  0  0  0
    2.8430    2.4833    0.0000 C   0  0  0  0  0  0  0  0  0  0  0  0
    2.8430    1.6583    0.0000 C   0  0  0  0  0  0  0  0  0  0  0  0
    2.1285    1.2458    0.0000 C   0  0  0  0  0  0  0  0  0  0  0  0
    2.1285    0.4208    0.0000 O   0  0  0  0  0  0  0  0  0  0  0  0
    2.8430    0.0083    0.0000 C   0  0  0  0  0  0  0  0  0  0  0  0
    3.5575    0.4208    0.0000 C   0  0  0  0  0  0  0  0  0  0  0  0
    3.5575    1.2458    0.0000 O   0  0  0  0  0  0  0  0  0  0  0  0
    4.2719    0.0083    0.0000 C   0  0  0  0  0  0  0  0  0  0  0  0
    4.9864    0.4208    0.0000 O   0  0  0  0  0  0  0  0  0  0  0  0
    0.3976    2.3728    0.0000 H   0  0  0  0  0  0  0  0  0  0  0  0
   -0.7294    2.0708    0.0000 H   0  0  0  0  0  0  0  0  0  0  0  0
   -0.4274    0.9438    0.0000 H   0  0  0  0  0  0  0  0  0  0  0  0
    0.6996    2.8958    0.0000 H   0  0  0  0  0  0  0  0  0  0  0  0
    2.1285    3.7208    0.0000 H   0  0  0  0  0  0  0  0  0  0  0  0
    3.5575    2.8958    0.0000 H   0  0  0  0  0  0  0  0  0  0  0  0
    2.8430    0.8333    0.0000 H   0  0  0  0  0  0  0  0  0  0  0  0
    2.4727   -0.7290    0.0000 H   0  0  0  0  0  0  0  0  0  0  0  0
    3.2133   -0.7290    0.0000 H   0  0  0  0  0  0  0  0  0  0  0  0
    4.2719    0.8333    0.0000 H   0  0  0  0  0  0  0  0  0  0  0  0
    3.9700    1.9603    0.0000 H   0  0  0  0  0  0  0  0  0  0  0  0
    3.9017   -0.7290    0.0000 H   0  0  0  0  0  0  0  0  0  0  0  0
    4.6422   -0.7290    0.0000 H   0  0  0  0  0  0  0  0  0  0  0  0
    5.8114    0.4208    0.0000 H   0  0  0  0  0  0  0  0  0  0  0  0
  1  2  1  0  0  0  0
  2  3  1  0  0  0  0
  3  4  4  0  0  0  0
  4  5  4  0  0  0  0
  5  6  4  0  0  0  0
  6  7  4  0  0  0  0
  7  8  4  0  0  0  0
  3  8  4  0  0  0  0
  8  9  1  0  0  0  0
  9 10  1  0  0  0  0
 10 11  1  0  0  0  0
 11 12  1  0  0  0  0
 11 13  1  0  0  0  0
 13 14  1  0  0  0  0
  1 15  1  0  0  0  0
  1 16  1  0  0  0  0
  1 17  1  0  0  0  0
  4 18  1  0  0  0  0
  5 19  1  0  0  0  0
  6 20  1  0  0  0  0
  7 21  1  0  0  0  0
 10 22  1  0  0  0  0
 10 23  1  0  0  0  0
 11 24  1  0  0  0  0
 12 25  1  0  0  0  0
 13 26  1  0  0  0  0
 13 27  1  0  0  0  0
 14 28  1  0  0  0  0
M  END
>  <InChIKey>
InChI=1S/C10H14O4/c1-13-9-4-2-3-5-10(9)14-7-8(12)6-11/h2-5,8,11-12H,6-7H2,1H3

>  <CASRN>
93-14-1

> <Outcome>
0

>  <Index>
1697

>  <StandardizerResult>
Dearomatize (ID: Dearomatize)
Clear Stereo (ID: ClearStereo)
Wedge Clean (ID: WedgeClean)
Mesomerize (ID: Mesomerize)
Tautomerize (ID: Tautomerize)
Aromatize (ID: Aromatize)
Add Explicit Hydrogens (ID: AddExplicitH)
Neutralize (ID: Neutralize)
Clean 2D (ID: Clean2D)

> <knn Distance>
3.60555124282837

> <CpId>
1697

$$$$
1745
  Mrv1532301301811342D          

 28 29  0  0  0  0            999 V2000
    2.8579   -1.6500    0.0000 Cl  0  0  0  0  0  0  0  0  0  0  0  0
    2.8579   -2.4750    0.0000 C   0  0  0  0  0  0  0  0  0  0  0  0
    3.5724   -2.8875    0.0000 C   0  0  0  0  0  0  0  0  0  0  0  0
    3.5724   -3.7125    0.0000 C   0  0  0  0  0  0  0  0  0  0  0  0
    2.8579   -4.1250    0.0000 C   0  0  0  0  0  0  0  0  0  0  0  0
    2.8579   -4.9500    0.0000 N   0  0  0  0  0  0  0  0  0  0  0  0
    2.1434   -5.3625    0.0000 C   0  0  0  0  0  0  0  0  0  0  0  0
    1.4289   -4.9500    0.0000 O   0  0  0  0  0  0  0  0  0  0  0  0
    2.1434   -6.1875    0.0000 N   0  0  0  0  0  0  0  0  0  0  0  0
    1.4289   -6.6000    0.0000 C   0  0  0  0  0  0  0  0  0  0  0  0
    1.4289   -7.4250    0.0000 C   0  0  0  0  0  0  0  0  0  0  0  0
    0.7145   -7.8375    0.0000 C   0  0  0  0  0  0  0  0  0  0  0  0
    0.0000   -7.4250    0.0000 C   0  0  0  0  0  0  0  0  0  0  0  0
   -0.7145   -7.8375    0.0000 Cl  0  0  0  0  0  0  0  0  0  0  0  0
    0.0000   -6.6000    0.0000 C   0  0  0  0  0  0  0  0  0  0  0  0
   -0.7145   -6.1875    0.0000 Cl  0  0  0  0  0  0  0  0  0  0  0  0
    0.7145   -6.1875    0.0000 C   0  0  0  0  0  0  0  0  0  0  0  0
    2.1434   -3.7125    0.0000 C   0  0  0  0  0  0  0  0  0  0  0  0
    2.1434   -2.8875    0.0000 C   0  0  0  0  0  0  0  0  0  0  0  0
    4.2868   -2.4750    0.0000 H   0  0  0  0  0  0  0  0  0  0  0  0
    4.2868   -4.1250    0.0000 H   0  0  0  0  0  0  0  0  0  0  0  0
    3.5724   -5.3625    0.0000 H   0  0  0  0  0  0  0  0  0  0  0  0
    2.8579   -6.6000    0.0000 H   0  0  0  0  0  0  0  0  0  0  0  0
    2.1434   -7.8375    0.0000 H   0  0  0  0  0  0  0  0  0  0  0  0
    0.7145   -8.6625    0.0000 H   0  0  0  0  0  0  0  0  0  0  0  0
    0.7145   -5.3625    0.0000 H   0  0  0  0  0  0  0  0  0  0  0  0
    1.4289   -4.1250    0.0000 H   0  0  0  0  0  0  0  0  0  0  0  0
    1.4289   -2.4750    0.0000 H   0  0  0  0  0  0  0  0  0  0  0  0
  1  2  1  0  0  0  0
  2  3  4  0  0  0  0
  3  4  4  0  0  0  0
  4  5  4  0  0  0  0
  5  6  1  0  0  0  0
  6  7  1  0  0  0  0
  7  8  2  0  0  0  0
  7  9  1  0  0  0  0
  9 10  1  0  0  0  0
 10 11  4  0  0  0  0
 11 12  4  0  0  0  0
 12 13  4  0  0  0  0
 13 14  1  0  0  0  0
 13 15  4  0  0  0  0
 15 16  1  0  0  0  0
 15 17  4  0  0  0  0
 10 17  4  0  0  0  0
  5 18  4  0  0  0  0
 18 19  4  0  0  0  0
  2 19  4  0  0  0  0
  3 20  1  0  0  0  0
  4 21  1  0  0  0  0
  6 22  1  0  0  0  0
  9 23  1  0  0  0  0
 11 24  1  0  0  0  0
 12 25  1  0  0  0  0
 17 26  1  0  0  0  0
 18 27  1  0  0  0  0
 19 28  1  0  0  0  0
M  END
>  <InChIKey>
InChI=1S/C13H9Cl3N2O/c14-8-1-3-9(4-2-8)17-13(19)18-10-5-6-11(15)12(16)7-10/h1-7H,(H2,17,18,19)

>  <UN GHS>
Non-irritant

>  <CASRN>
101-20-2

> <Outcome>
0

>  <Index>
1745

>  <StandardizerResult>
Dearomatize (ID: Dearomatize)
Clear Stereo (ID: ClearStereo)
Wedge Clean (ID: WedgeClean)
Mesomerize (ID: Mesomerize)
Tautomerize (ID: Tautomerize)
Aromatize (ID: Aromatize)
Add Explicit Hydrogens (ID: AddExplicitH)
Neutralize (ID: Neutralize)
Clean 2D (ID: Clean2D)

> <knn Distance>
3.60555124282837

> <CpId>
1745

$$$$
1774
  Mrv1532301301811342D          

 54 57  0  0  0  0            999 V2000
    1.8008   -2.1040    0.0000 C   0  0  0  0  0  0  0  0  0  0  0  0
    2.3326   -1.4733    0.0000 C   0  0  0  0  0  0  0  0  0  0  0  0
    3.1448   -1.6185    0.0000 C   0  0  0  0  0  0  0  0  0  0  0  0
    3.6766   -0.9878    0.0000 C   0  0  0  0  0  0  0  0  0  0  0  0
    3.9569   -1.7637    0.0000 C   0  0  0  0  0  0  0  0  0  0  0  0
    3.3963   -0.2119    0.0000 C   0  0  0  0  0  0  0  0  0  0  0  0
    3.9281    0.4188    0.0000 C   0  0  0  0  0  0  0  0  0  0  0  0
    4.7402    0.2736    0.0000 C   0  0  0  0  0  0  0  0  0  0  0  0
    5.0205   -0.5023    0.0000 C   0  0  0  0  0  0  0  0  0  0  0  0
    5.8326   -0.6475    0.0000 C   0  0  0  0  0  0  0  0  0  0  0  0
    6.4840   -0.1412    0.0000 C   0  0  0  0  0  0  0  0  0  0  0  0
    7.1668   -0.6042    0.0000 C   0  0  0  0  0  0  0  0  0  0  0  0
    6.9375   -1.3966    0.0000 C   0  0  0  0  0  0  0  0  0  0  0  0
    7.4439   -2.0480    0.0000 O   0  0  0  0  0  0  0  0  0  0  0  0
    6.1129   -1.4235    0.0000 C   0  0  0  0  0  0  0  0  0  0  0  0
    6.4728   -2.1658    0.0000 C   0  0  0  0  0  0  0  0  0  0  0  0
    5.5811   -2.0542    0.0000 C   0  0  0  0  0  0  0  0  0  0  0  0
    4.7690   -1.9089    0.0000 C   0  0  0  0  0  0  0  0  0  0  0  0
    4.4887   -1.1330    0.0000 C   0  0  0  0  0  0  0  0  0  0  0  0
    2.5842   -0.0667    0.0000 C   0  0  0  0  0  0  0  0  0  0  0  0
    2.0523   -0.6974    0.0000 C   0  0  0  0  0  0  0  0  0  0  0  0
    1.2402   -0.5522    0.0000 O   0  0  0  0  0  0  0  0  0  0  0  0
    1.1701   -1.5722    0.0000 H   0  0  0  0  0  0  0  0  0  0  0  0
    1.2690   -2.7347    0.0000 H   0  0  0  0  0  0  0  0  0  0  0  0
    2.4315   -2.6358    0.0000 H   0  0  0  0  0  0  0  0  0  0  0  0
    1.5205   -1.3281    0.0000 H   0  0  0  0  0  0  0  0  0  0  0  0
    2.7305   -2.3320    0.0000 H   0  0  0  0  0  0  0  0  0  0  0  0
    3.2861   -2.4313    0.0000 H   0  0  0  0  0  0  0  0  0  0  0  0
    3.7589   -2.5646    0.0000 H   0  0  0  0  0  0  0  0  0  0  0  0
    4.2031   -2.5511    0.0000 H   0  0  0  0  0  0  0  0  0  0  0  0
    4.5758   -2.3092    0.0000 H   0  0  0  0  0  0  0  0  0  0  0  0
    3.1160    0.5640    0.0000 H   0  0  0  0  0  0  0  0  0  0  0  0
    4.3423    1.1323    0.0000 H   0  0  0  0  0  0  0  0  0  0  0  0
    3.7868    1.2316    0.0000 H   0  0  0  0  0  0  0  0  0  0  0  0
    5.5648    0.2996    0.0000 H   0  0  0  0  0  0  0  0  0  0  0  0
    5.3444    0.8354    0.0000 H   0  0  0  0  0  0  0  0  0  0  0  0
    5.3008   -1.2782    0.0000 H   0  0  0  0  0  0  0  0  0  0  0  0
    5.6350    0.1534    0.0000 H   0  0  0  0  0  0  0  0  0  0  0  0
    7.1000    0.4076    0.0000 H   0  0  0  0  0  0  0  0  0  0  0  0
    6.5555    0.6807    0.0000 H   0  0  0  0  0  0  0  0  0  0  0  0
    7.9835   -0.7209    0.0000 H   0  0  0  0  0  0  0  0  0  0  0  0
    7.7203    0.0076    0.0000 H   0  0  0  0  0  0  0  0  0  0  0  0
    7.7477   -1.2412    0.0000 H   0  0  0  0  0  0  0  0  0  0  0  0
    7.5674   -2.8637    0.0000 H   0  0  0  0  0  0  0  0  0  0  0  0
    5.9921   -2.8363    0.0000 H   0  0  0  0  0  0  0  0  0  0  0  0
    6.8327   -2.9082    0.0000 H   0  0  0  0  0  0  0  0  0  0  0  0
    7.2969   -2.2038    0.0000 H   0  0  0  0  0  0  0  0  0  0  0  0
    4.8852   -2.4972    0.0000 H   0  0  0  0  0  0  0  0  0  0  0  0
    5.3690   -2.8514    0.0000 H   0  0  0  0  0  0  0  0  0  0  0  0
    4.1383   -1.3771    0.0000 H   0  0  0  0  0  0  0  0  0  0  0  0
    4.9142   -1.0968    0.0000 H   0  0  0  0  0  0  0  0  0  0  0  0
    4.2084   -0.3571    0.0000 H   0  0  0  0  0  0  0  0  0  0  0  0
    2.1734    0.6488    0.0000 H   0  0  0  0  0  0  0  0  0  0  0  0
    1.8096    0.2174    0.0000 H   0  0  0  0  0  0  0  0  0  0  0  0
  1  2  1  0  0  0  0
  2  3  1  0  0  0  0
  3  4  1  0  0  0  0
  4  5  1  0  0  0  0
  4  6  1  0  0  0  0
  6  7  1  0  0  0  0
  7  8  1  0  0  0  0
  8  9  1  0  0  0  0
  9 10  1  0  0  0  0
 10 11  1  0  0  0  0
 11 12  1  0  0  0  0
 12 13  1  0  0  0  0
 13 14  1  0  0  0  0
 13 15  1  0  0  0  0
 10 15  1  0  0  0  0
 15 16  1  0  0  0  0
 15 17  1  0  0  0  0
 17 18  1  0  0  0  0
 18 19  1  0  0  0  0
  4 19  1  0  0  0  0
  9 19  1  0  0  0  0
  6 20  1  0  0  0  0
 20 21  1  0  0  0  0
  2 21  1  0  0  0  0
 21 22  2  0  0  0  0
  1 23  1  0  0  0  0
  1 24  1  0  0  0  0
  1 25  1  0  0  0  0
  2 26  1  0  0  0  0
  3 27  1  0  0  0  0
  3 28  1  0  0  0  0
  5 29  1  0  0  0  0
  5 30  1  0  0  0  0
  5 31  1  0  0  0  0
  6 32  1  0  0  0  0
  7 33  1  0  0  0  0
  7 34  1  0  0  0  0
  8 35  1  0  0  0  0
  8 36  1  0  0  0  0
  9 37  1  0  0  0  0
 10 38  1  0  0  0  0
 11 39  1  0  0  0  0
 11 40  1  0  0  0  0
 12 41  1  0  0  0  0
 12 42  1  0  0  0  0
 13 43  1  0  0  0  0
 14 44  1  0  0  0  0
 16 45  1  0  0  0  0
 16 46  1  0  0  0  0
 16 47  1  0  0  0  0
 17 48  1  0  0  0  0
 17 49  1  0  0  0  0
 18 50  1  0  0  0  0
 18 51  1  0  0  0  0
 19 52  1  0  0  0  0
 20 53  1  0  0  0  0
 20 54  1  0  0  0  0
M  END
>  <InChIKey>
InChI=1S/C20H32O2/c1-12-11-20(3)13(10-17(12)21)4-5-14-15-6-7-18(22)19(15,2)9-8-16(14)20/h12-16,18,22H,4-11H2,1-3H3

>  <CASRN>
58-19-5

> <Outcome>
0

>  <Index>
1774

>  <StandardizerResult>
Clear Stereo (ID: ClearStereo)
Wedge Clean (ID: WedgeClean)
Mesomerize (ID: Mesomerize)
Tautomerize (ID: Tautomerize)
Add Explicit Hydrogens (ID: AddExplicitH)
Neutralize (ID: Neutralize)
Clean 2D (ID: Clean2D)

> <knn Distance>
3.60555124282837

> <CpId>
1774

$$$$
1856
  Mrv1532301301811342D          

 32 32  0  0  0  0            999 V2000
   -0.7451    3.8064    0.0000 C   0  0  0  0  0  0  0  0  0  0  0  0
   -0.0306    3.3939    0.0000 N   0  0  0  0  0  0  0  0  0  0  0  0
   -0.0306    2.5689    0.0000 C   0  0  0  0  0  0  0  0  0  0  0  0
   -0.7451    2.1564    0.0000 C   0  0  0  0  0  0  0  0  0  0  0  0
    0.6839    2.1564    0.0000 C   0  0  0  0  0  0  0  0  0  0  0  0
    0.6839    1.3314    0.0000 C   0  0  0  0  0  0  0  0  0  0  0  0
    1.3983    0.9189    0.0000 C   0  0  0  0  0  0  0  0  0  0  0  0
    1.3983    0.0939    0.0000 C   0  0  0  0  0  0  0  0  0  0  0  0
    0.6839   -0.3186    0.0000 C   0  0  0  0  0  0  0  0  0  0  0  0
   -0.0306    0.0939    0.0000 C   0  0  0  0  0  0  0  0  0  0  0  0
   -0.0306    0.9189    0.0000 C   0  0  0  0  0  0  0  0  0  0  0  0
   -0.3326    4.5208    0.0000 H   0  0  0  0  0  0  0  0  0  0  0  0
   -1.4595    4.2189    0.0000 H   0  0  0  0  0  0  0  0  0  0  0  0
   -1.1576    3.0919    0.0000 H   0  0  0  0  0  0  0  0  0  0  0  0
    0.6839    3.8064    0.0000 H   0  0  0  0  0  0  0  0  0  0  0  0
   -0.7451    2.9814    0.0000 H   0  0  0  0  0  0  0  0  0  0  0  0
   -1.5420    2.3699    0.0000 H   0  0  0  0  0  0  0  0  0  0  0  0
   -1.1576    1.4419    0.0000 H   0  0  0  0  0  0  0  0  0  0  0  0
   -0.1617    1.5730    0.0000 H   0  0  0  0  0  0  0  0  0  0  0  0
    1.5075    2.2043    0.0000 H   0  0  0  0  0  0  0  0  0  0  0  0
    1.1372    2.8456    0.0000 H   0  0  0  0  0  0  0  0  0  0  0  0
    1.3983    1.7439    0.0000 H   0  0  0  0  0  0  0  0  0  0  0  0
    2.1736    0.6367    0.0000 H   0  0  0  0  0  0  0  0  0  0  0  0
    2.1736    1.2010    0.0000 H   0  0  0  0  0  0  0  0  0  0  0  0
    1.5691   -0.7133    0.0000 H   0  0  0  0  0  0  0  0  0  0  0  0
    2.0577   -0.4020    0.0000 H   0  0  0  0  0  0  0  0  0  0  0  0
    0.0739   -0.8741    0.0000 H   0  0  0  0  0  0  0  0  0  0  0  0
    0.5926   -1.1386    0.0000 H   0  0  0  0  0  0  0  0  0  0  0  0
   -0.8542    0.0459    0.0000 H   0  0  0  0  0  0  0  0  0  0  0  0
   -0.4839   -0.5954    0.0000 H   0  0  0  0  0  0  0  0  0  0  0  0
   -0.8516    0.8374    0.0000 H   0  0  0  0  0  0  0  0  0  0  0  0
    0.6839    0.5064    0.0000 H   0  0  0  0  0  0  0  0  0  0  0  0
  1  2  1  0  0  0  0
  2  3  1  0  0  0  0
  3  4  1  0  0  0  0
  3  5  1  0  0  0  0
  5  6  1  0  0  0  0
  6  7  1  0  0  0  0
  7  8  1  0  0  0  0
  8  9  1  0  0  0  0
  9 10  1  0  0  0  0
 10 11  1  0  0  0  0
  6 11  1  0  0  0  0
  1 12  1  0  0  0  0
  1 13  1  0  0  0  0
  1 14  1  0  0  0  0
  2 15  1  0  0  0  0
  3 16  1  0  0  0  0
  4 17  1  0  0  0  0
  4 18  1  0  0  0  0
  4 19  1  0  0  0  0
  5 20  1  0  0  0  0
  5 21  1  0  0  0  0
  6 22  1  0  0  0  0
  7 23  1  0  0  0  0
  7 24  1  0  0  0  0
  8 25  1  0  0  0  0
  8 26  1  0  0  0  0
  9 27  1  0  0  0  0
  9 28  1  0  0  0  0
 10 29  1  0  0  0  0
 10 30  1  0  0  0  0
 11 31  1  0  0  0  0
 11 32  1  0  0  0  0
M  END
>  <InChIKey>
InChI=1S/C10H21N/c1-9(11-2)8-10-6-4-3-5-7-10/h9-11H,3-8H2,1-2H3

>  <CASRN>
101-40-6

> <Outcome>
0

>  <Index>
1856

>  <StandardizerResult>
Clear Stereo (ID: ClearStereo)
Wedge Clean (ID: WedgeClean)
Mesomerize (ID: Mesomerize)
Tautomerize (ID: Tautomerize)
Add Explicit Hydrogens (ID: AddExplicitH)
Neutralize (ID: Neutralize)
Clean 2D (ID: Clean2D)

> <knn Distance>
3.60555124282837

> <CpId>
1856

$$$$
1935
  Mrv1532301301811342D          

 27 27  0  0  0  0            999 V2000
    1.3858   -2.5709    0.0000 C   0  0  0  0  0  0  0  0  0  0  0  0
    0.6713   -2.1584    0.0000 C   0  0  0  0  0  0  0  0  0  0  0  0
   -0.0431   -2.5709    0.0000 C   0  0  0  0  0  0  0  0  0  0  0  0
   -0.7576   -2.1584    0.0000 C   0  0  0  0  0  0  0  0  0  0  0  0
   -0.7576   -1.3334    0.0000 C   0  0  0  0  0  0  0  0  0  0  0  0
   -0.0431   -0.9209    0.0000 C   0  0  0  0  0  0  0  0  0  0  0  0
    0.6713   -1.3334    0.0000 C   0  0  0  0  0  0  0  0  0  0  0  0
    1.3858   -0.9209    0.0000 O   0  0  0  0  0  0  0  0  0  0  0  0
    2.1003   -1.3334    0.0000 C   0  0  0  0  0  0  0  0  0  0  0  0
    2.8148   -0.9209    0.0000 C   0  0  0  0  0  0  0  0  0  0  0  0
    2.8148   -0.0959    0.0000 O   0  0  0  0  0  0  0  0  0  0  0  0
    3.5292   -1.3334    0.0000 C   0  0  0  0  0  0  0  0  0  0  0  0
    4.2437   -0.9209    0.0000 O   0  0  0  0  0  0  0  0  0  0  0  0
    0.9733   -3.2854    0.0000 H   0  0  0  0  0  0  0  0  0  0  0  0
    2.1003   -2.9834    0.0000 H   0  0  0  0  0  0  0  0  0  0  0  0
    1.7983   -1.8565    0.0000 H   0  0  0  0  0  0  0  0  0  0  0  0
   -0.0431   -3.3959    0.0000 H   0  0  0  0  0  0  0  0  0  0  0  0
   -1.4721   -2.5709    0.0000 H   0  0  0  0  0  0  0  0  0  0  0  0
   -1.4721   -0.9209    0.0000 H   0  0  0  0  0  0  0  0  0  0  0  0
   -0.0431   -0.0959    0.0000 H   0  0  0  0  0  0  0  0  0  0  0  0
    2.6836   -1.9168    0.0000 H   0  0  0  0  0  0  0  0  0  0  0  0
    2.1003   -0.5084    0.0000 H   0  0  0  0  0  0  0  0  0  0  0  0
    3.5292   -0.5084    0.0000 H   0  0  0  0  0  0  0  0  0  0  0  0
    2.8148    0.7291    0.0000 H   0  0  0  0  0  0  0  0  0  0  0  0
    3.1590   -2.0707    0.0000 H   0  0  0  0  0  0  0  0  0  0  0  0
    3.8995   -2.0707    0.0000 H   0  0  0  0  0  0  0  0  0  0  0  0
    5.0687   -0.9209    0.0000 H   0  0  0  0  0  0  0  0  0  0  0  0
  1  2  1  0  0  0  0
  2  3  4  0  0  0  0
  3  4  4  0  0  0  0
  4  5  4  0  0  0  0
  5  6  4  0  0  0  0
  6  7  4  0  0  0  0
  2  7  4  0  0  0  0
  7  8  1  0  0  0  0
  8  9  1  0  0  0  0
  9 10  1  0  0  0  0
 10 11  1  0  0  0  0
 10 12  1  0  0  0  0
 12 13  1  0  0  0  0
  1 14  1  0  0  0  0
  1 15  1  0  0  0  0
  1 16  1  0  0  0  0
  3 17  1  0  0  0  0
  4 18  1  0  0  0  0
  5 19  1  0  0  0  0
  6 20  1  0  0  0  0
  9 21  1  0  0  0  0
  9 22  1  0  0  0  0
 10 23  1  0  0  0  0
 11 24  1  0  0  0  0
 12 25  1  0  0  0  0
 12 26  1  0  0  0  0
 13 27  1  0  0  0  0
M  END
>  <InChIKey>
InChI=1S/C10H14O3/c1-8-4-2-3-5-10(8)13-7-9(12)6-11/h2-5,9,11-12H,6-7H2,1H3

>  <CASRN>
59-47-2

> <Outcome>
0

>  <Index>
1935

>  <StandardizerResult>
Dearomatize (ID: Dearomatize)
Clear Stereo (ID: ClearStereo)
Wedge Clean (ID: WedgeClean)
Mesomerize (ID: Mesomerize)
Tautomerize (ID: Tautomerize)
Aromatize (ID: Aromatize)
Add Explicit Hydrogens (ID: AddExplicitH)
Neutralize (ID: Neutralize)
Clean 2D (ID: Clean2D)

> <knn Distance>
3.60555124282837

> <CpId>
1935

$$$$
1977
  Mrv1532301301811342D          

 43 44  0  0  0  0            999 V2000
    2.8630   -0.2166    0.0000 C   0  0  0  0  0  0  0  0  0  0  0  0
    2.4505   -0.9311    0.0000 C   0  0  0  0  0  0  0  0  0  0  0  0
    2.8630   -1.6455    0.0000 C   0  0  0  0  0  0  0  0  0  0  0  0
    2.4505   -2.3600    0.0000 C   0  0  0  0  0  0  0  0  0  0  0  0
    2.8630   -3.0745    0.0000 C   0  0  0  0  0  0  0  0  0  0  0  0
    2.4505   -3.7890    0.0000 C   0  0  0  0  0  0  0  0  0  0  0  0
    1.6255   -3.7890    0.0000 C   0  0  0  0  0  0  0  0  0  0  0  0
    1.2130   -4.5034    0.0000 C   0  0  0  0  0  0  0  0  0  0  0  0
    0.3880   -4.5034    0.0000 C   0  0  0  0  0  0  0  0  0  0  0  0
   -0.0245   -5.2179    0.0000 O   0  0  0  0  0  0  0  0  0  0  0  0
   -0.8495   -5.2179    0.0000 C   0  0  0  0  0  0  0  0  0  0  0  0
   -0.0245   -3.7890    0.0000 C   0  0  0  0  0  0  0  0  0  0  0  0
    0.3880   -3.0745    0.0000 C   0  0  0  0  0  0  0  0  0  0  0  0
    1.2130   -3.0745    0.0000 C   0  0  0  0  0  0  0  0  0  0  0  0
    1.6255   -2.3600    0.0000 C   0  0  0  0  0  0  0  0  0  0  0  0
    3.6880   -1.6455    0.0000 C   0  0  0  0  0  0  0  0  0  0  0  0
    3.6880   -2.4705    0.0000 C   0  0  0  0  0  0  0  0  0  0  0  0
    3.6880   -0.8205    0.0000 C   0  0  0  0  0  0  0  0  0  0  0  0
    4.5130   -1.6455    0.0000 C   0  0  0  0  0  0  0  0  0  0  0  0
    4.9255   -0.9311    0.0000 O   0  0  0  0  0  0  0  0  0  0  0  0
    4.9255   -2.3600    0.0000 O   0  0  0  0  0  0  0  0  0  0  0  0
    3.5775   -0.6291    0.0000 H   0  0  0  0  0  0  0  0  0  0  0  0
    3.2755    0.4979    0.0000 H   0  0  0  0  0  0  0  0  0  0  0  0
    2.1485    0.1959    0.0000 H   0  0  0  0  0  0  0  0  0  0  0  0
    1.7133   -0.5608    0.0000 H   0  0  0  0  0  0  0  0  0  0  0  0
    1.7133   -1.3013    0.0000 H   0  0  0  0  0  0  0  0  0  0  0  0
    2.0380   -1.6455    0.0000 H   0  0  0  0  0  0  0  0  0  0  0  0
    3.6880   -3.0745    0.0000 H   0  0  0  0  0  0  0  0  0  0  0  0
    2.8630   -4.5034    0.0000 H   0  0  0  0  0  0  0  0  0  0  0  0
    1.6255   -5.2179    0.0000 H   0  0  0  0  0  0  0  0  0  0  0  0
   -0.8495   -4.3929    0.0000 H   0  0  0  0  0  0  0  0  0  0  0  0
   -1.6745   -5.2179    0.0000 H   0  0  0  0  0  0  0  0  0  0  0  0
   -0.8495   -6.0429    0.0000 H   0  0  0  0  0  0  0  0  0  0  0  0
   -0.8495   -3.7890    0.0000 H   0  0  0  0  0  0  0  0  0  0  0  0
   -0.0245   -2.3600    0.0000 H   0  0  0  0  0  0  0  0  0  0  0  0
    0.9110   -1.9475    0.0000 H   0  0  0  0  0  0  0  0  0  0  0  0
    2.9128   -2.1884    0.0000 H   0  0  0  0  0  0  0  0  0  0  0  0
    2.9128   -2.7527    0.0000 H   0  0  0  0  0  0  0  0  0  0  0  0
    4.5130   -2.4705    0.0000 H   0  0  0  0  0  0  0  0  0  0  0  0
    4.5043   -0.9401    0.0000 H   0  0  0  0  0  0  0  0  0  0  0  0
    4.3351   -0.3089    0.0000 H   0  0  0  0  0  0  0  0  0  0  0  0
    2.8911   -1.0341    0.0000 H   0  0  0  0  0  0  0  0  0  0  0  0
    5.7448   -0.8341    0.0000 H   0  0  0  0  0  0  0  0  0  0  0  0
  1  2  1  0  0  0  0
  2  3  1  0  0  0  0
  3  4  1  0  0  0  0
  4  5  4  0  0  0  0
  5  6  4  0  0  0  0
  6  7  4  0  0  0  0
  7  8  4  0  0  0  0
  8  9  4  0  0  0  0
  9 10  1  0  0  0  0
 10 11  1  0  0  0  0
  9 12  4  0  0  0  0
 12 13  4  0  0  0  0
 13 14  4  0  0  0  0
  7 14  4  0  0  0  0
 14 15  4  0  0  0  0
  4 15  4  0  0  0  0
  3 16  1  0  0  0  0
 16 17  1  0  0  0  0
 16 18  1  0  0  0  0
 16 19  1  0  0  0  0
 19 20  1  0  0  0  0
 19 21  2  0  0  0  0
  1 22  1  0  0  0  0
  1 23  1  0  0  0  0
  1 24  1  0  0  0  0
  2 25  1  0  0  0  0
  2 26  1  0  0  0  0
  3 27  1  0  0  0  0
  5 28  1  0  0  0  0
  6 29  1  0  0  0  0
  8 30  1  0  0  0  0
 11 31  1  0  0  0  0
 11 32  1  0  0  0  0
 11 33  1  0  0  0  0
 12 34  1  0  0  0  0
 13 35  1  0  0  0  0
 15 36  1  0  0  0  0
 17 37  1  0  0  0  0
 17 38  1  0  0  0  0
 17 39  1  0  0  0  0
 18 40  1  0  0  0  0
 18 41  1  0  0  0  0
 18 42  1  0  0  0  0
 20 43  1  0  0  0  0
M  END
>  <InChIKey>
InChI=1S/C18H22O3/c1-5-16(18(2,3)17(19)20)14-7-6-13-11-15(21-4)9-8-12(13)10-14/h6-11,16H,5H2,1-4H3,(H,19,20)

>  <CASRN>
517-18-0

> <Outcome>
0

>  <Index>
1977

>  <StandardizerResult>
Dearomatize (ID: Dearomatize)
Clear Stereo (ID: ClearStereo)
Wedge Clean (ID: WedgeClean)
Mesomerize (ID: Mesomerize)
Tautomerize (ID: Tautomerize)
Aromatize (ID: Aromatize)
Add Explicit Hydrogens (ID: AddExplicitH)
Neutralize (ID: Neutralize)
Clean 2D (ID: Clean2D)

> <knn Distance>
3.60555124282837

> <CpId>
1977

$$$$
2056
  Mrv1532301301811342D          

 22 22  0  0  0  0            999 V2000
   -0.7152    3.7121    0.0000 C   0  0  0  0  0  0  0  0  0  0  0  0
   -0.0007    3.2996    0.0000 C   0  0  0  0  0  0  0  0  0  0  0  0
   -0.0007    2.4746    0.0000 C   0  0  0  0  0  0  0  0  0  0  0  0
   -0.7152    2.0621    0.0000 O   0  0  0  0  0  0  0  0  0  0  0  0
    0.7138    2.0621    0.0000 N   0  0  0  0  0  0  0  0  0  0  0  0
    0.7138    1.2371    0.0000 C   0  0  0  0  0  0  0  0  0  0  0  0
    1.4282    0.8246    0.0000 C   0  0  0  0  0  0  0  0  0  0  0  0
    1.4282   -0.0004    0.0000 C   0  0  0  0  0  0  0  0  0  0  0  0
    0.7138   -0.4129    0.0000 C   0  0  0  0  0  0  0  0  0  0  0  0
    0.7138   -1.2379    0.0000 Cl  0  0  0  0  0  0  0  0  0  0  0  0
   -0.0007   -0.0004    0.0000 C   0  0  0  0  0  0  0  0  0  0  0  0
   -0.7152   -0.4129    0.0000 Cl  0  0  0  0  0  0  0  0  0  0  0  0
   -0.0007    0.8246    0.0000 C   0  0  0  0  0  0  0  0  0  0  0  0
   -0.3027    4.4266    0.0000 H   0  0  0  0  0  0  0  0  0  0  0  0
   -1.4296    4.1246    0.0000 H   0  0  0  0  0  0  0  0  0  0  0  0
   -1.1277    2.9976    0.0000 H   0  0  0  0  0  0  0  0  0  0  0  0
    0.8229    3.3476    0.0000 H   0  0  0  0  0  0  0  0  0  0  0  0
    0.4526    3.9889    0.0000 H   0  0  0  0  0  0  0  0  0  0  0  0
    1.4282    2.4746    0.0000 H   0  0  0  0  0  0  0  0  0  0  0  0
    2.1427    1.2371    0.0000 H   0  0  0  0  0  0  0  0  0  0  0  0
    2.1427   -0.4129    0.0000 H   0  0  0  0  0  0  0  0  0  0  0  0
   -0.7152    1.2371    0.0000 H   0  0  0  0  0  0  0  0  0  0  0  0
  1  2  1  0  0  0  0
  2  3  1  0  0  0  0
  3  4  2  0  0  0  0
  3  5  1  0  0  0  0
  5  6  1  0  0  0  0
  6  7  4  0  0  0  0
  7  8  4  0  0  0  0
  8  9  4  0  0  0  0
  9 10  1  0  0  0  0
  9 11  4  0  0  0  0
 11 12  1  0  0  0  0
 11 13  4  0  0  0  0
  6 13  4  0  0  0  0
  1 14  1  0  0  0  0
  1 15  1  0  0  0  0
  1 16  1  0  0  0  0
  2 17  1  0  0  0  0
  2 18  1  0  0  0  0
  5 19  1  0  0  0  0
  7 20  1  0  0  0  0
  8 21  1  0  0  0  0
 13 22  1  0  0  0  0
M  END
>  <InChIKey>
InChI=1S/C9H9Cl2NO/c1-2-9(13)12-6-3-4-7(10)8(11)5-6/h3-5H,2H2,1H3,(H,12,13)

>  <CASRN>
709-98-8

> <Outcome>
0

>  <Index>
2056

>  <StandardizerResult>
Dearomatize (ID: Dearomatize)
Clear Stereo (ID: ClearStereo)
Wedge Clean (ID: WedgeClean)
Mesomerize (ID: Mesomerize)
Tautomerize (ID: Tautomerize)
Aromatize (ID: Aromatize)
Add Explicit Hydrogens (ID: AddExplicitH)
Neutralize (ID: Neutralize)
Clean 2D (ID: Clean2D)

> <knn Distance>
3.60555124282837

> <CpId>
2056

$$$$
2158
  Mrv1532301301811342D          

 31 31  0  0  0  0            999 V2000
    1.4543   -2.4571    0.0000 C   0  0  0  0  0  0  0  0  0  0  0  0
    1.4543   -1.6321    0.0000 C   0  0  0  0  0  0  0  0  0  0  0  0
    0.7398   -1.2196    0.0000 C   0  0  0  0  0  0  0  0  0  0  0  0
    0.0253   -1.6321    0.0000 C   0  0  0  0  0  0  0  0  0  0  0  0
    0.0253   -2.4571    0.0000 C   0  0  0  0  0  0  0  0  0  0  0  0
   -0.6891   -2.8696    0.0000 C   0  0  0  0  0  0  0  0  0  0  0  0
   -1.4036   -2.4571    0.0000 C   0  0  0  0  0  0  0  0  0  0  0  0
   -1.4036   -1.6321    0.0000 C   0  0  0  0  0  0  0  0  0  0  0  0
   -0.6891   -1.2196    0.0000 C   0  0  0  0  0  0  0  0  0  0  0  0
    2.1687   -1.2196    0.0000 N   0  0  0  0  0  0  0  0  0  0  0  0
    2.1687   -0.3946    0.0000 C   0  0  0  0  0  0  0  0  0  0  0  0
    2.8832   -1.6321    0.0000 C   0  0  0  0  0  0  0  0  0  0  0  0
    3.5977   -1.2196    0.0000 C   0  0  0  0  0  0  0  0  0  0  0  0
    4.3122   -0.8071    0.0000 C   0  0  0  0  0  0  0  0  0  0  0  0
    0.6293   -2.4571    0.0000 H   0  0  0  0  0  0  0  0  0  0  0  0
    1.4543   -3.2821    0.0000 H   0  0  0  0  0  0  0  0  0  0  0  0
    2.2793   -2.4571    0.0000 H   0  0  0  0  0  0  0  0  0  0  0  0
    0.7398   -2.0446    0.0000 H   0  0  0  0  0  0  0  0  0  0  0  0
    1.1101   -0.4823    0.0000 H   0  0  0  0  0  0  0  0  0  0  0  0
    0.3695   -0.4823    0.0000 H   0  0  0  0  0  0  0  0  0  0  0  0
    0.2389   -3.2540    0.0000 H   0  0  0  0  0  0  0  0  0  0  0  0
   -0.6891   -3.6946    0.0000 H   0  0  0  0  0  0  0  0  0  0  0  0
   -2.1181   -2.8696    0.0000 H   0  0  0  0  0  0  0  0  0  0  0  0
   -2.1181   -1.2196    0.0000 H   0  0  0  0  0  0  0  0  0  0  0  0
   -0.6891   -0.3946    0.0000 H   0  0  0  0  0  0  0  0  0  0  0  0
    2.9937   -0.3946    0.0000 H   0  0  0  0  0  0  0  0  0  0  0  0
    2.1687    0.4304    0.0000 H   0  0  0  0  0  0  0  0  0  0  0  0
    1.3437   -0.3946    0.0000 H   0  0  0  0  0  0  0  0  0  0  0  0
    2.5130   -2.3693    0.0000 H   0  0  0  0  0  0  0  0  0  0  0  0
    3.2535   -2.3693    0.0000 H   0  0  0  0  0  0  0  0  0  0  0  0
    5.0266   -0.3946    0.0000 H   0  0  0  0  0  0  0  0  0  0  0  0
  1  2  1  0  0  0  0
  2  3  1  0  0  0  0
  3  4  1  0  0  0  0
  4  5  4  0  0  0  0
  5  6  4  0  0  0  0
  6  7  4  0  0  0  0
  7  8  4  0  0  0  0
  8  9  4  0  0  0  0
  4  9  4  0  0  0  0
  2 10  1  0  0  0  0
 10 11  1  0  0  0  0
 10 12  1  0  0  0  0
 12 13  1  0  0  0  0
 13 14  3  0  0  0  0
  1 15  1  0  0  0  0
  1 16  1  0  0  0  0
  1 17  1  0  0  0  0
  2 18  1  0  0  0  0
  3 19  1  0  0  0  0
  3 20  1  0  0  0  0
  5 21  1  0  0  0  0
  6 22  1  0  0  0  0
  7 23  1  0  0  0  0
  8 24  1  0  0  0  0
  9 25  1  0  0  0  0
 11 26  1  0  0  0  0
 11 27  1  0  0  0  0
 11 28  1  0  0  0  0
 12 29  1  0  0  0  0
 12 30  1  0  0  0  0
 14 31  1  0  0  0  0
M  END
>  <InChIKey>
InChI=1S/C13H17N/c1-4-10-14(3)12(2)11-13-8-6-5-7-9-13/h1,5-9,12H,10-11H2,2-3H3

>  <CASRN>
14611-51-9

> <Outcome>
0

>  <Index>
2158

>  <StandardizerResult>
Dearomatize (ID: Dearomatize)
Clear Stereo (ID: ClearStereo)
Wedge Clean (ID: WedgeClean)
Mesomerize (ID: Mesomerize)
Tautomerize (ID: Tautomerize)
Aromatize (ID: Aromatize)
Add Explicit Hydrogens (ID: AddExplicitH)
Neutralize (ID: Neutralize)
Clean 2D (ID: Clean2D)

> <knn Distance>
3.60555124282837

> <CpId>
2158

$$$$
2180
  Mrv1532301301811342D          

 21 22  0  0  0  0            999 V2000
    0.0000   -1.6500    0.0000 C   0  0  0  0  0  0  0  0  0  0  0  0
    0.7145   -1.2375    0.0000 C   0  0  0  0  0  0  0  0  0  0  0  0
    0.7145   -0.4125    0.0000 C   0  0  0  0  0  0  0  0  0  0  0  0
    1.4289   -0.0000    0.0000 C   0  0  0  0  0  0  0  0  0  0  0  0
    1.4289    0.8250    0.0000 O   0  0  0  0  0  0  0  0  0  0  0  0
    2.1434   -0.4125    0.0000 C   0  0  0  0  0  0  0  0  0  0  0  0
    2.8579   -0.0000    0.0000 C   0  0  0  0  0  0  0  0  0  0  0  0
    3.5724   -0.4125    0.0000 C   0  0  0  0  0  0  0  0  0  0  0  0
    3.5724   -1.2375    0.0000 C   0  0  0  0  0  0  0  0  0  0  0  0
    2.8579   -1.6500    0.0000 C   0  0  0  0  0  0  0  0  0  0  0  0
    2.1434   -1.2375    0.0000 C   0  0  0  0  0  0  0  0  0  0  0  0
    1.4289   -1.6500    0.0000 C   0  0  0  0  0  0  0  0  0  0  0  0
    1.4289   -2.4750    0.0000 O   0  0  0  0  0  0  0  0  0  0  0  0
   -0.4125   -0.9355    0.0000 H   0  0  0  0  0  0  0  0  0  0  0  0
   -0.7145   -2.0625    0.0000 H   0  0  0  0  0  0  0  0  0  0  0  0
    0.4125   -2.3645    0.0000 H   0  0  0  0  0  0  0  0  0  0  0  0
    0.0000   -0.0000    0.0000 H   0  0  0  0  0  0  0  0  0  0  0  0
    2.8579    0.8250    0.0000 H   0  0  0  0  0  0  0  0  0  0  0  0
    4.2868   -0.0000    0.0000 H   0  0  0  0  0  0  0  0  0  0  0  0
    4.2868   -1.6500    0.0000 H   0  0  0  0  0  0  0  0  0  0  0  0
    2.8579   -2.4750    0.0000 H   0  0  0  0  0  0  0  0  0  0  0  0
  1  2  1  0  0  0  0
  2  3  2  0  0  0  0
  3  4  1  0  0  0  0
  4  5  2  0  0  0  0
  4  6  1  0  0  0  0
  6  7  4  0  0  0  0
  7  8  4  0  0  0  0
  8  9  4  0  0  0  0
  9 10  4  0  0  0  0
 10 11  4  0  0  0  0
  6 11  4  0  0  0  0
 11 12  1  0  0  0  0
  2 12  1  0  0  0  0
 12 13  2  0  0  0  0
  1 14  1  0  0  0  0
  1 15  1  0  0  0  0
  1 16  1  0  0  0  0
  3 17  1  0  0  0  0
  7 18  1  0  0  0  0
  8 19  1  0  0  0  0
  9 20  1  0  0  0  0
 10 21  1  0  0  0  0
M  END
>  <InChIKey>
InChI=1S/C11H8O2/c1-7-6-10(12)8-4-2-3-5-9(8)11(7)13/h2-6H,1H3

>  <CASRN>
58-27-5

> <Outcome>
0

>  <Index>
2180

>  <StandardizerResult>
Dearomatize (ID: Dearomatize)
Clear Stereo (ID: ClearStereo)
Wedge Clean (ID: WedgeClean)
Mesomerize (ID: Mesomerize)
Tautomerize (ID: Tautomerize)
Aromatize (ID: Aromatize)
Add Explicit Hydrogens (ID: AddExplicitH)
Neutralize (ID: Neutralize)
Clean 2D (ID: Clean2D)

> <knn Distance>
3.60555124282837

> <CpId>
2180

$$$$
2219
  Mrv1532301301811342D          

 25 24  0  0  0  0            999 V2000
    0.4186    3.6189    0.0000 C   0  0  0  0  0  0  0  0  0  0  0  0
    0.8311    2.9044    0.0000 C   0  0  0  0  0  0  0  0  0  0  0  0
    1.6561    2.9044    0.0000 C   0  0  0  0  0  0  0  0  0  0  0  0
    0.4186    2.1900    0.0000 O   0  0  0  0  0  0  0  0  0  0  0  0
    0.8311    1.4755    0.0000 P   0  0  0  0  0  0  0  0  0  0  0  0
    0.1167    1.0630    0.0000 F   0  0  0  0  0  0  0  0  0  0  0  0
    1.5456    1.8880    0.0000 O   0  0  0  0  0  0  0  0  0  0  0  0
    1.2436    0.7610    0.0000 O   0  0  0  0  0  0  0  0  0  0  0  0
    0.8311    0.0465    0.0000 C   0  0  0  0  0  0  0  0  0  0  0  0
    1.2436   -0.6679    0.0000 C   0  0  0  0  0  0  0  0  0  0  0  0
    0.0061    0.0465    0.0000 C   0  0  0  0  0  0  0  0  0  0  0  0
    1.1331    4.0314    0.0000 H   0  0  0  0  0  0  0  0  0  0  0  0
    0.0061    4.3334    0.0000 H   0  0  0  0  0  0  0  0  0  0  0  0
   -0.2958    3.2064    0.0000 H   0  0  0  0  0  0  0  0  0  0  0  0
    1.2436    3.6189    0.0000 H   0  0  0  0  0  0  0  0  0  0  0  0
    1.4426    2.1075    0.0000 H   0  0  0  0  0  0  0  0  0  0  0  0
    2.3706    2.4919    0.0000 H   0  0  0  0  0  0  0  0  0  0  0  0
    2.2395    3.4878    0.0000 H   0  0  0  0  0  0  0  0  0  0  0  0
    1.6561    0.0465    0.0000 H   0  0  0  0  0  0  0  0  0  0  0  0
    0.4467   -0.8815    0.0000 H   0  0  0  0  0  0  0  0  0  0  0  0
    1.2436   -1.4929    0.0000 H   0  0  0  0  0  0  0  0  0  0  0  0
    2.0405   -0.8815    0.0000 H   0  0  0  0  0  0  0  0  0  0  0  0
    0.0061    0.8715    0.0000 H   0  0  0  0  0  0  0  0  0  0  0  0
   -0.8189    0.0465    0.0000 H   0  0  0  0  0  0  0  0  0  0  0  0
    0.0061   -0.7785    0.0000 H   0  0  0  0  0  0  0  0  0  0  0  0
  1  2  1  0  0  0  0
  2  3  1  0  0  0  0
  2  4  1  0  0  0  0
  4  5  1  0  0  0  0
  5  6  1  0  0  0  0
  5  7  2  0  0  0  0
  5  8  1  0  0  0  0
  8  9  1  0  0  0  0
  9 10  1  0  0  0  0
  9 11  1  0  0  0  0
  1 12  1  0  0  0  0
  1 13  1  0  0  0  0
  1 14  1  0  0  0  0
  2 15  1  0  0  0  0
  3 16  1  0  0  0  0
  3 17  1  0  0  0  0
  3 18  1  0  0  0  0
  9 19  1  0  0  0  0
 10 20  1  0  0  0  0
 10 21  1  0  0  0  0
 10 22  1  0  0  0  0
 11 23  1  0  0  0  0
 11 24  1  0  0  0  0
 11 25  1  0  0  0  0
M  END
>  <InChIKey>
InChI=1S/C6H14FO3P/c1-5(2)9-11(7,8)10-6(3)4/h5-6H,1-4H3

>  <CASRN>
55-91-4

> <Outcome>
0

>  <Index>
2219

>  <StandardizerResult>
Clear Stereo (ID: ClearStereo)
Wedge Clean (ID: WedgeClean)
Mesomerize (ID: Mesomerize)
Tautomerize (ID: Tautomerize)
Add Explicit Hydrogens (ID: AddExplicitH)
Neutralize (ID: Neutralize)
Clean 2D (ID: Clean2D)

> <knn Distance>
3.60555124282837

> <CpId>
2219

$$$$
2244
  Mrv1532301301811342D          

 26 26  0  0  0  0            999 V2000
   -0.7221    3.7508    0.0000 C   0  0  0  0  0  0  0  0  0  0  0  0
   -0.0076    3.3383    0.0000 N   0  0  0  0  0  0  0  0  0  0  0  0
   -0.0076    2.5133    0.0000 C   0  0  0  0  0  0  0  0  0  0  0  0
   -0.7221    2.1008    0.0000 C   0  0  0  0  0  0  0  0  0  0  0  0
    0.7069    2.1008    0.0000 C   0  0  0  0  0  0  0  0  0  0  0  0
    0.7069    1.2758    0.0000 C   0  0  0  0  0  0  0  0  0  0  0  0
    1.4213    0.8633    0.0000 C   0  0  0  0  0  0  0  0  0  0  0  0
    1.4213    0.0383    0.0000 C   0  0  0  0  0  0  0  0  0  0  0  0
    0.7069   -0.3742    0.0000 C   0  0  0  0  0  0  0  0  0  0  0  0
   -0.0076    0.0383    0.0000 C   0  0  0  0  0  0  0  0  0  0  0  0
   -0.0076    0.8633    0.0000 C   0  0  0  0  0  0  0  0  0  0  0  0
   -0.3096    4.4652    0.0000 H   0  0  0  0  0  0  0  0  0  0  0  0
   -1.4366    4.1633    0.0000 H   0  0  0  0  0  0  0  0  0  0  0  0
   -1.1346    3.0363    0.0000 H   0  0  0  0  0  0  0  0  0  0  0  0
    0.7069    3.7508    0.0000 H   0  0  0  0  0  0  0  0  0  0  0  0
   -0.7221    2.9258    0.0000 H   0  0  0  0  0  0  0  0  0  0  0  0
   -1.5190    2.3143    0.0000 H   0  0  0  0  0  0  0  0  0  0  0  0
   -1.1346    1.3863    0.0000 H   0  0  0  0  0  0  0  0  0  0  0  0
   -0.1387    1.5174    0.0000 H   0  0  0  0  0  0  0  0  0  0  0  0
    1.5305    2.1487    0.0000 H   0  0  0  0  0  0  0  0  0  0  0  0
    1.1602    2.7900    0.0000 H   0  0  0  0  0  0  0  0  0  0  0  0
    2.1358    1.2758    0.0000 H   0  0  0  0  0  0  0  0  0  0  0  0
    2.1358   -0.3742    0.0000 H   0  0  0  0  0  0  0  0  0  0  0  0
    0.7069   -1.1992    0.0000 H   0  0  0  0  0  0  0  0  0  0  0  0
   -0.7221   -0.3742    0.0000 H   0  0  0  0  0  0  0  0  0  0  0  0
   -0.8286    0.7818    0.0000 H   0  0  0  0  0  0  0  0  0  0  0  0
  1  2  1  0  0  0  0
  2  3  1  0  0  0  0
  3  4  1  0  0  0  0
  3  5  1  0  0  0  0
  5  6  1  0  0  0  0
  6  7  4  0  0  0  0
  7  8  4  0  0  0  0
  8  9  4  0  0  0  0
  9 10  4  0  0  0  0
 10 11  4  0  0  0  0
  6 11  4  0  0  0  0
  1 12  1  0  0  0  0
  1 13  1  0  0  0  0
  1 14  1  0  0  0  0
  2 15  1  0  0  0  0
  3 16  1  0  0  0  0
  4 17  1  0  0  0  0
  4 18  1  0  0  0  0
  4 19  1  0  0  0  0
  5 20  1  0  0  0  0
  5 21  1  0  0  0  0
  7 22  1  0  0  0  0
  8 23  1  0  0  0  0
  9 24  1  0  0  0  0
 10 25  1  0  0  0  0
 11 26  1  0  0  0  0
M  END
>  <InChIKey>
InChI=1S/C10H15N/c1-9(11-2)8-10-6-4-3-5-7-10/h3-7,9,11H,8H2,1-2H3

>  <CASRN>
537-46-2

> <Outcome>
0

>  <Index>
2244

>  <StandardizerResult>
Dearomatize (ID: Dearomatize)
Clear Stereo (ID: ClearStereo)
Wedge Clean (ID: WedgeClean)
Mesomerize (ID: Mesomerize)
Tautomerize (ID: Tautomerize)
Aromatize (ID: Aromatize)
Add Explicit Hydrogens (ID: AddExplicitH)
Neutralize (ID: Neutralize)
Clean 2D (ID: Clean2D)

> <knn Distance>
3.60555124282837

> <CpId>
2244

$$$$
2539
  Mrv1532301301811342D          

 17 16  0  0  0  0            999 V2000
   -0.1737    0.6988    0.0000 C   0  0  0  0  0  0  0  0  0  0  0  0
    0.5408    1.1113    0.0000 O   0  0  0  0  0  0  0  0  0  0  0  0
    1.2553    0.6988    0.0000 C   0  0  0  0  0  0  0  0  0  0  0  0
    1.9697    1.1113    0.0000 C   0  0  0  0  0  0  0  0  0  0  0  0
    1.9697    1.9363    0.0000 O   0  0  0  0  0  0  0  0  0  0  0  0
    2.6842    0.6988    0.0000 C   0  0  0  0  0  0  0  0  0  0  0  0
    3.3987    1.1113    0.0000 O   0  0  0  0  0  0  0  0  0  0  0  0
   -0.5862    1.4133    0.0000 H   0  0  0  0  0  0  0  0  0  0  0  0
   -0.8881    0.2863    0.0000 H   0  0  0  0  0  0  0  0  0  0  0  0
    0.2388   -0.0157    0.0000 H   0  0  0  0  0  0  0  0  0  0  0  0
    0.8850   -0.0384    0.0000 H   0  0  0  0  0  0  0  0  0  0  0  0
    1.6255   -0.0384    0.0000 H   0  0  0  0  0  0  0  0  0  0  0  0
    1.2553    1.5238    0.0000 H   0  0  0  0  0  0  0  0  0  0  0  0
    2.3822    2.6508    0.0000 H   0  0  0  0  0  0  0  0  0  0  0  0
    2.3139   -0.0384    0.0000 H   0  0  0  0  0  0  0  0  0  0  0  0
    3.0545   -0.0384    0.0000 H   0  0  0  0  0  0  0  0  0  0  0  0
    4.1132    0.6988    0.0000 H   0  0  0  0  0  0  0  0  0  0  0  0
  1  2  1  0  0  0  0
  2  3  1  0  0  0  0
  3  4  1  0  0  0  0
  4  5  1  0  0  0  0
  4  6  1  0  0  0  0
  6  7  1  0  0  0  0
  1  8  1  0  0  0  0
  1  9  1  0  0  0  0
  1 10  1  0  0  0  0
  3 11  1  0  0  0  0
  3 12  1  0  0  0  0
  4 13  1  0  0  0  0
  5 14  1  0  0  0  0
  6 15  1  0  0  0  0
  6 16  1  0  0  0  0
  7 17  1  0  0  0  0
M  END
>  <InChIKey>
InChI=1S/C4H10O3/c1-7-3-4(6)2-5/h4-6H,2-3H2,1H3

>  <UN GHS>
Non-irritant

>  <CASRN>
623-39-2

> <Outcome>
0

>  <Index>
2539

>  <StandardizerResult>
Clear Stereo (ID: ClearStereo)
Wedge Clean (ID: WedgeClean)
Mesomerize (ID: Mesomerize)
Tautomerize (ID: Tautomerize)
Add Explicit Hydrogens (ID: AddExplicitH)
Neutralize (ID: Neutralize)
Clean 2D (ID: Clean2D)

> <knn Distance>
3.60555124282837

> <CpId>
2539

$$$$
2657
  Mrv1532301301811342D          

 35 36  0  0  0  0            999 V2000
   -1.7615   -1.1685    0.0000 C   0  0  0  0  0  0  0  0  0  0  0  0
   -1.3490   -1.8830    0.0000 C   0  0  0  0  0  0  0  0  0  0  0  0
   -0.5240   -1.8830    0.0000 O   0  0  0  0  0  0  0  0  0  0  0  0
   -0.1115   -1.1685    0.0000 C   0  0  0  0  0  0  0  0  0  0  0  0
   -0.5240   -0.4541    0.0000 O   0  0  0  0  0  0  0  0  0  0  0  0
    0.7135   -1.1685    0.0000 C   0  0  0  0  0  0  0  0  0  0  0  0
    1.5385   -1.1685    0.0000 O   0  0  0  0  0  0  0  0  0  0  0  0
    0.7135   -1.9935    0.0000 C   0  0  0  0  0  0  0  0  0  0  0  0
    1.4279   -2.4060    0.0000 C   0  0  0  0  0  0  0  0  0  0  0  0
    1.4279   -3.2310    0.0000 C   0  0  0  0  0  0  0  0  0  0  0  0
    0.7135   -3.6435    0.0000 C   0  0  0  0  0  0  0  0  0  0  0  0
    0.7135   -4.4685    0.0000 Cl  0  0  0  0  0  0  0  0  0  0  0  0
   -0.0010   -3.2310    0.0000 C   0  0  0  0  0  0  0  0  0  0  0  0
   -0.0010   -2.4060    0.0000 C   0  0  0  0  0  0  0  0  0  0  0  0
    0.7135   -0.3435    0.0000 C   0  0  0  0  0  0  0  0  0  0  0  0
   -0.0010    0.0690    0.0000 C   0  0  0  0  0  0  0  0  0  0  0  0
   -0.0010    0.8940    0.0000 C   0  0  0  0  0  0  0  0  0  0  0  0
    0.7135    1.3065    0.0000 C   0  0  0  0  0  0  0  0  0  0  0  0
    0.7135    2.1315    0.0000 Cl  0  0  0  0  0  0  0  0  0  0  0  0
    1.4279    0.8940    0.0000 C   0  0  0  0  0  0  0  0  0  0  0  0
    1.4279    0.0690    0.0000 C   0  0  0  0  0  0  0  0  0  0  0  0
   -1.0471   -0.7560    0.0000 H   0  0  0  0  0  0  0  0  0  0  0  0
   -2.1740   -0.4541    0.0000 H   0  0  0  0  0  0  0  0  0  0  0  0
   -2.4760   -1.5810    0.0000 H   0  0  0  0  0  0  0  0  0  0  0  0
   -2.0383   -2.3364    0.0000 H   0  0  0  0  0  0  0  0  0  0  0  0
   -1.3970   -2.7066    0.0000 H   0  0  0  0  0  0  0  0  0  0  0  0
    1.9510   -1.8830    0.0000 H   0  0  0  0  0  0  0  0  0  0  0  0
    2.1901   -2.7218    0.0000 H   0  0  0  0  0  0  0  0  0  0  0  0
    1.8636   -3.9316    0.0000 H   0  0  0  0  0  0  0  0  0  0  0  0
   -0.7155   -3.6435    0.0000 H   0  0  0  0  0  0  0  0  0  0  0  0
   -0.7632   -2.7218    0.0000 H   0  0  0  0  0  0  0  0  0  0  0  0
   -0.7632    0.3847    0.0000 H   0  0  0  0  0  0  0  0  0  0  0  0
   -0.4367    1.5945    0.0000 H   0  0  0  0  0  0  0  0  0  0  0  0
    2.1424    1.3065    0.0000 H   0  0  0  0  0  0  0  0  0  0  0  0
    2.1424   -0.3435    0.0000 H   0  0  0  0  0  0  0  0  0  0  0  0
  1  2  1  0  0  0  0
  2  3  1  0  0  0  0
  3  4  1  0  0  0  0
  4  5  2  0  0  0  0
  4  6  1  0  0  0  0
  6  7  1  0  0  0  0
  6  8  1  0  0  0  0
  8  9  4  0  0  0  0
  9 10  4  0  0  0  0
 10 11  4  0  0  0  0
 11 12  1  0  0  0  0
 11 13  4  0  0  0  0
 13 14  4  0  0  0  0
  8 14  4  0  0  0  0
  6 15  1  0  0  0  0
 15 16  4  0  0  0  0
 16 17  4  0  0  0  0
 17 18  4  0  0  0  0
 18 19  1  0  0  0  0
 18 20  4  0  0  0  0
 20 21  4  0  0  0  0
 15 21  4  0  0  0  0
  1 22  1  0  0  0  0
  1 23  1  0  0  0  0
  1 24  1  0  0  0  0
  2 25  1  0  0  0  0
  2 26  1  0  0  0  0
  7 27  1  0  0  0  0
  9 28  1  0  0  0  0
 10 29  1  0  0  0  0
 13 30  1  0  0  0  0
 14 31  1  0  0  0  0
 16 32  1  0  0  0  0
 17 33  1  0  0  0  0
 20 34  1  0  0  0  0
 21 35  1  0  0  0  0
M  END
>  <InChIKey>
InChI=1S/C16H14Cl2O3/c1-2-21-15(19)16(20,11-3-7-13(17)8-4-11)12-5-9-14(18)10-6-12/h3-10,20H,2H2,1H3

>  <CASRN>
510-15-6

> <Outcome>
0

>  <Index>
2657

>  <StandardizerResult>
Dearomatize (ID: Dearomatize)
Clear Stereo (ID: ClearStereo)
Wedge Clean (ID: WedgeClean)
Mesomerize (ID: Mesomerize)
Tautomerize (ID: Tautomerize)
Aromatize (ID: Aromatize)
Add Explicit Hydrogens (ID: AddExplicitH)
Neutralize (ID: Neutralize)
Clean 2D (ID: Clean2D)

> <knn Distance>
3.60555124282837

> <CpId>
2657

$$$$
2689
  Mrv1532301301811342D          

 12 11  0  0  0  0            999 V2000
    1.2375    0.7145    0.0000 C   0  0  0  0  0  0  0  0  0  0  0  0
    0.8250   -0.0000    0.0000 N   0  0  0  0  0  0  0  0  0  0  0  0
    1.2375   -0.7145    0.0000 C   0  0  0  0  0  0  0  0  0  0  0  0
   -0.0000   -0.0000    0.0000 N   0  0  0  0  0  0  0  0  0  0  0  0
    1.9520    0.3020    0.0000 H   0  0  0  0  0  0  0  0  0  0  0  0
    1.6500    1.4289    0.0000 H   0  0  0  0  0  0  0  0  0  0  0  0
    0.5230    1.1270    0.0000 H   0  0  0  0  0  0  0  0  0  0  0  0
    0.5230   -1.1270    0.0000 H   0  0  0  0  0  0  0  0  0  0  0  0
    1.6500   -1.4289    0.0000 H   0  0  0  0  0  0  0  0  0  0  0  0
    1.9520   -0.3020    0.0000 H   0  0  0  0  0  0  0  0  0  0  0  0
   -0.4125    0.7145    0.0000 H   0  0  0  0  0  0  0  0  0  0  0  0
   -0.4125   -0.7145    0.0000 H   0  0  0  0  0  0  0  0  0  0  0  0
  1  2  1  0  0  0  0
  2  3  1  0  0  0  0
  2  4  1  0  0  0  0
  1  5  1  0  0  0  0
  1  6  1  0  0  0  0
  1  7  1  0  0  0  0
  3  8  1  0  0  0  0
  3  9  1  0  0  0  0
  3 10  1  0  0  0  0
  4 11  1  0  0  0  0
  4 12  1  0  0  0  0
M  END
>  <InChIKey>
InChI=1S/C2H8N2/c1-4(2)3/h3H2,1-2H3

>  <CASRN>
57-14-7

> <Outcome>
0

>  <Index>
2689

>  <StandardizerResult>
Clear Stereo (ID: ClearStereo)
Wedge Clean (ID: WedgeClean)
Mesomerize (ID: Mesomerize)
Tautomerize (ID: Tautomerize)
Add Explicit Hydrogens (ID: AddExplicitH)
Neutralize (ID: Neutralize)
Clean 2D (ID: Clean2D)

> <knn Distance>
3.60555124282837

> <CpId>
2689

$$$$
2774
  Mrv1532301301811342D          

 20 20  0  0  0  0            999 V2000
   -0.0000    3.3000    0.0000 C   0  0  0  0  0  0  0  0  0  0  0  0
   -0.0000    2.4750    0.0000 C   0  0  0  0  0  0  0  0  0  0  0  0
   -0.7145    2.0625    0.0000 O   0  0  0  0  0  0  0  0  0  0  0  0
    0.7145    2.0625    0.0000 N   0  0  0  0  0  0  0  0  0  0  0  0
    0.7145    1.2375    0.0000 C   0  0  0  0  0  0  0  0  0  0  0  0
    1.4289    0.8250    0.0000 C   0  0  0  0  0  0  0  0  0  0  0  0
    1.4289    0.0000    0.0000 C   0  0  0  0  0  0  0  0  0  0  0  0
    0.7145   -0.4125    0.0000 C   0  0  0  0  0  0  0  0  0  0  0  0
    0.7145   -1.2375    0.0000 O   0  0  0  0  0  0  0  0  0  0  0  0
   -0.0000    0.0000    0.0000 C   0  0  0  0  0  0  0  0  0  0  0  0
   -0.0000    0.8250    0.0000 C   0  0  0  0  0  0  0  0  0  0  0  0
    0.8250    3.3000    0.0000 H   0  0  0  0  0  0  0  0  0  0  0  0
   -0.0000    4.1250    0.0000 H   0  0  0  0  0  0  0  0  0  0  0  0
   -0.8250    3.3000    0.0000 H   0  0  0  0  0  0  0  0  0  0  0  0
    1.4289    2.4750    0.0000 H   0  0  0  0  0  0  0  0  0  0  0  0
    2.1434    1.2375    0.0000 H   0  0  0  0  0  0  0  0  0  0  0  0
    2.1434   -0.4125    0.0000 H   0  0  0  0  0  0  0  0  0  0  0  0
   -0.0000   -1.6500    0.0000 H   0  0  0  0  0  0  0  0  0  0  0  0
   -0.7145   -0.4125    0.0000 H   0  0  0  0  0  0  0  0  0  0  0  0
   -0.7145    1.2375    0.0000 H   0  0  0  0  0  0  0  0  0  0  0  0
  1  2  1  0  0  0  0
  2  3  2  0  0  0  0
  2  4  1  0  0  0  0
  4  5  1  0  0  0  0
  5  6  4  0  0  0  0
  6  7  4  0  0  0  0
  7  8  4  0  0  0  0
  8  9  1  0  0  0  0
  8 10  4  0  0  0  0
 10 11  4  0  0  0  0
  5 11  4  0  0  0  0
  1 12  1  0  0  0  0
  1 13  1  0  0  0  0
  1 14  1  0  0  0  0
  4 15  1  0  0  0  0
  6 16  1  0  0  0  0
  7 17  1  0  0  0  0
  9 18  1  0  0  0  0
 10 19  1  0  0  0  0
 11 20  1  0  0  0  0
M  END
>  <InChIKey>
InChI=1S/C8H9NO2/c1-6(10)9-7-2-4-8(11)5-3-7/h2-5,11H,1H3,(H,9,10)

>  <CASRN>
103-90-2

> <Outcome>
0

>  <Index>
2774

>  <StandardizerResult>
Dearomatize (ID: Dearomatize)
Clear Stereo (ID: ClearStereo)
Wedge Clean (ID: WedgeClean)
Mesomerize (ID: Mesomerize)
Tautomerize (ID: Tautomerize)
Aromatize (ID: Aromatize)
Add Explicit Hydrogens (ID: AddExplicitH)
Neutralize (ID: Neutralize)
Clean 2D (ID: Clean2D)

> <knn Distance>
3.60555124282837

> <CpId>
2774

$$$$
2828
  Mrv1532301301811342D          

 22 21  0  0  0  0            999 V2000
    1.0461    1.4281    0.0000 N   0  0  0  0  0  0  0  0  0  0  0  0
    1.7605    1.8406    0.0000 C   0  0  0  0  0  0  0  0  0  0  0  0
    2.4750    1.4281    0.0000 C   0  0  0  0  0  0  0  0  0  0  0  0
    3.1895    1.8406    0.0000 C   0  0  0  0  0  0  0  0  0  0  0  0
    3.9039    1.4281    0.0000 C   0  0  0  0  0  0  0  0  0  0  0  0
    4.6184    1.8406    0.0000 C   0  0  0  0  0  0  0  0  0  0  0  0
    5.3329    1.4281    0.0000 C   0  0  0  0  0  0  0  0  0  0  0  0
    6.0474    1.8406    0.0000 O   0  0  0  0  0  0  0  0  0  0  0  0
    5.3329    0.6031    0.0000 O   0  0  0  0  0  0  0  0  0  0  0  0
    0.3316    1.8406    0.0000 H   0  0  0  0  0  0  0  0  0  0  0  0
    1.0461    0.6031    0.0000 H   0  0  0  0  0  0  0  0  0  0  0  0
    2.1308    2.5778    0.0000 H   0  0  0  0  0  0  0  0  0  0  0  0
    1.3903    2.5778    0.0000 H   0  0  0  0  0  0  0  0  0  0  0  0
    2.1047    0.6908    0.0000 H   0  0  0  0  0  0  0  0  0  0  0  0
    2.8453    0.6908    0.0000 H   0  0  0  0  0  0  0  0  0  0  0  0
    3.5597    2.5778    0.0000 H   0  0  0  0  0  0  0  0  0  0  0  0
    2.8192    2.5778    0.0000 H   0  0  0  0  0  0  0  0  0  0  0  0
    3.5337    0.6908    0.0000 H   0  0  0  0  0  0  0  0  0  0  0  0
    4.2742    0.6908    0.0000 H   0  0  0  0  0  0  0  0  0  0  0  0
    4.9887    2.5778    0.0000 H   0  0  0  0  0  0  0  0  0  0  0  0
    4.2482    2.5778    0.0000 H   0  0  0  0  0  0  0  0  0  0  0  0
    6.7618    1.4281    0.0000 H   0  0  0  0  0  0  0  0  0  0  0  0
  1  2  1  0  0  0  0
  2  3  1  0  0  0  0
  3  4  1  0  0  0  0
  4  5  1  0  0  0  0
  5  6  1  0  0  0  0
  6  7  1  0  0  0  0
  7  8  1  0  0  0  0
  7  9  2  0  0  0  0
  1 10  1  0  0  0  0
  1 11  1  0  0  0  0
  2 12  1  0  0  0  0
  2 13  1  0  0  0  0
  3 14  1  0  0  0  0
  3 15  1  0  0  0  0
  4 16  1  0  0  0  0
  4 17  1  0  0  0  0
  5 18  1  0  0  0  0
  5 19  1  0  0  0  0
  6 20  1  0  0  0  0
  6 21  1  0  0  0  0
  8 22  1  0  0  0  0
M  END
>  <InChIKey>
InChI=1S/C6H13NO2/c7-5-3-1-2-4-6(8)9/h1-5,7H2,(H,8,9)

>  <CASRN>
60-32-2

> <Outcome>
0

>  <Index>
2828

>  <StandardizerResult>
Clear Stereo (ID: ClearStereo)
Wedge Clean (ID: WedgeClean)
Mesomerize (ID: Mesomerize)
Tautomerize (ID: Tautomerize)
Add Explicit Hydrogens (ID: AddExplicitH)
Neutralize (ID: Neutralize)
Clean 2D (ID: Clean2D)

> <knn Distance>
3.60555124282837

> <CpId>
2828

$$$$
2893
  Mrv1532301301811342D          

 39 38  0  0  0  0            999 V2000
    5.6552    0.7514    0.0000 O   0  0  0  0  0  0  0  0  0  0  0  0
    4.9407    1.1639    0.0000 C   0  0  0  0  0  0  0  0  0  0  0  0
    4.2262    0.7514    0.0000 C   0  0  0  0  0  0  0  0  0  0  0  0
    3.8137    1.4658    0.0000 C   0  0  0  0  0  0  0  0  0  0  0  0
    2.9887    1.4658    0.0000 O   0  0  0  0  0  0  0  0  0  0  0  0
    4.6387    0.0369    0.0000 C   0  0  0  0  0  0  0  0  0  0  0  0
    4.2262   -0.6776    0.0000 O   0  0  0  0  0  0  0  0  0  0  0  0
    3.5117    0.3389    0.0000 C   0  0  0  0  0  0  0  0  0  0  0  0
    2.7973    0.7514    0.0000 O   0  0  0  0  0  0  0  0  0  0  0  0
    2.0828    0.3389    0.0000 C   0  0  0  0  0  0  0  0  0  0  0  0
    1.3683    0.7514    0.0000 C   0  0  0  0  0  0  0  0  0  0  0  0
    0.6539    1.1639    0.0000 C   0  0  0  0  0  0  0  0  0  0  0  0
   -0.0606    0.7514    0.0000 O   0  0  0  0  0  0  0  0  0  0  0  0
    1.7808    1.4658    0.0000 C   0  0  0  0  0  0  0  0  0  0  0  0
    1.3683    2.1803    0.0000 O   0  0  0  0  0  0  0  0  0  0  0  0
    0.9558    0.0369    0.0000 C   0  0  0  0  0  0  0  0  0  0  0  0
    0.1308    0.0369    0.0000 O   0  0  0  0  0  0  0  0  0  0  0  0
    5.6552   -0.0736    0.0000 H   0  0  0  0  0  0  0  0  0  0  0  0
    5.3109    1.9011    0.0000 H   0  0  0  0  0  0  0  0  0  0  0  0
    4.5704    1.9011    0.0000 H   0  0  0  0  0  0  0  0  0  0  0  0
    3.6008    2.2629    0.0000 H   0  0  0  0  0  0  0  0  0  0  0  0
    3.4012    0.7514    0.0000 H   0  0  0  0  0  0  0  0  0  0  0  0
    2.4865    2.1203    0.0000 H   0  0  0  0  0  0  0  0  0  0  0  0
    5.3760   -0.3334    0.0000 H   0  0  0  0  0  0  0  0  0  0  0  0
    5.3760    0.4071    0.0000 H   0  0  0  0  0  0  0  0  0  0  0  0
    3.4012   -0.6776    0.0000 H   0  0  0  0  0  0  0  0  0  0  0  0
    3.1415   -0.3984    0.0000 H   0  0  0  0  0  0  0  0  0  0  0  0
    3.8820   -0.3984    0.0000 H   0  0  0  0  0  0  0  0  0  0  0  0
    1.7125   -0.3984    0.0000 H   0  0  0  0  0  0  0  0  0  0  0  0
    2.4531   -0.3984    0.0000 H   0  0  0  0  0  0  0  0  0  0  0  0
    1.0241    1.9011    0.0000 H   0  0  0  0  0  0  0  0  0  0  0  0
    0.2836    1.9011    0.0000 H   0  0  0  0  0  0  0  0  0  0  0  0
   -0.8228    1.0671    0.0000 H   0  0  0  0  0  0  0  0  0  0  0  0
    2.1201    0.7138    0.0000 H   0  0  0  0  0  0  0  0  0  0  0  0
    2.5894    1.3023    0.0000 H   0  0  0  0  0  0  0  0  0  0  0  0
    1.5183    2.9915    0.0000 H   0  0  0  0  0  0  0  0  0  0  0  0
    0.7429   -0.7602    0.0000 H   0  0  0  0  0  0  0  0  0  0  0  0
    0.5433    0.7514    0.0000 H   0  0  0  0  0  0  0  0  0  0  0  0
   -0.3714   -0.6176    0.0000 H   0  0  0  0  0  0  0  0  0  0  0  0
  1  2  1  0  0  0  0
  2  3  1  0  0  0  0
  3  4  1  0  0  0  0
  4  5  1  0  0  0  0
  3  6  1  0  0  0  0
  6  7  1  0  0  0  0
  3  8  1  0  0  0  0
  8  9  1  0  0  0  0
  9 10  1  0  0  0  0
 10 11  1  0  0  0  0
 11 12  1  0  0  0  0
 12 13  1  0  0  0  0
 11 14  1  0  0  0  0
 14 15  1  0  0  0  0
 11 16  1  0  0  0  0
 16 17  1  0  0  0  0
  1 18  1  0  0  0  0
  2 19  1  0  0  0  0
  2 20  1  0  0  0  0
  4 21  1  0  0  0  0
  4 22  1  0  0  0  0
  5 23  1  0  0  0  0
  6 24  1  0  0  0  0
  6 25  1  0  0  0  0
  7 26  1  0  0  0  0
  8 27  1  0  0  0  0
  8 28  1  0  0  0  0
 10 29  1  0  0  0  0
 10 30  1  0  0  0  0
 12 31  1  0  0  0  0
 12 32  1  0  0  0  0
 13 33  1  0  0  0  0
 14 34  1  0  0  0  0
 14 35  1  0  0  0  0
 15 36  1  0  0  0  0
 16 37  1  0  0  0  0
 16 38  1  0  0  0  0
 17 39  1  0  0  0  0
M  END
>  <InChIKey>
InChI=1S/C10H22O7/c11-1-9(2-12,3-13)7-17-8-10(4-14,5-15)6-16/h11-16H,1-8H2

>  <CASRN>
126-58-9

> <Outcome>
0

>  <Index>
2893

>  <StandardizerResult>
Clear Stereo (ID: ClearStereo)
Wedge Clean (ID: WedgeClean)
Mesomerize (ID: Mesomerize)
Tautomerize (ID: Tautomerize)
Add Explicit Hydrogens (ID: AddExplicitH)
Neutralize (ID: Neutralize)
Clean 2D (ID: Clean2D)

> <knn Distance>
3.60555124282837

> <CpId>
2893

$$$$
3314
  Mrv1532301301811342D          

 49 50  0  0  0  0            999 V2000
    0.4376   -4.9023    0.0000 C   0  0  0  0  0  0  0  0  0  0  0  0
   -0.0473   -4.2348    0.0000 N   0  3  0  0  0  0  0  0  0  0  0  0
    0.6672   -3.8223    0.0000 C   0  0  0  0  0  0  0  0  0  0  0  0
    1.3816   -4.2348    0.0000 C   0  0  0  0  0  0  0  0  0  0  0  0
    2.0961   -3.8223    0.0000 C   0  0  0  0  0  0  0  0  0  0  0  0
    2.8106   -4.2348    0.0000 C   0  0  0  0  0  0  0  0  0  0  0  0
    3.5250   -3.8223    0.0000 C   0  0  0  0  0  0  0  0  0  0  0  0
    4.2395   -4.2348    0.0000 N   0  3  0  0  0  0  0  0  0  0  0  0
    3.7546   -4.9023    0.0000 C   0  0  0  0  0  0  0  0  0  0  0  0
    4.5751   -3.4811    0.0000 C   0  0  0  0  0  0  0  0  0  0  0  0
    5.3955   -3.5674    0.0000 C   0  0  0  0  0  0  0  0  0  0  0  0
    5.5671   -4.3743    0.0000 C   0  0  0  0  0  0  0  0  0  0  0  0
    4.8526   -4.7868    0.0000 C   0  0  0  0  0  0  0  0  0  0  0  0
   -0.6604   -4.7868    0.0000 C   0  0  0  0  0  0  0  0  0  0  0  0
   -1.3749   -4.3743    0.0000 C   0  0  0  0  0  0  0  0  0  0  0  0
   -1.2034   -3.5674    0.0000 C   0  0  0  0  0  0  0  0  0  0  0  0
   -0.3829   -3.4811    0.0000 C   0  0  0  0  0  0  0  0  0  0  0  0
   -0.2298   -5.3872    0.0000 H   0  0  0  0  0  0  0  0  0  0  0  0
    0.9225   -5.5697    0.0000 H   0  0  0  0  0  0  0  0  0  0  0  0
    1.1050   -4.4173    0.0000 H   0  0  0  0  0  0  0  0  0  0  0  0
    1.0374   -3.0851    0.0000 H   0  0  0  0  0  0  0  0  0  0  0  0
    0.2969   -3.0851    0.0000 H   0  0  0  0  0  0  0  0  0  0  0  0
    1.4145   -5.0592    0.0000 H   0  0  0  0  0  0  0  0  0  0  0  0
    2.1042   -4.6330    0.0000 H   0  0  0  0  0  0  0  0  0  0  0  0
    2.4664   -3.0851    0.0000 H   0  0  0  0  0  0  0  0  0  0  0  0
    1.7258   -3.0851    0.0000 H   0  0  0  0  0  0  0  0  0  0  0  0
    2.9487   -5.0482    0.0000 H   0  0  0  0  0  0  0  0  0  0  0  0
    3.4404   -4.7676    0.0000 H   0  0  0  0  0  0  0  0  0  0  0  0
    3.8953   -3.0851    0.0000 H   0  0  0  0  0  0  0  0  0  0  0  0
    3.1548   -3.0851    0.0000 H   0  0  0  0  0  0  0  0  0  0  0  0
    3.4216   -5.6571    0.0000 H   0  0  0  0  0  0  0  0  0  0  0  0
    4.1934   -5.6009    0.0000 H   0  0  0  0  0  0  0  0  0  0  0  0
    4.5791   -4.9301    0.0000 H   0  0  0  0  0  0  0  0  0  0  0  0
    4.8316   -2.6970    0.0000 H   0  0  0  0  0  0  0  0  0  0  0  0
    3.7899   -3.7345    0.0000 H   0  0  0  0  0  0  0  0  0  0  0  0
    6.1708   -3.2852    0.0000 H   0  0  0  0  0  0  0  0  0  0  0  0
    5.5951   -2.7669    0.0000 H   0  0  0  0  0  0  0  0  0  0  0  0
    6.0750   -5.0245    0.0000 H   0  0  0  0  0  0  0  0  0  0  0  0
    6.3901   -4.3168    0.0000 H   0  0  0  0  0  0  0  0  0  0  0  0
    4.9754   -5.6027    0.0000 H   0  0  0  0  0  0  0  0  0  0  0  0
    5.4760   -5.3272    0.0000 H   0  0  0  0  0  0  0  0  0  0  0  0
   -1.2143   -5.3983    0.0000 H   0  0  0  0  0  0  0  0  0  0  0  0
    0.1598   -4.8756    0.0000 H   0  0  0  0  0  0  0  0  0  0  0  0
   -2.1979   -4.3168    0.0000 H   0  0  0  0  0  0  0  0  0  0  0  0
   -1.8828   -5.0245    0.0000 H   0  0  0  0  0  0  0  0  0  0  0  0
   -1.4029   -2.7669    0.0000 H   0  0  0  0  0  0  0  0  0  0  0  0
   -1.9786   -3.2852    0.0000 H   0  0  0  0  0  0  0  0  0  0  0  0
   -0.6394   -2.6970    0.0000 H   0  0  0  0  0  0  0  0  0  0  0  0
    0.4023   -3.7345    0.0000 H   0  0  0  0  0  0  0  0  0  0  0  0
  1  2  1  0  0  0  0
  2  3  1  0  0  0  0
  3  4  1  0  0  0  0
  4  5  1  0  0  0  0
  5  6  1  0  0  0  0
  6  7  1  0  0  0  0
  7  8  1  0  0  0  0
  8  9  1  0  0  0  0
  8 10  1  0  0  0  0
 10 11  1  0  0  0  0
 11 12  1  0  0  0  0
 12 13  1  0  0  0  0
  8 13  1  0  0  0  0
  2 14  1  0  0  0  0
 14 15  1  0  0  0  0
 15 16  1  0  0  0  0
 16 17  1  0  0  0  0
  2 17  1  0  0  0  0
  1 18  1  0  0  0  0
  1 19  1  0  0  0  0
  1 20  1  0  0  0  0
  3 21  1  0  0  0  0
  3 22  1  0  0  0  0
  4 23  1  0  0  0  0
  4 24  1  0  0  0  0
  5 25  1  0  0  0  0
  5 26  1  0  0  0  0
  6 27  1  0  0  0  0
  6 28  1  0  0  0  0
  7 29  1  0  0  0  0
  7 30  1  0  0  0  0
  9 31  1  0  0  0  0
  9 32  1  0  0  0  0
  9 33  1  0  0  0  0
 10 34  1  0  0  0  0
 10 35  1  0  0  0  0
 11 36  1  0  0  0  0
 11 37  1  0  0  0  0
 12 38  1  0  0  0  0
 12 39  1  0  0  0  0
 13 40  1  0  0  0  0
 13 41  1  0  0  0  0
 14 42  1  0  0  0  0
 14 43  1  0  0  0  0
 15 44  1  0  0  0  0
 15 45  1  0  0  0  0
 16 46  1  0  0  0  0
 16 47  1  0  0  0  0
 17 48  1  0  0  0  0
 17 49  1  0  0  0  0
M  CHG  2   2   1   8   1
M  END
>  <InChIKey>
InChI=1S/C15H32N2/c1-16(12-6-7-13-16)10-4-3-5-11-17(2)14-8-9-15-17/h3-15H2,1-2H3/q+2

>  <CASRN>
144-44-5

> <Outcome>
0

>  <Index>
3314

>  <StandardizerResult>
Clear Stereo (ID: ClearStereo)
Wedge Clean (ID: WedgeClean)
Mesomerize (ID: Mesomerize)
Tautomerize (ID: Tautomerize)
Add Explicit Hydrogens (ID: AddExplicitH)
Clean 2D (ID: Clean2D)

> <knn Distance>
3.60555124282837

> <CpId>
3314

$$$$
3395
  Mrv1532301301811342D          

 36 37  0  0  0  0            999 V2000
   -0.7784    6.8211    0.0000 C   0  0  0  0  0  0  0  0  0  0  0  0
   -0.7784    5.9961    0.0000 C   0  0  0  0  0  0  0  0  0  0  0  0
   -1.4929    5.5836    0.0000 C   0  0  0  0  0  0  0  0  0  0  0  0
   -2.2073    5.9961    0.0000 O   0  0  0  0  0  0  0  0  0  0  0  0
   -1.4929    4.7586    0.0000 O   0  0  0  0  0  0  0  0  0  0  0  0
   -0.0639    5.5836    0.0000 C   0  0  0  0  0  0  0  0  0  0  0  0
    0.6505    5.9961    0.0000 C   0  0  0  0  0  0  0  0  0  0  0  0
    1.3650    5.5836    0.0000 C   0  0  0  0  0  0  0  0  0  0  0  0
    1.3650    4.7586    0.0000 C   0  0  0  0  0  0  0  0  0  0  0  0
    2.0795    4.3461    0.0000 C   0  0  0  0  0  0  0  0  0  0  0  0
    2.0795    3.5211    0.0000 C   0  0  0  0  0  0  0  0  0  0  0  0
    2.7469    3.0361    0.0000 C   0  0  0  0  0  0  0  0  0  0  0  0
    2.4920    2.2515    0.0000 C   0  0  0  0  0  0  0  0  0  0  0  0
    1.6670    2.2515    0.0000 C   0  0  0  0  0  0  0  0  0  0  0  0
    1.4120    3.0361    0.0000 C   0  0  0  0  0  0  0  0  0  0  0  0
    0.6274    3.2911    0.0000 O   0  0  0  0  0  0  0  0  0  0  0  0
    0.6505    4.3461    0.0000 C   0  0  0  0  0  0  0  0  0  0  0  0
   -0.0639    4.7586    0.0000 C   0  0  0  0  0  0  0  0  0  0  0  0
    0.0466    6.8211    0.0000 H   0  0  0  0  0  0  0  0  0  0  0  0
   -0.7784    7.6461    0.0000 H   0  0  0  0  0  0  0  0  0  0  0  0
   -1.6034    6.8211    0.0000 H   0  0  0  0  0  0  0  0  0  0  0  0
   -1.4929    6.4086    0.0000 H   0  0  0  0  0  0  0  0  0  0  0  0
   -3.0323    5.9961    0.0000 H   0  0  0  0  0  0  0  0  0  0  0  0
    0.6505    6.8211    0.0000 H   0  0  0  0  0  0  0  0  0  0  0  0
    2.0795    5.9961    0.0000 H   0  0  0  0  0  0  0  0  0  0  0  0
    2.9031    4.3940    0.0000 H   0  0  0  0  0  0  0  0  0  0  0  0
    2.5328    5.0353    0.0000 H   0  0  0  0  0  0  0  0  0  0  0  0
    1.3444    3.8956    0.0000 H   0  0  0  0  0  0  0  0  0  0  0  0
    3.5594    2.8929    0.0000 H   0  0  0  0  0  0  0  0  0  0  0  0
    3.3200    3.6296    0.0000 H   0  0  0  0  0  0  0  0  0  0  0  0
    2.6068    1.4346    0.0000 H   0  0  0  0  0  0  0  0  0  0  0  0
    3.2335    1.8899    0.0000 H   0  0  0  0  0  0  0  0  0  0  0  0
    0.9255    1.8899    0.0000 H   0  0  0  0  0  0  0  0  0  0  0  0
    1.5522    1.4346    0.0000 H   0  0  0  0  0  0  0  0  0  0  0  0
    0.2195    3.6426    0.0000 H   0  0  0  0  0  0  0  0  0  0  0  0
   -0.7784    4.3461    0.0000 H   0  0  0  0  0  0  0  0  0  0  0  0
  1  2  1  0  0  0  0
  2  3  1  0  0  0  0
  3  4  1  0  0  0  0
  3  5  2  0  0  0  0
  2  6  1  0  0  0  0
  6  7  4  0  0  0  0
  7  8  4  0  0  0  0
  8  9  4  0  0  0  0
  9 10  1  0  0  0  0
 10 11  1  0  0  0  0
 11 12  1  0  0  0  0
 12 13  1  0  0  0  0
 13 14  1  0  0  0  0
 14 15  1  0  0  0  0
 11 15  1  0  0  0  0
 15 16  2  0  0  0  0
  9 17  4  0  0  0  0
 17 18  4  0  0  0  0
  6 18  4  0  0  0  0
  1 19  1  0  0  0  0
  1 20  1  0  0  0  0
  1 21  1  0  0  0  0
  2 22  1  0  0  0  0
  4 23  1  0  0  0  0
  7 24  1  0  0  0  0
  8 25  1  0  0  0  0
 10 26  1  0  0  0  0
 10 27  1  0  0  0  0
 11 28  1  0  0  0  0
 12 29  1  0  0  0  0
 12 30  1  0  0  0  0
 13 31  1  0  0  0  0
 13 32  1  0  0  0  0
 14 33  1  0  0  0  0
 14 34  1  0  0  0  0
 17 35  1  0  0  0  0
 18 36  1  0  0  0  0
M  END
>  <InChIKey>
InChI=1S/C15H18O3/c1-10(15(17)18)12-7-5-11(6-8-12)9-13-3-2-4-14(13)16/h5-8,10,13H,2-4,9H2,1H3,(H,17,18)

>  <CASRN>
68767-14-6

> <Outcome>
0

>  <Index>
3395

>  <StandardizerResult>
Dearomatize (ID: Dearomatize)
Clear Stereo (ID: ClearStereo)
Wedge Clean (ID: WedgeClean)
Mesomerize (ID: Mesomerize)
Tautomerize (ID: Tautomerize)
Aromatize (ID: Aromatize)
Add Explicit Hydrogens (ID: AddExplicitH)
Neutralize (ID: Neutralize)
Clean 2D (ID: Clean2D)

> <knn Distance>
3.60555124282837

> <CpId>
3395

$$$$
3428
  Mrv1532301301811342D          

 47 48  0  0  0  0            999 V2000
   -2.8642    2.4874    0.0000 C   0  0  0  0  0  0  0  0  0  0  0  0
   -2.8642    1.6624    0.0000 C   0  0  0  0  0  0  0  0  0  0  0  0
   -2.1497    1.2499    0.0000 O   0  0  0  0  0  0  0  0  0  0  0  0
   -2.1497    0.4249    0.0000 C   0  0  0  0  0  0  0  0  0  0  0  0
   -2.8642    0.0124    0.0000 O   0  0  0  0  0  0  0  0  0  0  0  0
   -1.4352    0.0124    0.0000 C   0  0  0  0  0  0  0  0  0  0  0  0
   -1.8477   -0.7021    0.0000 C   0  0  0  0  0  0  0  0  0  0  0  0
   -1.0227    0.7269    0.0000 C   0  0  0  0  0  0  0  0  0  0  0  0
   -0.1977    0.7269    0.0000 C   0  0  0  0  0  0  0  0  0  0  0  0
   -0.7208   -0.4001    0.0000 O   0  0  0  0  0  0  0  0  0  0  0  0
   -0.7208   -1.2251    0.0000 C   0  0  0  0  0  0  0  0  0  0  0  0
   -0.0063   -1.6376    0.0000 C   0  0  0  0  0  0  0  0  0  0  0  0
   -0.0063   -2.4626    0.0000 C   0  0  0  0  0  0  0  0  0  0  0  0
   -0.7208   -2.8751    0.0000 C   0  0  0  0  0  0  0  0  0  0  0  0
   -0.7208   -3.7001    0.0000 C   0  0  0  0  0  0  0  0  0  0  0  0
   -0.0063   -4.1126    0.0000 C   0  0  0  0  0  0  0  0  0  0  0  0
    0.7082   -3.7001    0.0000 C   0  0  0  0  0  0  0  0  0  0  0  0
    1.4226   -4.1126    0.0000 C   0  0  0  0  0  0  0  0  0  0  0  0
    1.4226   -4.9376    0.0000 C   0  0  0  0  0  0  0  0  0  0  0  0
    2.1371   -5.3501    0.0000 Cl  0  0  0  0  0  0  0  0  0  0  0  0
    0.7082   -5.3501    0.0000 C   0  0  0  0  0  0  0  0  0  0  0  0
   -0.0063   -4.9376    0.0000 C   0  0  0  0  0  0  0  0  0  0  0  0
   -1.4352   -2.4626    0.0000 C   0  0  0  0  0  0  0  0  0  0  0  0
   -1.4352   -1.6376    0.0000 C   0  0  0  0  0  0  0  0  0  0  0  0
   -2.0392    2.4874    0.0000 H   0  0  0  0  0  0  0  0  0  0  0  0
   -2.8642    3.3124    0.0000 H   0  0  0  0  0  0  0  0  0  0  0  0
   -3.6892    2.4874    0.0000 H   0  0  0  0  0  0  0  0  0  0  0  0
   -3.6878    1.6144    0.0000 H   0  0  0  0  0  0  0  0  0  0  0  0
   -3.3175    0.9731    0.0000 H   0  0  0  0  0  0  0  0  0  0  0  0
   -2.5622   -0.2896    0.0000 H   0  0  0  0  0  0  0  0  0  0  0  0
   -2.2602   -1.4165    0.0000 H   0  0  0  0  0  0  0  0  0  0  0  0
   -1.1333   -1.1146    0.0000 H   0  0  0  0  0  0  0  0  0  0  0  0
   -1.0707    1.5505    0.0000 H   0  0  0  0  0  0  0  0  0  0  0  0
   -1.7120    1.1802    0.0000 H   0  0  0  0  0  0  0  0  0  0  0  0
   -0.1977   -0.0981    0.0000 H   0  0  0  0  0  0  0  0  0  0  0  0
    0.6273    0.7269    0.0000 H   0  0  0  0  0  0  0  0  0  0  0  0
   -0.1977    1.5519    0.0000 H   0  0  0  0  0  0  0  0  0  0  0  0
    0.7082   -1.2251    0.0000 H   0  0  0  0  0  0  0  0  0  0  0  0
    0.7082   -2.8751    0.0000 H   0  0  0  0  0  0  0  0  0  0  0  0
   -1.5444   -3.7481    0.0000 H   0  0  0  0  0  0  0  0  0  0  0  0
   -1.1741   -4.3894    0.0000 H   0  0  0  0  0  0  0  0  0  0  0  0
   -0.0063   -3.2876    0.0000 H   0  0  0  0  0  0  0  0  0  0  0  0
    2.1371   -3.7001    0.0000 H   0  0  0  0  0  0  0  0  0  0  0  0
    0.7082   -6.1751    0.0000 H   0  0  0  0  0  0  0  0  0  0  0  0
   -0.7208   -5.3501    0.0000 H   0  0  0  0  0  0  0  0  0  0  0  0
   -2.1497   -2.8751    0.0000 H   0  0  0  0  0  0  0  0  0  0  0  0
   -0.7208   -2.0501    0.0000 H   0  0  0  0  0  0  0  0  0  0  0  0
  1  2  1  0  0  0  0
  2  3  1  0  0  0  0
  3  4  1  0  0  0  0
  4  5  2  0  0  0  0
  4  6  1  0  0  0  0
  6  7  1  0  0  0  0
  6  8  1  0  0  0  0
  8  9  1  0  0  0  0
  6 10  1  0  0  0  0
 10 11  1  0  0  0  0
 11 12  4  0  0  0  0
 12 13  4  0  0  0  0
 13 14  4  0  0  0  0
 14 15  1  0  0  0  0
 15 16  1  0  0  0  0
 16 17  4  0  0  0  0
 17 18  4  0  0  0  0
 18 19  4  0  0  0  0
 19 20  1  0  0  0  0
 19 21  4  0  0  0  0
 21 22  4  0  0  0  0
 16 22  4  0  0  0  0
 14 23  4  0  0  0  0
 23 24  4  0  0  0  0
 11 24  4  0  0  0  0
  1 25  1  0  0  0  0
  1 26  1  0  0  0  0
  1 27  1  0  0  0  0
  2 28  1  0  0  0  0
  2 29  1  0  0  0  0
  7 30  1  0  0  0  0
  7 31  1  0  0  0  0
  7 32  1  0  0  0  0
  8 33  1  0  0  0  0
  8 34  1  0  0  0  0
  9 35  1  0  0  0  0
  9 36  1  0  0  0  0
  9 37  1  0  0  0  0
 12 38  1  0  0  0  0
 13 39  1  0  0  0  0
 15 40  1  0  0  0  0
 15 41  1  0  0  0  0
 17 42  1  0  0  0  0
 18 43  1  0  0  0  0
 21 44  1  0  0  0  0
 22 45  1  0  0  0  0
 23 46  1  0  0  0  0
 24 47  1  0  0  0  0
M  END
>  <InChIKey>
InChI=1S/C20H23ClO3/c1-4-20(3,19(22)23-5-2)24-18-12-8-16(9-13-18)14-15-6-10-17(21)11-7-15/h6-13H,4-5,14H2,1-3H3

>  <CASRN>
55937-99-0

> <Outcome>
0

>  <Index>
3428

>  <StandardizerResult>
Dearomatize (ID: Dearomatize)
Clear Stereo (ID: ClearStereo)
Wedge Clean (ID: WedgeClean)
Mesomerize (ID: Mesomerize)
Tautomerize (ID: Tautomerize)
Aromatize (ID: Aromatize)
Add Explicit Hydrogens (ID: AddExplicitH)
Neutralize (ID: Neutralize)
Clean 2D (ID: Clean2D)

> <knn Distance>
3.60555124282837

> <CpId>
3428

$$$$
3497
  Mrv1532301301811342D          

 33 34  0  0  0  0            999 V2000
   -0.0000   -4.9500    0.0000 O   0  0  0  0  0  0  0  0  0  0  0  0
    0.7145   -5.3625    0.0000 C   0  0  0  0  0  0  0  0  0  0  0  0
    0.7145   -6.1875    0.0000 O   0  0  0  0  0  0  0  0  0  0  0  0
    1.4289   -4.9500    0.0000 C   0  0  0  0  0  0  0  0  0  0  0  0
    2.1434   -5.3625    0.0000 C   0  0  0  0  0  0  0  0  0  0  0  0
    2.8579   -4.9500    0.0000 C   0  0  0  0  0  0  0  0  0  0  0  0
    2.8579   -4.1250    0.0000 O   0  0  0  0  0  0  0  0  0  0  0  0
    3.5723   -5.3625    0.0000 C   0  0  0  0  0  0  0  0  0  0  0  0
    4.2868   -4.9500    0.0000 C   0  0  0  0  0  0  0  0  0  0  0  0
    5.0013   -5.3625    0.0000 C   0  0  0  0  0  0  0  0  0  0  0  0
    5.0013   -6.1875    0.0000 C   0  0  0  0  0  0  0  0  0  0  0  0
    4.2868   -6.6000    0.0000 C   0  0  0  0  0  0  0  0  0  0  0  0
    3.5723   -6.1875    0.0000 C   0  0  0  0  0  0  0  0  0  0  0  0
    5.7158   -6.6000    0.0000 C   0  0  0  0  0  0  0  0  0  0  0  0
    6.4302   -6.1875    0.0000 C   0  0  0  0  0  0  0  0  0  0  0  0
    7.1447   -6.6000    0.0000 C   0  0  0  0  0  0  0  0  0  0  0  0
    7.1447   -7.4250    0.0000 C   0  0  0  0  0  0  0  0  0  0  0  0
    6.4302   -7.8375    0.0000 C   0  0  0  0  0  0  0  0  0  0  0  0
    5.7158   -7.4250    0.0000 C   0  0  0  0  0  0  0  0  0  0  0  0
   -0.0000   -4.1250    0.0000 H   0  0  0  0  0  0  0  0  0  0  0  0
    1.7992   -4.2128    0.0000 H   0  0  0  0  0  0  0  0  0  0  0  0
    1.0587   -4.2128    0.0000 H   0  0  0  0  0  0  0  0  0  0  0  0
    1.7731   -6.0997    0.0000 H   0  0  0  0  0  0  0  0  0  0  0  0
    2.5137   -6.0997    0.0000 H   0  0  0  0  0  0  0  0  0  0  0  0
    4.2868   -4.1250    0.0000 H   0  0  0  0  0  0  0  0  0  0  0  0
    5.7158   -4.9500    0.0000 H   0  0  0  0  0  0  0  0  0  0  0  0
    4.2868   -7.4250    0.0000 H   0  0  0  0  0  0  0  0  0  0  0  0
    2.8579   -6.6000    0.0000 H   0  0  0  0  0  0  0  0  0  0  0  0
    6.4302   -5.3625    0.0000 H   0  0  0  0  0  0  0  0  0  0  0  0
    7.8592   -6.1875    0.0000 H   0  0  0  0  0  0  0  0  0  0  0  0
    7.8592   -7.8375    0.0000 H   0  0  0  0  0  0  0  0  0  0  0  0
    6.4302   -8.6625    0.0000 H   0  0  0  0  0  0  0  0  0  0  0  0
    5.0013   -7.8375    0.0000 H   0  0  0  0  0  0  0  0  0  0  0  0
  1  2  1  0  0  0  0
  2  3  2  0  0  0  0
  2  4  1  0  0  0  0
  4  5  1  0  0  0  0
  5  6  1  0  0  0  0
  6  7  2  0  0  0  0
  6  8  1  0  0  0  0
  8  9  4  0  0  0  0
  9 10  4  0  0  0  0
 10 11  4  0  0  0  0
 11 12  4  0  0  0  0
 12 13  4  0  0  0  0
  8 13  4  0  0  0  0
 11 14  1  0  0  0  0
 14 15  4  0  0  0  0
 15 16  4  0  0  0  0
 16 17  4  0  0  0  0
 17 18  4  0  0  0  0
 18 19  4  0  0  0  0
 14 19  4  0  0  0  0
  1 20  1  0  0  0  0
  4 21  1  0  0  0  0
  4 22  1  0  0  0  0
  5 23  1  0  0  0  0
  5 24  1  0  0  0  0
  9 25  1  0  0  0  0
 10 26  1  0  0  0  0
 12 27  1  0  0  0  0
 13 28  1  0  0  0  0
 15 29  1  0  0  0  0
 16 30  1  0  0  0  0
 17 31  1  0  0  0  0
 18 32  1  0  0  0  0
 19 33  1  0  0  0  0
M  END
>  <InChIKey>
InChI=1S/C16H14O3/c17-15(10-11-16(18)19)14-8-6-13(7-9-14)12-4-2-1-3-5-12/h1-9H,10-11H2,(H,18,19)

>  <CASRN>
36330-85-5

> <Outcome>
0

>  <Index>
3497

>  <StandardizerResult>
Dearomatize (ID: Dearomatize)
Clear Stereo (ID: ClearStereo)
Wedge Clean (ID: WedgeClean)
Mesomerize (ID: Mesomerize)
Tautomerize (ID: Tautomerize)
Aromatize (ID: Aromatize)
Add Explicit Hydrogens (ID: AddExplicitH)
Neutralize (ID: Neutralize)
Clean 2D (ID: Clean2D)

> <knn Distance>
3.60555124282837

> <CpId>
3497

$$$$
32
  Mrv1532301301811342D          

 33 35  0  0  0  0            999 V2000
   -3.0598    3.0222    0.0000 C   0  0  0  0  0  0  0  0  0  0  0  0
   -2.2528    2.8507    0.0000 C   0  0  0  0  0  0  0  0  0  0  0  0
   -1.9979    2.0661    0.0000 C   0  0  0  0  0  0  0  0  0  0  0  0
   -2.5499    1.4530    0.0000 O   0  0  0  0  0  0  0  0  0  0  0  0
   -1.1909    1.8945    0.0000 O   0  0  0  0  0  0  0  0  0  0  0  0
   -0.9360    1.1099    0.0000 C   0  0  0  0  0  0  0  0  0  0  0  0
   -1.4209    0.4425    0.0000 C   0  0  0  0  0  0  0  0  0  0  0  0
   -0.9360   -0.2250    0.0000 C   0  0  0  0  0  0  0  0  0  0  0  0
   -0.1514    0.0300    0.0000 C   0  0  0  0  0  0  0  0  0  0  0  0
    0.5631   -0.3825    0.0000 C   0  0  0  0  0  0  0  0  0  0  0  0
    1.2776    0.0300    0.0000 C   0  0  0  0  0  0  0  0  0  0  0  0
    1.2776    0.8550    0.0000 C   0  0  0  0  0  0  0  0  0  0  0  0
    0.5631    1.2675    0.0000 C   0  0  0  0  0  0  0  0  0  0  0  0
    0.3569    0.4425    0.0000 C   0  0  0  0  0  0  0  0  0  0  0  0
   -0.1514    0.8550    0.0000 C   0  0  0  0  0  0  0  0  0  0  0  0
   -2.8883    3.8292    0.0000 H   0  0  0  0  0  0  0  0  0  0  0  0
   -3.8668    3.1937    0.0000 H   0  0  0  0  0  0  0  0  0  0  0  0
   -3.2313    2.2152    0.0000 H   0  0  0  0  0  0  0  0  0  0  0  0
   -1.4844    3.1508    0.0000 H   0  0  0  0  0  0  0  0  0  0  0  0
   -2.0347    3.6463    0.0000 H   0  0  0  0  0  0  0  0  0  0  0  0
   -0.3526    1.6933    0.0000 H   0  0  0  0  0  0  0  0  0  0  0  0
   -2.2459    0.4425    0.0000 H   0  0  0  0  0  0  0  0  0  0  0  0
   -1.1909   -1.0096    0.0000 H   0  0  0  0  0  0  0  0  0  0  0  0
   -0.2376   -0.7905    0.0000 H   0  0  0  0  0  0  0  0  0  0  0  0
    0.9568   -1.1076    0.0000 H   0  0  0  0  0  0  0  0  0  0  0  0
    1.7309   -0.6593    0.0000 H   0  0  0  0  0  0  0  0  0  0  0  0
    2.1012   -0.0180    0.0000 H   0  0  0  0  0  0  0  0  0  0  0  0
    2.1012    0.9029    0.0000 H   0  0  0  0  0  0  0  0  0  0  0  0
    1.7309    1.5443    0.0000 H   0  0  0  0  0  0  0  0  0  0  0  0
    0.5631    2.0925    0.0000 H   0  0  0  0  0  0  0  0  0  0  0  0
    1.1026    0.0896    0.0000 H   0  0  0  0  0  0  0  0  0  0  0  0
    1.1026    0.7953    0.0000 H   0  0  0  0  0  0  0  0  0  0  0  0
   -0.8188    0.3701    0.0000 H   0  0  0  0  0  0  0  0  0  0  0  0
  1  2  1  0  0  0  0
  2  3  1  0  0  0  0
  3  4  2  0  0  0  0
  3  5  1  0  0  0  0
  5  6  1  0  0  0  0
  6  7  1  0  0  0  0
  7  8  2  0  0  0  0
  8  9  1  0  0  0  0
  9 10  1  0  0  0  0
 10 11  1  0  0  0  0
 11 12  1  0  0  0  0
 12 13  1  0  0  0  0
 13 14  1  0  0  0  0
 10 14  1  0  0  0  0
 13 15  1  0  0  0  0
  6 15  1  0  0  0  0
  9 15  1  0  0  0  0
  1 16  1  0  0  0  0
  1 17  1  0  0  0  0
  1 18  1  0  0  0  0
  2 19  1  0  0  0  0
  2 20  1  0  0  0  0
  6 21  1  0  0  0  0
  7 22  1  0  0  0  0
  8 23  1  0  0  0  0
  9 24  1  0  0  0  0
 10 25  1  0  0  0  0
 11 26  1  0  0  0  0
 11 27  1  0  0  0  0
 12 28  1  0  0  0  0
 12 29  1  0  0  0  0
 13 30  1  0  0  0  0
 14 31  1  0  0  0  0
 14 32  1  0  0  0  0
 15 33  1  0  0  0  0
M  END
>  <InChIKey>
BALAUIYKESNHDW-UHFFFAOYSA-N

>  <UN GHS>
Non-irritant

>  <CASRN>
68912-13-0

> <Outcome>
0

>  <Index>
32

>  <StandardizerResult>
Clear Stereo (ID: ClearStereo)
Wedge Clean (ID: WedgeClean)
Mesomerize (ID: Mesomerize)
Tautomerize (ID: Tautomerize)
Add Explicit Hydrogens (ID: AddExplicitH)
Neutralize (ID: Neutralize)
Clean 2D (ID: Clean2D)

> <knn Distance>
3.74165749549866

> <CpId>
32

$$$$
75
  Mrv1532301301811342D          

 79 78  0  0  0  0            999 V2000
    7.1169  -20.3564    0.0000 C   0  0  0  0  0  0  0  0  0  0  0  0
    7.1169  -19.5314    0.0000 O   0  0  0  0  0  0  0  0  0  0  0  0
    6.4025  -19.1189    0.0000 C   0  0  0  0  0  0  0  0  0  0  0  0
    6.4025  -18.2939    0.0000 C   0  0  0  0  0  0  0  0  0  0  0  0
    5.6880  -17.8814    0.0000 O   0  0  0  0  0  0  0  0  0  0  0  0
    5.6880  -17.0564    0.0000 C   0  0  0  0  0  0  0  0  0  0  0  0
    4.9735  -16.6439    0.0000 C   0  0  0  0  0  0  0  0  0  0  0  0
    4.9735  -15.8189    0.0000 O   0  0  0  0  0  0  0  0  0  0  0  0
    4.2591  -15.4064    0.0000 C   0  0  0  0  0  0  0  0  0  0  0  0
    4.2591  -14.5814    0.0000 C   0  0  0  0  0  0  0  0  0  0  0  0
    3.5446  -14.1689    0.0000 O   0  0  0  0  0  0  0  0  0  0  0  0
    3.5446  -13.3439    0.0000 B   0  0  0  0  0  0  0  0  0  0  0  0
    2.8301  -12.9314    0.0000 O   0  0  0  0  0  0  0  0  0  0  0  0
    2.8301  -12.1064    0.0000 C   0  0  0  0  0  0  0  0  0  0  0  0
    2.1156  -11.6939    0.0000 C   0  0  0  0  0  0  0  0  0  0  0  0
    2.1156  -10.8689    0.0000 O   0  0  0  0  0  0  0  0  0  0  0  0
    1.4012  -10.4564    0.0000 C   0  0  0  0  0  0  0  0  0  0  0  0
    1.4012   -9.6314    0.0000 C   0  0  0  0  0  0  0  0  0  0  0  0
    0.6867   -9.2189    0.0000 O   0  0  0  0  0  0  0  0  0  0  0  0
    0.6867   -8.3939    0.0000 C   0  0  0  0  0  0  0  0  0  0  0  0
   -0.0278   -7.9814    0.0000 C   0  0  0  0  0  0  0  0  0  0  0  0
   -0.0278   -7.1564    0.0000 O   0  0  0  0  0  0  0  0  0  0  0  0
   -0.7422   -6.7439    0.0000 C   0  0  0  0  0  0  0  0  0  0  0  0
    4.2591  -12.9314    0.0000 O   0  0  0  0  0  0  0  0  0  0  0  0
    4.2591  -12.1064    0.0000 C   0  0  0  0  0  0  0  0  0  0  0  0
    4.9735  -11.6939    0.0000 C   0  0  0  0  0  0  0  0  0  0  0  0
    4.9735  -10.8689    0.0000 O   0  0  0  0  0  0  0  0  0  0  0  0
    5.6880  -10.4564    0.0000 C   0  0  0  0  0  0  0  0  0  0  0  0
    5.6880   -9.6314    0.0000 C   0  0  0  0  0  0  0  0  0  0  0  0
    6.4025   -9.2189    0.0000 O   0  0  0  0  0  0  0  0  0  0  0  0
    6.4025   -8.3939    0.0000 C   0  0  0  0  0  0  0  0  0  0  0  0
    7.1169   -7.9814    0.0000 C   0  0  0  0  0  0  0  0  0  0  0  0
    7.1169   -7.1564    0.0000 O   0  0  0  0  0  0  0  0  0  0  0  0
    7.8314   -6.7439    0.0000 C   0  0  0  0  0  0  0  0  0  0  0  0
    6.2919  -20.3564    0.0000 H   0  0  0  0  0  0  0  0  0  0  0  0
    7.1169  -21.1814    0.0000 H   0  0  0  0  0  0  0  0  0  0  0  0
    7.9419  -20.3564    0.0000 H   0  0  0  0  0  0  0  0  0  0  0  0
    5.5789  -19.1668    0.0000 H   0  0  0  0  0  0  0  0  0  0  0  0
    5.9491  -19.8081    0.0000 H   0  0  0  0  0  0  0  0  0  0  0  0
    7.2261  -18.2459    0.0000 H   0  0  0  0  0  0  0  0  0  0  0  0
    6.8558  -17.6046    0.0000 H   0  0  0  0  0  0  0  0  0  0  0  0
    6.5116  -17.0084    0.0000 H   0  0  0  0  0  0  0  0  0  0  0  0
    6.1413  -16.3671    0.0000 H   0  0  0  0  0  0  0  0  0  0  0  0
    4.1499  -16.6918    0.0000 H   0  0  0  0  0  0  0  0  0  0  0  0
    4.5202  -17.3331    0.0000 H   0  0  0  0  0  0  0  0  0  0  0  0
    3.4354  -15.4543    0.0000 H   0  0  0  0  0  0  0  0  0  0  0  0
    3.8057  -16.0956    0.0000 H   0  0  0  0  0  0  0  0  0  0  0  0
    5.0827  -14.5334    0.0000 H   0  0  0  0  0  0  0  0  0  0  0  0
    4.7124  -13.8921    0.0000 H   0  0  0  0  0  0  0  0  0  0  0  0
    3.6537  -12.0584    0.0000 H   0  0  0  0  0  0  0  0  0  0  0  0
    3.2835  -11.4171    0.0000 H   0  0  0  0  0  0  0  0  0  0  0  0
    1.2920  -11.7418    0.0000 H   0  0  0  0  0  0  0  0  0  0  0  0
    1.6623  -12.3831    0.0000 H   0  0  0  0  0  0  0  0  0  0  0  0
    0.5776  -10.5043    0.0000 H   0  0  0  0  0  0  0  0  0  0  0  0
    0.9478  -11.1456    0.0000 H   0  0  0  0  0  0  0  0  0  0  0  0
    2.2248   -9.5834    0.0000 H   0  0  0  0  0  0  0  0  0  0  0  0
    1.8545   -8.9421    0.0000 H   0  0  0  0  0  0  0  0  0  0  0  0
    1.5103   -8.3459    0.0000 H   0  0  0  0  0  0  0  0  0  0  0  0
    1.1400   -7.7046    0.0000 H   0  0  0  0  0  0  0  0  0  0  0  0
   -0.8514   -8.0293    0.0000 H   0  0  0  0  0  0  0  0  0  0  0  0
   -0.4811   -8.6706    0.0000 H   0  0  0  0  0  0  0  0  0  0  0  0
   -0.3297   -6.0294    0.0000 H   0  0  0  0  0  0  0  0  0  0  0  0
   -1.4567   -6.3314    0.0000 H   0  0  0  0  0  0  0  0  0  0  0  0
   -1.1547   -7.4583    0.0000 H   0  0  0  0  0  0  0  0  0  0  0  0
    4.0772  -11.3017    0.0000 H   0  0  0  0  0  0  0  0  0  0  0  0
    4.9735  -12.5189    0.0000 H   0  0  0  0  0  0  0  0  0  0  0  0
    5.7488  -11.9760    0.0000 H   0  0  0  0  0  0  0  0  0  0  0  0
    5.7488  -11.4117    0.0000 H   0  0  0  0  0  0  0  0  0  0  0  0
    6.4193  -10.8382    0.0000 H   0  0  0  0  0  0  0  0  0  0  0  0
    6.3936  -10.0288    0.0000 H   0  0  0  0  0  0  0  0  0  0  0  0
    5.2346   -8.9421    0.0000 H   0  0  0  0  0  0  0  0  0  0  0  0
    4.8644   -9.5834    0.0000 H   0  0  0  0  0  0  0  0  0  0  0  0
    5.9491   -7.7046    0.0000 H   0  0  0  0  0  0  0  0  0  0  0  0
    5.5789   -8.3459    0.0000 H   0  0  0  0  0  0  0  0  0  0  0  0
    7.5703   -8.6706    0.0000 H   0  0  0  0  0  0  0  0  0  0  0  0
    7.9405   -8.0293    0.0000 H   0  0  0  0  0  0  0  0  0  0  0  0
    8.2439   -7.4583    0.0000 H   0  0  0  0  0  0  0  0  0  0  0  0
    8.5459   -6.3314    0.0000 H   0  0  0  0  0  0  0  0  0  0  0  0
    7.4189   -6.0294    0.0000 H   0  0  0  0  0  0  0  0  0  0  0  0
  1  2  1  0  0  0  0
  2  3  1  0  0  0  0
  3  4  1  0  0  0  0
  4  5  1  0  0  0  0
  5  6  1  0  0  0  0
  6  7  1  0  0  0  0
  7  8  1  0  0  0  0
  8  9  1  0  0  0  0
  9 10  1  0  0  0  0
 10 11  1  0  0  0  0
 11 12  1  0  0  0  0
 12 13  1  0  0  0  0
 13 14  1  0  0  0  0
 14 15  1  0  0  0  0
 15 16  1  0  0  0  0
 16 17  1  0  0  0  0
 17 18  1  0  0  0  0
 18 19  1  0  0  0  0
 19 20  1  0  0  0  0
 20 21  1  0  0  0  0
 21 22  1  0  0  0  0
 22 23  1  0  0  0  0
 12 24  1  0  0  0  0
 24 25  1  0  0  0  0
 25 26  1  0  0  0  0
 26 27  1  0  0  0  0
 27 28  1  0  0  0  0
 28 29  1  0  0  0  0
 29 30  1  0  0  0  0
 30 31  1  0  0  0  0
 31 32  1  0  0  0  0
 32 33  1  0  0  0  0
 33 34  1  0  0  0  0
  1 35  1  0  0  0  0
  1 36  1  0  0  0  0
  1 37  1  0  0  0  0
  3 38  1  0  0  0  0
  3 39  1  0  0  0  0
  4 40  1  0  0  0  0
  4 41  1  0  0  0  0
  6 42  1  0  0  0  0
  6 43  1  0  0  0  0
  7 44  1  0  0  0  0
  7 45  1  0  0  0  0
  9 46  1  0  0  0  0
  9 47  1  0  0  0  0
 10 48  1  0  0  0  0
 10 49  1  0  0  0  0
 14 50  1  0  0  0  0
 14 51  1  0  0  0  0
 15 52  1  0  0  0  0
 15 53  1  0  0  0  0
 17 54  1  0  0  0  0
 17 55  1  0  0  0  0
 18 56  1  0  0  0  0
 18 57  1  0  0  0  0
 20 58  1  0  0  0  0
 20 59  1  0  0  0  0
 21 60  1  0  0  0  0
 21 61  1  0  0  0  0
 23 62  1  0  0  0  0
 23 63  1  0  0  0  0
 23 64  1  0  0  0  0
 25 65  1  0  0  0  0
 25 66  1  0  0  0  0
 26 67  1  0  0  0  0
 26 68  1  0  0  0  0
 28 69  1  0  0  0  0
 28 70  1  0  0  0  0
 29 71  1  0  0  0  0
 29 72  1  0  0  0  0
 31 73  1  0  0  0  0
 31 74  1  0  0  0  0
 32 75  1  0  0  0  0
 32 76  1  0  0  0  0
 34 77  1  0  0  0  0
 34 78  1  0  0  0  0
 34 79  1  0  0  0  0
M  END
>  <InChIKey>
BYRJZJXBVKUYFH-UHFFFAOYSA-N

>  <UN GHS>
Non-irritant

>  <CASRN>
30989-05-0

> <Outcome>
0

>  <Index>
75

>  <StandardizerResult>
Clear Stereo (ID: ClearStereo)
Wedge Clean (ID: WedgeClean)
Mesomerize (ID: Mesomerize)
Tautomerize (ID: Tautomerize)
Add Explicit Hydrogens (ID: AddExplicitH)
Neutralize (ID: Neutralize)
Clean 2D (ID: Clean2D)

> <knn Distance>
3.74165749549866

> <CpId>
75

$$$$
91
  Mrv1532301301811342D          

 69 75  0  0  0  0            999 V2000
   -3.5724    3.7125    0.0000 C   0  0  0  0  0  0  0  0  0  0  0  0
   -2.8579    3.3000    0.0000 C   0  0  0  0  0  0  0  0  0  0  0  0
   -2.8579    2.4750    0.0000 C   0  0  0  0  0  0  0  0  0  0  0  0
   -3.5724    2.0625    0.0000 C   0  0  0  0  0  0  0  0  0  0  0  0
   -4.2868    2.4750    0.0000 C   0  0  0  0  0  0  0  0  0  0  0  0
   -4.2868    3.3000    0.0000 C   0  0  0  0  0  0  0  0  0  0  0  0
   -3.5724    1.2375    0.0000 C   0  0  0  0  0  0  0  0  0  0  0  0
   -2.8579    0.8250    0.0000 C   0  0  0  0  0  0  0  0  0  0  0  0
   -2.8579    0.0000    0.0000 C   0  0  0  0  0  0  0  0  0  0  0  0
   -3.5724   -0.4125    0.0000 C   0  0  0  0  0  0  0  0  0  0  0  0
   -4.2868    0.0000    0.0000 C   0  0  0  0  0  0  0  0  0  0  0  0
   -4.2868    0.8250    0.0000 C   0  0  0  0  0  0  0  0  0  0  0  0
   -3.5724   -1.2375    0.0000 C   0  0  0  0  0  0  0  0  0  0  0  0
   -2.8579   -1.6500    0.0000 N   0  0  0  0  0  0  0  0  0  0  0  0
   -2.8579   -2.4750    0.0000 C   0  0  0  0  0  0  0  0  0  0  0  0
   -3.5724   -2.8875    0.0000 N   0  0  0  0  0  0  0  0  0  0  0  0
   -4.2868   -2.4750    0.0000 C   0  0  0  0  0  0  0  0  0  0  0  0
   -4.2868   -1.6500    0.0000 N   0  0  0  0  0  0  0  0  0  0  0  0
   -5.0013   -2.8875    0.0000 C   0  0  0  0  0  0  0  0  0  0  0  0
   -5.0013   -3.7125    0.0000 C   0  0  0  0  0  0  0  0  0  0  0  0
   -5.7158   -4.1250    0.0000 C   0  0  0  0  0  0  0  0  0  0  0  0
   -6.4302   -3.7125    0.0000 C   0  0  0  0  0  0  0  0  0  0  0  0
   -6.4302   -2.8875    0.0000 C   0  0  0  0  0  0  0  0  0  0  0  0
   -5.7158   -2.4750    0.0000 C   0  0  0  0  0  0  0  0  0  0  0  0
   -7.1447   -4.1250    0.0000 C   0  0  0  0  0  0  0  0  0  0  0  0
   -7.1447   -4.9500    0.0000 C   0  0  0  0  0  0  0  0  0  0  0  0
   -7.8592   -5.3625    0.0000 C   0  0  0  0  0  0  0  0  0  0  0  0
   -8.5737   -4.9500    0.0000 C   0  0  0  0  0  0  0  0  0  0  0  0
   -8.5737   -4.1250    0.0000 C   0  0  0  0  0  0  0  0  0  0  0  0
   -7.8592   -3.7125    0.0000 C   0  0  0  0  0  0  0  0  0  0  0  0
   -2.1434   -2.8875    0.0000 C   0  0  0  0  0  0  0  0  0  0  0  0
   -1.4289   -2.4750    0.0000 C   0  0  0  0  0  0  0  0  0  0  0  0
   -0.7145   -2.8875    0.0000 C   0  0  0  0  0  0  0  0  0  0  0  0
   -0.7145   -3.7125    0.0000 C   0  0  0  0  0  0  0  0  0  0  0  0
   -1.4289   -4.1250    0.0000 C   0  0  0  0  0  0  0  0  0  0  0  0
   -2.1434   -3.7125    0.0000 C   0  0  0  0  0  0  0  0  0  0  0  0
   -0.0000   -4.1250    0.0000 C   0  0  0  0  0  0  0  0  0  0  0  0
    0.7145   -3.7125    0.0000 C   0  0  0  0  0  0  0  0  0  0  0  0
    1.4289   -4.1250    0.0000 C   0  0  0  0  0  0  0  0  0  0  0  0
    1.4289   -4.9500    0.0000 C   0  0  0  0  0  0  0  0  0  0  0  0
    0.7145   -5.3625    0.0000 C   0  0  0  0  0  0  0  0  0  0  0  0
   -0.0000   -4.9500    0.0000 C   0  0  0  0  0  0  0  0  0  0  0  0
   -3.5724    4.5375    0.0000 H   0  0  0  0  0  0  0  0  0  0  0  0
   -2.1434    3.7125    0.0000 H   0  0  0  0  0  0  0  0  0  0  0  0
   -2.1434    2.0625    0.0000 H   0  0  0  0  0  0  0  0  0  0  0  0
   -5.0013    2.0625    0.0000 H   0  0  0  0  0  0  0  0  0  0  0  0
   -5.0013    3.7125    0.0000 H   0  0  0  0  0  0  0  0  0  0  0  0
   -2.1434    1.2375    0.0000 H   0  0  0  0  0  0  0  0  0  0  0  0
   -2.1434   -0.4125    0.0000 H   0  0  0  0  0  0  0  0  0  0  0  0
   -5.0013   -0.4125    0.0000 H   0  0  0  0  0  0  0  0  0  0  0  0
   -5.0013    1.2375    0.0000 H   0  0  0  0  0  0  0  0  0  0  0  0
   -4.2868   -4.1250    0.0000 H   0  0  0  0  0  0  0  0  0  0  0  0
   -5.7158   -4.9500    0.0000 H   0  0  0  0  0  0  0  0  0  0  0  0
   -7.1447   -2.4750    0.0000 H   0  0  0  0  0  0  0  0  0  0  0  0
   -5.7158   -1.6500    0.0000 H   0  0  0  0  0  0  0  0  0  0  0  0
   -6.4302   -5.3625    0.0000 H   0  0  0  0  0  0  0  0  0  0  0  0
   -7.8592   -6.1875    0.0000 H   0  0  0  0  0  0  0  0  0  0  0  0
   -9.2881   -5.3625    0.0000 H   0  0  0  0  0  0  0  0  0  0  0  0
   -9.2881   -3.7125    0.0000 H   0  0  0  0  0  0  0  0  0  0  0  0
   -7.8592   -2.8875    0.0000 H   0  0  0  0  0  0  0  0  0  0  0  0
   -1.4289   -1.6500    0.0000 H   0  0  0  0  0  0  0  0  0  0  0  0
   -0.0000   -2.4750    0.0000 H   0  0  0  0  0  0  0  0  0  0  0  0
   -1.4289   -4.9500    0.0000 H   0  0  0  0  0  0  0  0  0  0  0  0
   -2.8579   -4.1250    0.0000 H   0  0  0  0  0  0  0  0  0  0  0  0
    0.7145   -2.8875    0.0000 H   0  0  0  0  0  0  0  0  0  0  0  0
    2.1434   -3.7125    0.0000 H   0  0  0  0  0  0  0  0  0  0  0  0
    2.1434   -5.3625    0.0000 H   0  0  0  0  0  0  0  0  0  0  0  0
    0.7145   -6.1875    0.0000 H   0  0  0  0  0  0  0  0  0  0  0  0
   -0.7145   -5.3625    0.0000 H   0  0  0  0  0  0  0  0  0  0  0  0
  1  2  4  0  0  0  0
  2  3  4  0  0  0  0
  3  4  4  0  0  0  0
  4  5  4  0  0  0  0
  5  6  4  0  0  0  0
  1  6  4  0  0  0  0
  4  7  1  0  0  0  0
  7  8  4  0  0  0  0
  8  9  4  0  0  0  0
  9 10  4  0  0  0  0
 10 11  4  0  0  0  0
 11 12  4  0  0  0  0
  7 12  4  0  0  0  0
 10 13  1  0  0  0  0
 13 14  4  0  0  0  0
 14 15  4  0  0  0  0
 15 16  4  0  0  0  0
 16 17  4  0  0  0  0
 17 18  4  0  0  0  0
 13 18  4  0  0  0  0
 17 19  1  0  0  0  0
 19 20  4  0  0  0  0
 20 21  4  0  0  0  0
 21 22  4  0  0  0  0
 22 23  4  0  0  0  0
 23 24  4  0  0  0  0
 19 24  4  0  0  0  0
 22 25  1  0  0  0  0
 25 26  4  0  0  0  0
 26 27  4  0  0  0  0
 27 28  4  0  0  0  0
 28 29  4  0  0  0  0
 29 30  4  0  0  0  0
 25 30  4  0  0  0  0
 15 31  1  0  0  0  0
 31 32  4  0  0  0  0
 32 33  4  0  0  0  0
 33 34  4  0  0  0  0
 34 35  4  0  0  0  0
 35 36  4  0  0  0  0
 31 36  4  0  0  0  0
 34 37  1  0  0  0  0
 37 38  4  0  0  0  0
 38 39  4  0  0  0  0
 39 40  4  0  0  0  0
 40 41  4  0  0  0  0
 41 42  4  0  0  0  0
 37 42  4  0  0  0  0
  1 43  1  0  0  0  0
  2 44  1  0  0  0  0
  3 45  1  0  0  0  0
  5 46  1  0  0  0  0
  6 47  1  0  0  0  0
  8 48  1  0  0  0  0
  9 49  1  0  0  0  0
 11 50  1  0  0  0  0
 12 51  1  0  0  0  0
 20 52  1  0  0  0  0
 21 53  1  0  0  0  0
 23 54  1  0  0  0  0
 24 55  1  0  0  0  0
 26 56  1  0  0  0  0
 27 57  1  0  0  0  0
 28 58  1  0  0  0  0
 29 59  1  0  0  0  0
 30 60  1  0  0  0  0
 32 61  1  0  0  0  0
 33 62  1  0  0  0  0
 35 63  1  0  0  0  0
 36 64  1  0  0  0  0
 38 65  1  0  0  0  0
 39 66  1  0  0  0  0
 40 67  1  0  0  0  0
 41 68  1  0  0  0  0
 42 69  1  0  0  0  0
M  END
>  <InChIKey>
CENPSTJGQOQKKW-UHFFFAOYSA-N

>  <UN GHS>
Non-irritant

>  <CASRN>
31274-51-8

> <Outcome>
0

>  <Index>
91

>  <StandardizerResult>
Dearomatize (ID: Dearomatize)
Clear Stereo (ID: ClearStereo)
Wedge Clean (ID: WedgeClean)
Mesomerize (ID: Mesomerize)
Tautomerize (ID: Tautomerize)
Aromatize (ID: Aromatize)
Add Explicit Hydrogens (ID: AddExplicitH)
Neutralize (ID: Neutralize)
Clean 2D (ID: Clean2D)

> <knn Distance>
3.74165749549866

> <CpId>
91

$$$$
96
  Mrv1532301301811342D          

 76 75  0  0  0  0            999 V2000
    6.6140   -4.7214    0.0000 C   0  0  0  0  0  0  0  0  0  0  0  0
    7.3285   -4.3089    0.0000 C   0  0  0  0  0  0  0  0  0  0  0  0
    8.0430   -4.7214    0.0000 C   0  0  0  0  0  0  0  0  0  0  0  0
    8.7575   -4.3089    0.0000 C   0  0  0  0  0  0  0  0  0  0  0  0
    9.4719   -4.7214    0.0000 C   0  0  0  0  0  0  0  0  0  0  0  0
   10.1864   -4.3089    0.0000 C   0  0  0  0  0  0  0  0  0  0  0  0
   10.9009   -4.7214    0.0000 C   0  0  0  0  0  0  0  0  0  0  0  0
   11.6153   -4.3089    0.0000 C   0  0  0  0  0  0  0  0  0  0  0  0
   12.3298   -4.7214    0.0000 C   0  0  0  0  0  0  0  0  0  0  0  0
   13.0443   -4.3089    0.0000 C   0  0  0  0  0  0  0  0  0  0  0  0
   13.7588   -4.7214    0.0000 C   0  0  0  0  0  0  0  0  0  0  0  0
   14.4732   -4.3089    0.0000 C   0  0  0  0  0  0  0  0  0  0  0  0
   15.1877   -4.7214    0.0000 C   0  0  0  0  0  0  0  0  0  0  0  0
   15.9022   -4.3089    0.0000 C   0  0  0  0  0  0  0  0  0  0  0  0
   16.6166   -4.7214    0.0000 Si  0  0  0  0  0  0  0  0  0  0  0  0
   16.2041   -5.4359    0.0000 C   0  0  0  0  0  0  0  0  0  0  0  0
   17.3311   -5.1339    0.0000 O   0  0  0  0  0  0  0  0  0  0  0  0
   17.3311   -5.9589    0.0000 Si  0  0  0  0  0  0  0  0  0  0  0  0
   17.3311   -6.7839    0.0000 C   0  0  0  0  0  0  0  0  0  0  0  0
   16.5061   -5.9589    0.0000 C   0  0  0  0  0  0  0  0  0  0  0  0
   18.1561   -5.9589    0.0000 C   0  0  0  0  0  0  0  0  0  0  0  0
   17.0291   -4.0070    0.0000 O   0  0  0  0  0  0  0  0  0  0  0  0
   17.8541   -4.0070    0.0000 Si  0  0  0  0  0  0  0  0  0  0  0  0
   17.8541   -4.8320    0.0000 C   0  0  0  0  0  0  0  0  0  0  0  0
   17.8541   -3.1820    0.0000 C   0  0  0  0  0  0  0  0  0  0  0  0
   18.6791   -4.0070    0.0000 C   0  0  0  0  0  0  0  0  0  0  0  0
    6.2015   -4.0070    0.0000 H   0  0  0  0  0  0  0  0  0  0  0  0
    5.8996   -5.1339    0.0000 H   0  0  0  0  0  0  0  0  0  0  0  0
    7.0265   -5.4359    0.0000 H   0  0  0  0  0  0  0  0  0  0  0  0
    7.6988   -3.5717    0.0000 H   0  0  0  0  0  0  0  0  0  0  0  0
    6.9583   -3.5717    0.0000 H   0  0  0  0  0  0  0  0  0  0  0  0
    7.6727   -5.4587    0.0000 H   0  0  0  0  0  0  0  0  0  0  0  0
    8.4132   -5.4587    0.0000 H   0  0  0  0  0  0  0  0  0  0  0  0
    9.1277   -3.5717    0.0000 H   0  0  0  0  0  0  0  0  0  0  0  0
    8.3872   -3.5717    0.0000 H   0  0  0  0  0  0  0  0  0  0  0  0
    9.1017   -5.4587    0.0000 H   0  0  0  0  0  0  0  0  0  0  0  0
    9.8422   -5.4587    0.0000 H   0  0  0  0  0  0  0  0  0  0  0  0
   10.5567   -3.5717    0.0000 H   0  0  0  0  0  0  0  0  0  0  0  0
    9.8161   -3.5717    0.0000 H   0  0  0  0  0  0  0  0  0  0  0  0
   10.5306   -5.4587    0.0000 H   0  0  0  0  0  0  0  0  0  0  0  0
   11.2711   -5.4587    0.0000 H   0  0  0  0  0  0  0  0  0  0  0  0
   11.9856   -3.5717    0.0000 H   0  0  0  0  0  0  0  0  0  0  0  0
   11.2451   -3.5717    0.0000 H   0  0  0  0  0  0  0  0  0  0  0  0
   11.9596   -5.4587    0.0000 H   0  0  0  0  0  0  0  0  0  0  0  0
   12.7001   -5.4587    0.0000 H   0  0  0  0  0  0  0  0  0  0  0  0
   13.4145   -3.5717    0.0000 H   0  0  0  0  0  0  0  0  0  0  0  0
   12.6740   -3.5717    0.0000 H   0  0  0  0  0  0  0  0  0  0  0  0
   13.3885   -5.4587    0.0000 H   0  0  0  0  0  0  0  0  0  0  0  0
   14.1290   -5.4587    0.0000 H   0  0  0  0  0  0  0  0  0  0  0  0
   14.8435   -3.5717    0.0000 H   0  0  0  0  0  0  0  0  0  0  0  0
   14.1030   -3.5717    0.0000 H   0  0  0  0  0  0  0  0  0  0  0  0
   14.8174   -5.4587    0.0000 H   0  0  0  0  0  0  0  0  0  0  0  0
   15.5580   -5.4587    0.0000 H   0  0  0  0  0  0  0  0  0  0  0  0
   16.2724   -3.5717    0.0000 H   0  0  0  0  0  0  0  0  0  0  0  0
   15.5319   -3.5717    0.0000 H   0  0  0  0  0  0  0  0  0  0  0  0
   15.8043   -6.1575    0.0000 H   0  0  0  0  0  0  0  0  0  0  0  0
   15.7791   -4.7288    0.0000 H   0  0  0  0  0  0  0  0  0  0  0  0
   17.0291   -5.4359    0.0000 H   0  0  0  0  0  0  0  0  0  0  0  0
   16.5061   -6.7839    0.0000 H   0  0  0  0  0  0  0  0  0  0  0  0
   17.3311   -7.6089    0.0000 H   0  0  0  0  0  0  0  0  0  0  0  0
   18.1561   -6.7839    0.0000 H   0  0  0  0  0  0  0  0  0  0  0  0
   16.9186   -6.6734    0.0000 H   0  0  0  0  0  0  0  0  0  0  0  0
   17.2206   -6.3714    0.0000 H   0  0  0  0  0  0  0  0  0  0  0  0
   16.0085   -6.6169    0.0000 H   0  0  0  0  0  0  0  0  0  0  0  0
   18.9183   -6.2747    0.0000 H   0  0  0  0  0  0  0  0  0  0  0  0
   18.7395   -5.3756    0.0000 H   0  0  0  0  0  0  0  0  0  0  0  0
   17.8404   -5.1967    0.0000 H   0  0  0  0  0  0  0  0  0  0  0  0
   18.6227   -5.1319    0.0000 H   0  0  0  0  0  0  0  0  0  0  0  0
   18.6334   -4.5612    0.0000 H   0  0  0  0  0  0  0  0  0  0  0  0
   17.1397   -4.4195    0.0000 H   0  0  0  0  0  0  0  0  0  0  0  0
   18.6791   -3.1820    0.0000 H   0  0  0  0  0  0  0  0  0  0  0  0
   17.8541   -2.3570    0.0000 H   0  0  0  0  0  0  0  0  0  0  0  0
   17.0291   -3.1820    0.0000 H   0  0  0  0  0  0  0  0  0  0  0  0
   19.2254   -4.6252    0.0000 H   0  0  0  0  0  0  0  0  0  0  0  0
   19.5034   -4.0409    0.0000 H   0  0  0  0  0  0  0  0  0  0  0  0
   19.2744   -3.4357    0.0000 H   0  0  0  0  0  0  0  0  0  0  0  0
  1  2  1  0  0  0  0
  2  3  1  0  0  0  0
  3  4  1  0  0  0  0
  4  5  1  0  0  0  0
  5  6  1  0  0  0  0
  6  7  1  0  0  0  0
  7  8  1  0  0  0  0
  8  9  1  0  0  0  0
  9 10  1  0  0  0  0
 10 11  1  0  0  0  0
 11 12  1  0  0  0  0
 12 13  1  0  0  0  0
 13 14  1  0  0  0  0
 14 15  1  0  0  0  0
 15 16  1  0  0  0  0
 15 17  1  0  0  0  0
 17 18  1  0  0  0  0
 18 19  1  0  0  0  0
 18 20  1  0  0  0  0
 18 21  1  0  0  0  0
 15 22  1  0  0  0  0
 22 23  1  0  0  0  0
 23 24  1  0  0  0  0
 23 25  1  0  0  0  0
 23 26  1  0  0  0  0
  1 27  1  0  0  0  0
  1 28  1  0  0  0  0
  1 29  1  0  0  0  0
  2 30  1  0  0  0  0
  2 31  1  0  0  0  0
  3 32  1  0  0  0  0
  3 33  1  0  0  0  0
  4 34  1  0  0  0  0
  4 35  1  0  0  0  0
  5 36  1  0  0  0  0
  5 37  1  0  0  0  0
  6 38  1  0  0  0  0
  6 39  1  0  0  0  0
  7 40  1  0  0  0  0
  7 41  1  0  0  0  0
  8 42  1  0  0  0  0
  8 43  1  0  0  0  0
  9 44  1  0  0  0  0
  9 45  1  0  0  0  0
 10 46  1  0  0  0  0
 10 47  1  0  0  0  0
 11 48  1  0  0  0  0
 11 49  1  0  0  0  0
 12 50  1  0  0  0  0
 12 51  1  0  0  0  0
 13 52  1  0  0  0  0
 13 53  1  0  0  0  0
 14 54  1  0  0  0  0
 14 55  1  0  0  0  0
 16 56  1  0  0  0  0
 16 57  1  0  0  0  0
 16 58  1  0  0  0  0
 19 59  1  0  0  0  0
 19 60  1  0  0  0  0
 19 61  1  0  0  0  0
 20 62  1  0  0  0  0
 20 63  1  0  0  0  0
 20 64  1  0  0  0  0
 21 65  1  0  0  0  0
 21 66  1  0  0  0  0
 21 67  1  0  0  0  0
 24 68  1  0  0  0  0
 24 69  1  0  0  0  0
 24 70  1  0  0  0  0
 25 71  1  0  0  0  0
 25 72  1  0  0  0  0
 25 73  1  0  0  0  0
 26 74  1  0  0  0  0
 26 75  1  0  0  0  0
 26 76  1  0  0  0  0
M  END
>  <InChIKey>
CIAZJIQGPOGZDS-UHFFFAOYSA-N

>  <UN GHS>
Non-irritant

> <Outcome>
0

>  <Index>
96

>  <StandardizerResult>
Clear Stereo (ID: ClearStereo)
Wedge Clean (ID: WedgeClean)
Mesomerize (ID: Mesomerize)
Tautomerize (ID: Tautomerize)
Add Explicit Hydrogens (ID: AddExplicitH)
Neutralize (ID: Neutralize)
Clean 2D (ID: Clean2D)

> <knn Distance>
3.74165749549866

> <CpId>
96

$$$$
121
  Mrv1532301301811342D          

 25 25  0  0  0  0            999 V2000
   -0.0257    2.5120    0.0000 C   0  0  0  0  0  0  0  0  0  0  0  0
    0.6888    2.0995    0.0000 C   0  0  0  0  0  0  0  0  0  0  0  0
    1.4033    2.5120    0.0000 C   0  0  0  0  0  0  0  0  0  0  0  0
    0.6888    1.2745    0.0000 C   0  0  0  0  0  0  0  0  0  0  0  0
    1.4033    0.8620    0.0000 C   0  0  0  0  0  0  0  0  0  0  0  0
    1.4033    0.0370    0.0000 C   0  0  0  0  0  0  0  0  0  0  0  0
    0.6888   -0.3755    0.0000 C   0  0  0  0  0  0  0  0  0  0  0  0
   -0.0257    0.0370    0.0000 C   0  0  0  0  0  0  0  0  0  0  0  0
   -0.0257    0.8620    0.0000 C   0  0  0  0  0  0  0  0  0  0  0  0
    0.6888   -1.2005    0.0000 S   0  0  0  0  0  0  0  0  0  0  0  0
    0.6888   -2.0255    0.0000 O   0  0  0  0  0  0  0  0  0  0  0  0
   -0.1362   -1.2005    0.0000 O   0  0  0  0  0  0  0  0  0  0  0  0
    1.5138   -1.2005    0.0000 O   0  0  0  0  0  0  0  0  0  0  0  0
    0.3868    3.2265    0.0000 H   0  0  0  0  0  0  0  0  0  0  0  0
   -0.7402    2.9245    0.0000 H   0  0  0  0  0  0  0  0  0  0  0  0
   -0.4382    1.7976    0.0000 H   0  0  0  0  0  0  0  0  0  0  0  0
    0.6888    2.9245    0.0000 H   0  0  0  0  0  0  0  0  0  0  0  0
    1.6168    1.7151    0.0000 H   0  0  0  0  0  0  0  0  0  0  0  0
    2.2283    2.5120    0.0000 H   0  0  0  0  0  0  0  0  0  0  0  0
    1.6168    3.3089    0.0000 H   0  0  0  0  0  0  0  0  0  0  0  0
    2.2221    0.7611    0.0000 H   0  0  0  0  0  0  0  0  0  0  0  0
    2.1177   -0.3755    0.0000 H   0  0  0  0  0  0  0  0  0  0  0  0
   -0.7402   -0.3755    0.0000 H   0  0  0  0  0  0  0  0  0  0  0  0
   -0.7402    1.2745    0.0000 H   0  0  0  0  0  0  0  0  0  0  0  0
   -0.0257   -2.4380    0.0000 H   0  0  0  0  0  0  0  0  0  0  0  0
  1  2  1  0  0  0  0
  2  3  1  0  0  0  0
  2  4  1  0  0  0  0
  4  5  4  0  0  0  0
  5  6  4  0  0  0  0
  6  7  4  0  0  0  0
  7  8  4  0  0  0  0
  8  9  4  0  0  0  0
  4  9  4  0  0  0  0
  7 10  1  0  0  0  0
 10 11  1  0  0  0  0
 10 12  2  0  0  0  0
 10 13  2  0  0  0  0
  1 14  1  0  0  0  0
  1 15  1  0  0  0  0
  1 16  1  0  0  0  0
  2 17  1  0  0  0  0
  3 18  1  0  0  0  0
  3 19  1  0  0  0  0
  3 20  1  0  0  0  0
  5 21  1  0  0  0  0
  6 22  1  0  0  0  0
  8 23  1  0  0  0  0
  9 24  1  0  0  0  0
 11 25  1  0  0  0  0
M  END
>  <InChIKey>
CVLHGLWXLDOELD-UHFFFAOYSA-M

>  <UN GHS>
Non-irritant

>  <CASRN>
15763-76-5

> <Outcome>
0

>  <Index>
121

>  <StandardizerResult>
Dearomatize (ID: Dearomatize)
Clear Stereo (ID: ClearStereo)
Wedge Clean (ID: WedgeClean)
Mesomerize (ID: Mesomerize)
Tautomerize (ID: Tautomerize)
Aromatize (ID: Aromatize)
Add Explicit Hydrogens (ID: AddExplicitH)
Neutralize (ID: Neutralize)
Clean 2D (ID: Clean2D)

> <knn Distance>
3.74165749549866

> <CpId>
121

$$$$
131
  Mrv1532301301811342D          

 73 73  0  0  0  0            999 V2000
    5.0013  -11.1370    0.0000 C   0  0  0  0  0  0  0  0  0  0  0  0
    5.7158  -11.5495    0.0000 C   0  0  0  0  0  0  0  0  0  0  0  0
    6.4302  -11.1370    0.0000 C   0  0  0  0  0  0  0  0  0  0  0  0
    7.1447  -11.5495    0.0000 C   0  0  0  0  0  0  0  0  0  0  0  0
    7.8592  -11.1370    0.0000 C   0  0  0  0  0  0  0  0  0  0  0  0
    8.5737  -11.5495    0.0000 C   0  0  0  0  0  0  0  0  0  0  0  0
    9.2881  -11.1370    0.0000 C   0  0  0  0  0  0  0  0  0  0  0  0
   10.0026  -11.5495    0.0000 C   0  0  0  0  0  0  0  0  0  0  0  0
   10.7171  -11.1370    0.0000 C   0  0  0  0  0  0  0  0  0  0  0  0
   11.4315  -11.5495    0.0000 C   0  0  0  0  0  0  0  0  0  0  0  0
   12.1460  -11.1370    0.0000 C   0  0  0  0  0  0  0  0  0  0  0  0
   12.8605  -11.5495    0.0000 C   0  0  0  0  0  0  0  0  0  0  0  0
   13.5750  -11.1370    0.0000 C   0  0  0  0  0  0  0  0  0  0  0  0
   14.2894  -11.5495    0.0000 C   0  0  0  0  0  0  0  0  0  0  0  0
   15.0039  -11.1370    0.0000 C   0  0  0  0  0  0  0  0  0  0  0  0
   15.7184  -11.5495    0.0000 C   0  0  0  0  0  0  0  0  0  0  0  0
   16.4328  -11.1370    0.0000 O   0  0  0  0  0  0  0  0  0  0  0  0
   17.1473  -11.5495    0.0000 C   0  0  0  0  0  0  0  0  0  0  0  0
   17.1473  -12.3745    0.0000 O   0  0  0  0  0  0  0  0  0  0  0  0
   17.8618  -11.1370    0.0000 O   0  0  0  0  0  0  0  0  0  0  0  0
   18.5762  -11.5495    0.0000 C   0  0  0  0  0  0  0  0  0  0  0  0
   19.2907  -11.1370    0.0000 C   0  0  0  0  0  0  0  0  0  0  0  0
   19.2907  -10.3120    0.0000 Cl  0  0  0  0  0  0  0  0  0  0  0  0
   20.0052  -11.5495    0.0000 C   0  0  0  0  0  0  0  0  0  0  0  0
   20.0052  -12.3745    0.0000 C   0  0  0  0  0  0  0  0  0  0  0  0
   19.2907  -12.7870    0.0000 C   0  0  0  0  0  0  0  0  0  0  0  0
   18.5762  -12.3745    0.0000 C   0  0  0  0  0  0  0  0  0  0  0  0
   17.8618  -12.7870    0.0000 Cl  0  0  0  0  0  0  0  0  0  0  0  0
   20.7197  -12.7870    0.0000 C   0  0  0  0  0  0  0  0  0  0  0  0
   20.7197  -13.6120    0.0000 O   0  0  0  0  0  0  0  0  0  0  0  0
   21.4341  -12.3745    0.0000 O   0  0  0  0  0  0  0  0  0  0  0  0
   22.1486  -12.7870    0.0000 C   0  0  0  0  0  0  0  0  0  0  0  0
   22.8631  -12.3745    0.0000 C   0  0  0  0  0  0  0  0  0  0  0  0
    5.4138  -10.4225    0.0000 H   0  0  0  0  0  0  0  0  0  0  0  0
    4.2868  -10.7245    0.0000 H   0  0  0  0  0  0  0  0  0  0  0  0
    4.5888  -11.8515    0.0000 H   0  0  0  0  0  0  0  0  0  0  0  0
    5.3455  -12.2868    0.0000 H   0  0  0  0  0  0  0  0  0  0  0  0
    6.0860  -12.2868    0.0000 H   0  0  0  0  0  0  0  0  0  0  0  0
    6.8005  -10.3998    0.0000 H   0  0  0  0  0  0  0  0  0  0  0  0
    6.0600  -10.3998    0.0000 H   0  0  0  0  0  0  0  0  0  0  0  0
    6.7745  -12.2868    0.0000 H   0  0  0  0  0  0  0  0  0  0  0  0
    7.5150  -12.2868    0.0000 H   0  0  0  0  0  0  0  0  0  0  0  0
    8.2294  -10.3998    0.0000 H   0  0  0  0  0  0  0  0  0  0  0  0
    7.4889  -10.3998    0.0000 H   0  0  0  0  0  0  0  0  0  0  0  0
    8.2034  -12.2868    0.0000 H   0  0  0  0  0  0  0  0  0  0  0  0
    8.9439  -12.2868    0.0000 H   0  0  0  0  0  0  0  0  0  0  0  0
    9.6584  -10.3998    0.0000 H   0  0  0  0  0  0  0  0  0  0  0  0
    8.9179  -10.3998    0.0000 H   0  0  0  0  0  0  0  0  0  0  0  0
    9.6323  -12.2868    0.0000 H   0  0  0  0  0  0  0  0  0  0  0  0
   10.3729  -12.2868    0.0000 H   0  0  0  0  0  0  0  0  0  0  0  0
   11.0873  -10.3998    0.0000 H   0  0  0  0  0  0  0  0  0  0  0  0
   10.3468  -10.3998    0.0000 H   0  0  0  0  0  0  0  0  0  0  0  0
   11.0613  -12.2868    0.0000 H   0  0  0  0  0  0  0  0  0  0  0  0
   11.8018  -12.2868    0.0000 H   0  0  0  0  0  0  0  0  0  0  0  0
   12.5163  -10.3998    0.0000 H   0  0  0  0  0  0  0  0  0  0  0  0
   11.7758  -10.3998    0.0000 H   0  0  0  0  0  0  0  0  0  0  0  0
   12.4902  -12.2868    0.0000 H   0  0  0  0  0  0  0  0  0  0  0  0
   13.2307  -12.2868    0.0000 H   0  0  0  0  0  0  0  0  0  0  0  0
   13.9452  -10.3998    0.0000 H   0  0  0  0  0  0  0  0  0  0  0  0
   13.2047  -10.3998    0.0000 H   0  0  0  0  0  0  0  0  0  0  0  0
   13.9192  -12.2868    0.0000 H   0  0  0  0  0  0  0  0  0  0  0  0
   14.6597  -12.2868    0.0000 H   0  0  0  0  0  0  0  0  0  0  0  0
   15.3742  -10.3998    0.0000 H   0  0  0  0  0  0  0  0  0  0  0  0
   14.6336  -10.3998    0.0000 H   0  0  0  0  0  0  0  0  0  0  0  0
   15.3481  -12.2868    0.0000 H   0  0  0  0  0  0  0  0  0  0  0  0
   16.0886  -12.2868    0.0000 H   0  0  0  0  0  0  0  0  0  0  0  0
   20.7197  -11.1370    0.0000 H   0  0  0  0  0  0  0  0  0  0  0  0
   19.2907  -13.6120    0.0000 H   0  0  0  0  0  0  0  0  0  0  0  0
   21.7783  -13.5243    0.0000 H   0  0  0  0  0  0  0  0  0  0  0  0
   22.5189  -13.5243    0.0000 H   0  0  0  0  0  0  0  0  0  0  0  0
   23.2756  -13.0890    0.0000 H   0  0  0  0  0  0  0  0  0  0  0  0
   23.5775  -11.9620    0.0000 H   0  0  0  0  0  0  0  0  0  0  0  0
   22.4506  -11.6600    0.0000 H   0  0  0  0  0  0  0  0  0  0  0  0
  1  2  1  0  0  0  0
  2  3  1  0  0  0  0
  3  4  1  0  0  0  0
  4  5  1  0  0  0  0
  5  6  1  0  0  0  0
  6  7  1  0  0  0  0
  7  8  1  0  0  0  0
  8  9  1  0  0  0  0
  9 10  1  0  0  0  0
 10 11  1  0  0  0  0
 11 12  1  0  0  0  0
 12 13  1  0  0  0  0
 13 14  1  0  0  0  0
 14 15  1  0  0  0  0
 15 16  1  0  0  0  0
 16 17  1  0  0  0  0
 17 18  1  0  0  0  0
 18 19  2  0  0  0  0
 18 20  1  0  0  0  0
 20 21  1  0  0  0  0
 21 22  4  0  0  0  0
 22 23  1  0  0  0  0
 22 24  4  0  0  0  0
 24 25  4  0  0  0  0
 25 26  4  0  0  0  0
 26 27  4  0  0  0  0
 21 27  4  0  0  0  0
 27 28  1  0  0  0  0
 25 29  1  0  0  0  0
 29 30  2  0  0  0  0
 29 31  1  0  0  0  0
 31 32  1  0  0  0  0
 32 33  1  0  0  0  0
  1 34  1  0  0  0  0
  1 35  1  0  0  0  0
  1 36  1  0  0  0  0
  2 37  1  0  0  0  0
  2 38  1  0  0  0  0
  3 39  1  0  0  0  0
  3 40  1  0  0  0  0
  4 41  1  0  0  0  0
  4 42  1  0  0  0  0
  5 43  1  0  0  0  0
  5 44  1  0  0  0  0
  6 45  1  0  0  0  0
  6 46  1  0  0  0  0
  7 47  1  0  0  0  0
  7 48  1  0  0  0  0
  8 49  1  0  0  0  0
  8 50  1  0  0  0  0
  9 51  1  0  0  0  0
  9 52  1  0  0  0  0
 10 53  1  0  0  0  0
 10 54  1  0  0  0  0
 11 55  1  0  0  0  0
 11 56  1  0  0  0  0
 12 57  1  0  0  0  0
 12 58  1  0  0  0  0
 13 59  1  0  0  0  0
 13 60  1  0  0  0  0
 14 61  1  0  0  0  0
 14 62  1  0  0  0  0
 15 63  1  0  0  0  0
 15 64  1  0  0  0  0
 16 65  1  0  0  0  0
 16 66  1  0  0  0  0
 24 67  1  0  0  0  0
 26 68  1  0  0  0  0
 32 69  1  0  0  0  0
 32 70  1  0  0  0  0
 33 71  1  0  0  0  0
 33 72  1  0  0  0  0
 33 73  1  0  0  0  0
M  END
>  <InChIKey>
DFMGMJBWBQNZNK-UHFFFAOYSA-N

>  <UN GHS>
Non-irritant

>  <CASRN>
115895-09-5

> <Outcome>
0

>  <Index>
131

>  <StandardizerResult>
Dearomatize (ID: Dearomatize)
Clear Stereo (ID: ClearStereo)
Wedge Clean (ID: WedgeClean)
Mesomerize (ID: Mesomerize)
Tautomerize (ID: Tautomerize)
Aromatize (ID: Aromatize)
Add Explicit Hydrogens (ID: AddExplicitH)
Neutralize (ID: Neutralize)
Clean 2D (ID: Clean2D)

> <knn Distance>
3.74165749549866

> <CpId>
131

$$$$
168
  Mrv1532301301811342D          

 70 69  0  0  0  0            999 V2000
   -3.7323    0.2411    0.0000 C   0  0  0  0  0  0  0  0  0  0  0  0
   -3.0179    0.6536    0.0000 C   0  0  0  0  0  0  0  0  0  0  0  0
   -2.3034    0.2411    0.0000 O   0  0  0  0  0  0  0  0  0  0  0  0
   -1.5889    0.6536    0.0000 Si  0  0  0  0  0  0  0  0  0  0  0  0
   -0.8744    1.0661    0.0000 C   0  0  0  0  0  0  0  0  0  0  0  0
   -0.1600    0.6536    0.0000 C   0  0  0  0  0  0  0  0  0  0  0  0
    0.5545    1.0661    0.0000 C   0  0  0  0  0  0  0  0  0  0  0  0
    1.2690    0.6536    0.0000 S   0  0  0  0  0  0  0  0  0  0  0  0
    1.9834    1.0661    0.0000 S   0  0  0  0  0  0  0  0  0  0  0  0
    2.6979    0.6536    0.0000 C   0  0  0  0  0  0  0  0  0  0  0  0
    3.4124    1.0661    0.0000 C   0  0  0  0  0  0  0  0  0  0  0  0
    4.1269    0.6536    0.0000 C   0  0  0  0  0  0  0  0  0  0  0  0
    4.8413    1.0661    0.0000 Si  0  0  0  0  0  0  0  0  0  0  0  0
    5.5558    1.4786    0.0000 O   0  0  0  0  0  0  0  0  0  0  0  0
    6.2703    1.0661    0.0000 C   0  0  0  0  0  0  0  0  0  0  0  0
    6.9847    1.4786    0.0000 C   0  0  0  0  0  0  0  0  0  0  0  0
    5.2538    0.3516    0.0000 O   0  0  0  0  0  0  0  0  0  0  0  0
    6.0788    0.3516    0.0000 C   0  0  0  0  0  0  0  0  0  0  0  0
    6.4913   -0.3629    0.0000 C   0  0  0  0  0  0  0  0  0  0  0  0
    4.4288    1.7805    0.0000 O   0  0  0  0  0  0  0  0  0  0  0  0
    4.8413    2.4950    0.0000 C   0  0  0  0  0  0  0  0  0  0  0  0
    5.6663    2.4950    0.0000 C   0  0  0  0  0  0  0  0  0  0  0  0
   -1.1764   -0.0609    0.0000 O   0  0  0  0  0  0  0  0  0  0  0  0
   -0.3514   -0.0609    0.0000 C   0  0  0  0  0  0  0  0  0  0  0  0
    0.0611   -0.7754    0.0000 C   0  0  0  0  0  0  0  0  0  0  0  0
   -2.0014    1.3680    0.0000 O   0  0  0  0  0  0  0  0  0  0  0  0
   -1.5889    2.0825    0.0000 C   0  0  0  0  0  0  0  0  0  0  0  0
   -0.7639    2.0825    0.0000 C   0  0  0  0  0  0  0  0  0  0  0  0
   -4.1448    0.9555    0.0000 H   0  0  0  0  0  0  0  0  0  0  0  0
   -4.4468   -0.1714    0.0000 H   0  0  0  0  0  0  0  0  0  0  0  0
   -3.3198   -0.4734    0.0000 H   0  0  0  0  0  0  0  0  0  0  0  0
   -2.6476    1.3908    0.0000 H   0  0  0  0  0  0  0  0  0  0  0  0
   -3.3881    1.3908    0.0000 H   0  0  0  0  0  0  0  0  0  0  0  0
   -0.5042    1.8033    0.0000 H   0  0  0  0  0  0  0  0  0  0  0  0
   -1.2447    1.8033    0.0000 H   0  0  0  0  0  0  0  0  0  0  0  0
    0.4945    0.1513    0.0000 H   0  0  0  0  0  0  0  0  0  0  0  0
   -0.1600    1.4786    0.0000 H   0  0  0  0  0  0  0  0  0  0  0  0
    1.1865    1.5964    0.0000 H   0  0  0  0  0  0  0  0  0  0  0  0
    0.6978    1.8785    0.0000 H   0  0  0  0  0  0  0  0  0  0  0  0
    2.3277   -0.0837    0.0000 H   0  0  0  0  0  0  0  0  0  0  0  0
    3.0682   -0.0837    0.0000 H   0  0  0  0  0  0  0  0  0  0  0  0
    3.7826    1.8033    0.0000 H   0  0  0  0  0  0  0  0  0  0  0  0
    3.0421    1.8033    0.0000 H   0  0  0  0  0  0  0  0  0  0  0  0
    3.7566   -0.0837    0.0000 H   0  0  0  0  0  0  0  0  0  0  0  0
    4.4971   -0.0837    0.0000 H   0  0  0  0  0  0  0  0  0  0  0  0
    6.9248    0.5638    0.0000 H   0  0  0  0  0  0  0  0  0  0  0  0
    6.2703    1.8911    0.0000 H   0  0  0  0  0  0  0  0  0  0  0  0
    7.6781    1.0315    0.0000 H   0  0  0  0  0  0  0  0  0  0  0  0
    7.7123    1.8675    0.0000 H   0  0  0  0  0  0  0  0  0  0  0  0
    6.9982    2.3035    0.0000 H   0  0  0  0  0  0  0  0  0  0  0  0
    5.5766    1.0061    0.0000 H   0  0  0  0  0  0  0  0  0  0  0  0
    5.6663   -0.3629    0.0000 H   0  0  0  0  0  0  0  0  0  0  0  0
    6.2778   -1.1598    0.0000 H   0  0  0  0  0  0  0  0  0  0  0  0
    7.2058   -0.7754    0.0000 H   0  0  0  0  0  0  0  0  0  0  0  0
    7.0747    0.2205    0.0000 H   0  0  0  0  0  0  0  0  0  0  0  0
    4.7934    3.3186    0.0000 H   0  0  0  0  0  0  0  0  0  0  0  0
    4.1521    2.9484    0.0000 H   0  0  0  0  0  0  0  0  0  0  0  0
    6.2746    3.0524    0.0000 H   0  0  0  0  0  0  0  0  0  0  0  0
    5.6303    3.3192    0.0000 H   0  0  0  0  0  0  0  0  0  0  0  0
    5.3506    1.7328    0.0000 H   0  0  0  0  0  0  0  0  0  0  0  0
   -0.8536    0.5936    0.0000 H   0  0  0  0  0  0  0  0  0  0  0  0
   -0.7639   -0.7754    0.0000 H   0  0  0  0  0  0  0  0  0  0  0  0
   -0.1524   -1.5723    0.0000 H   0  0  0  0  0  0  0  0  0  0  0  0
    0.7756   -1.1879    0.0000 H   0  0  0  0  0  0  0  0  0  0  0  0
    0.6445   -0.1920    0.0000 H   0  0  0  0  0  0  0  0  0  0  0  0
   -1.6369    2.9061    0.0000 H   0  0  0  0  0  0  0  0  0  0  0  0
   -2.2782    2.5359    0.0000 H   0  0  0  0  0  0  0  0  0  0  0  0
    0.0452    2.2435    0.0000 H   0  0  0  0  0  0  0  0  0  0  0  0
   -0.4482    2.8447    0.0000 H   0  0  0  0  0  0  0  0  0  0  0  0
   -1.2223    2.7685    0.0000 H   0  0  0  0  0  0  0  0  0  0  0  0
  1  2  1  0  0  0  0
  2  3  1  0  0  0  0
  3  4  1  0  0  0  0
  4  5  1  0  0  0  0
  5  6  1  0  0  0  0
  6  7  1  0  0  0  0
  7  8  1  0  0  0  0
  8  9  1  0  0  0  0
  9 10  1  0  0  0  0
 10 11  1  0  0  0  0
 11 12  1  0  0  0  0
 12 13  1  0  0  0  0
 13 14  1  0  0  0  0
 14 15  1  0  0  0  0
 15 16  1  0  0  0  0
 13 17  1  0  0  0  0
 17 18  1  0  0  0  0
 18 19  1  0  0  0  0
 13 20  1  0  0  0  0
 20 21  1  0  0  0  0
 21 22  1  0  0  0  0
  4 23  1  0  0  0  0
 23 24  1  0  0  0  0
 24 25  1  0  0  0  0
  4 26  1  0  0  0  0
 26 27  1  0  0  0  0
 27 28  1  0  0  0  0
  1 29  1  0  0  0  0
  1 30  1  0  0  0  0
  1 31  1  0  0  0  0
  2 32  1  0  0  0  0
  2 33  1  0  0  0  0
  5 34  1  0  0  0  0
  5 35  1  0  0  0  0
  6 36  1  0  0  0  0
  6 37  1  0  0  0  0
  7 38  1  0  0  0  0
  7 39  1  0  0  0  0
 10 40  1  0  0  0  0
 10 41  1  0  0  0  0
 11 42  1  0  0  0  0
 11 43  1  0  0  0  0
 12 44  1  0  0  0  0
 12 45  1  0  0  0  0
 15 46  1  0  0  0  0
 15 47  1  0  0  0  0
 16 48  1  0  0  0  0
 16 49  1  0  0  0  0
 16 50  1  0  0  0  0
 18 51  1  0  0  0  0
 18 52  1  0  0  0  0
 19 53  1  0  0  0  0
 19 54  1  0  0  0  0
 19 55  1  0  0  0  0
 21 56  1  0  0  0  0
 21 57  1  0  0  0  0
 22 58  1  0  0  0  0
 22 59  1  0  0  0  0
 22 60  1  0  0  0  0
 24 61  1  0  0  0  0
 24 62  1  0  0  0  0
 25 63  1  0  0  0  0
 25 64  1  0  0  0  0
 25 65  1  0  0  0  0
 27 66  1  0  0  0  0
 27 67  1  0  0  0  0
 28 68  1  0  0  0  0
 28 69  1  0  0  0  0
 28 70  1  0  0  0  0
M  END
>  <InChIKey>
FBBATURSCRIBHN-UHFFFAOYSA-N

>  <UN GHS>
Non-irritant

>  <CASRN>
56706-10-6

> <Outcome>
0

>  <Index>
168

>  <StandardizerResult>
Clear Stereo (ID: ClearStereo)
Wedge Clean (ID: WedgeClean)
Mesomerize (ID: Mesomerize)
Tautomerize (ID: Tautomerize)
Add Explicit Hydrogens (ID: AddExplicitH)
Neutralize (ID: Neutralize)
Clean 2D (ID: Clean2D)

> <knn Distance>
3.74165749549866

> <CpId>
168

$$$$
173
  Mrv1532301301811342D          

 55 54  0  0  0  0            999 V2000
    4.2711  -12.5008    0.0000 O   0  0  0  0  0  0  0  0  0  0  0  0
    4.2711  -11.6758    0.0000 C   0  0  0  0  0  0  0  0  0  0  0  0
    3.5566  -11.2633    0.0000 C   0  0  0  0  0  0  0  0  0  0  0  0
    3.5566  -10.4383    0.0000 C   0  0  0  0  0  0  0  0  0  0  0  0
    2.8421  -10.0258    0.0000 O   0  0  0  0  0  0  0  0  0  0  0  0
    2.8421   -9.2008    0.0000 C   0  0  0  0  0  0  0  0  0  0  0  0
    2.1277   -8.7883    0.0000 C   0  0  0  0  0  0  0  0  0  0  0  0
    2.1277   -7.9633    0.0000 N   0  0  0  0  0  0  0  0  0  0  0  0
    1.4132   -7.5508    0.0000 C   0  0  0  0  0  0  0  0  0  0  0  0
    1.4132   -6.7258    0.0000 C   0  0  0  0  0  0  0  0  0  0  0  0
    0.6987   -6.3133    0.0000 O   0  0  0  0  0  0  0  0  0  0  0  0
    0.6987   -5.4883    0.0000 C   0  0  0  0  0  0  0  0  0  0  0  0
   -0.0157   -5.0758    0.0000 C   0  0  0  0  0  0  0  0  0  0  0  0
   -0.0157   -4.2508    0.0000 C   0  0  0  0  0  0  0  0  0  0  0  0
   -0.7302   -3.8383    0.0000 O   0  0  0  0  0  0  0  0  0  0  0  0
    2.8421   -7.5508    0.0000 C   0  0  0  0  0  0  0  0  0  0  0  0
    2.8421   -6.7258    0.0000 C   0  0  0  0  0  0  0  0  0  0  0  0
    3.5566   -6.3133    0.0000 O   0  0  0  0  0  0  0  0  0  0  0  0
    3.5566   -5.4883    0.0000 C   0  0  0  0  0  0  0  0  0  0  0  0
    4.2711   -5.0758    0.0000 C   0  0  0  0  0  0  0  0  0  0  0  0
    4.2711   -4.2508    0.0000 C   0  0  0  0  0  0  0  0  0  0  0  0
    4.9855   -3.8383    0.0000 O   0  0  0  0  0  0  0  0  0  0  0  0
    3.5566  -12.9133    0.0000 H   0  0  0  0  0  0  0  0  0  0  0  0
    5.0947  -11.6279    0.0000 H   0  0  0  0  0  0  0  0  0  0  0  0
    4.7244  -10.9865    0.0000 H   0  0  0  0  0  0  0  0  0  0  0  0
    2.7330  -11.3113    0.0000 H   0  0  0  0  0  0  0  0  0  0  0  0
    3.1033  -11.9526    0.0000 H   0  0  0  0  0  0  0  0  0  0  0  0
    4.3802  -10.3904    0.0000 H   0  0  0  0  0  0  0  0  0  0  0  0
    4.0100   -9.7490    0.0000 H   0  0  0  0  0  0  0  0  0  0  0  0
    3.6657   -9.1529    0.0000 H   0  0  0  0  0  0  0  0  0  0  0  0
    3.2955   -8.5115    0.0000 H   0  0  0  0  0  0  0  0  0  0  0  0
    1.3041   -8.8363    0.0000 H   0  0  0  0  0  0  0  0  0  0  0  0
    1.6743   -9.4776    0.0000 H   0  0  0  0  0  0  0  0  0  0  0  0
    0.5896   -7.5988    0.0000 H   0  0  0  0  0  0  0  0  0  0  0  0
    0.9598   -8.2401    0.0000 H   0  0  0  0  0  0  0  0  0  0  0  0
    2.2368   -6.6779    0.0000 H   0  0  0  0  0  0  0  0  0  0  0  0
    1.8665   -6.0365    0.0000 H   0  0  0  0  0  0  0  0  0  0  0  0
    1.5223   -5.4404    0.0000 H   0  0  0  0  0  0  0  0  0  0  0  0
    1.1521   -4.7990    0.0000 H   0  0  0  0  0  0  0  0  0  0  0  0
   -0.8394   -5.1238    0.0000 H   0  0  0  0  0  0  0  0  0  0  0  0
   -0.4691   -5.7651    0.0000 H   0  0  0  0  0  0  0  0  0  0  0  0
    0.8079   -4.2029    0.0000 H   0  0  0  0  0  0  0  0  0  0  0  0
    0.4376   -3.5615    0.0000 H   0  0  0  0  0  0  0  0  0  0  0  0
   -0.7302   -3.0133    0.0000 H   0  0  0  0  0  0  0  0  0  0  0  0
    3.2955   -8.2401    0.0000 H   0  0  0  0  0  0  0  0  0  0  0  0
    3.6657   -7.5988    0.0000 H   0  0  0  0  0  0  0  0  0  0  0  0
    2.6603   -5.9211    0.0000 H   0  0  0  0  0  0  0  0  0  0  0  0
    3.5566   -7.1383    0.0000 H   0  0  0  0  0  0  0  0  0  0  0  0
    3.1033   -4.7990    0.0000 H   0  0  0  0  0  0  0  0  0  0  0  0
    2.7330   -5.4404    0.0000 H   0  0  0  0  0  0  0  0  0  0  0  0
    4.7244   -5.7651    0.0000 H   0  0  0  0  0  0  0  0  0  0  0  0
    5.0947   -5.1238    0.0000 H   0  0  0  0  0  0  0  0  0  0  0  0
    3.8177   -3.5615    0.0000 H   0  0  0  0  0  0  0  0  0  0  0  0
    3.4475   -4.2029    0.0000 H   0  0  0  0  0  0  0  0  0  0  0  0
    5.7000   -4.2508    0.0000 H   0  0  0  0  0  0  0  0  0  0  0  0
  1  2  1  0  0  0  0
  2  3  1  0  0  0  0
  3  4  1  0  0  0  0
  4  5  1  0  0  0  0
  5  6  1  0  0  0  0
  6  7  1  0  0  0  0
  7  8  1  0  0  0  0
  8  9  1  0  0  0  0
  9 10  1  0  0  0  0
 10 11  1  0  0  0  0
 11 12  1  0  0  0  0
 12 13  1  0  0  0  0
 13 14  1  0  0  0  0
 14 15  1  0  0  0  0
  8 16  1  0  0  0  0
 16 17  1  0  0  0  0
 17 18  1  0  0  0  0
 18 19  1  0  0  0  0
 19 20  1  0  0  0  0
 20 21  1  0  0  0  0
 21 22  1  0  0  0  0
  1 23  1  0  0  0  0
  2 24  1  0  0  0  0
  2 25  1  0  0  0  0
  3 26  1  0  0  0  0
  3 27  1  0  0  0  0
  4 28  1  0  0  0  0
  4 29  1  0  0  0  0
  6 30  1  0  0  0  0
  6 31  1  0  0  0  0
  7 32  1  0  0  0  0
  7 33  1  0  0  0  0
  9 34  1  0  0  0  0
  9 35  1  0  0  0  0
 10 36  1  0  0  0  0
 10 37  1  0  0  0  0
 12 38  1  0  0  0  0
 12 39  1  0  0  0  0
 13 40  1  0  0  0  0
 13 41  1  0  0  0  0
 14 42  1  0  0  0  0
 14 43  1  0  0  0  0
 15 44  1  0  0  0  0
 16 45  1  0  0  0  0
 16 46  1  0  0  0  0
 17 47  1  0  0  0  0
 17 48  1  0  0  0  0
 19 49  1  0  0  0  0
 19 50  1  0  0  0  0
 20 51  1  0  0  0  0
 20 52  1  0  0  0  0
 21 53  1  0  0  0  0
 21 54  1  0  0  0  0
 22 55  1  0  0  0  0
M  END
>  <InChIKey>
FDCWERGDFBPCQG-UHFFFAOYSA-N

>  <UN GHS>
Non-irritant

>  <CASRN>
37208-53-0

> <Outcome>
0

>  <Index>
173

>  <StandardizerResult>
Clear Stereo (ID: ClearStereo)
Wedge Clean (ID: WedgeClean)
Mesomerize (ID: Mesomerize)
Tautomerize (ID: Tautomerize)
Add Explicit Hydrogens (ID: AddExplicitH)
Neutralize (ID: Neutralize)
Clean 2D (ID: Clean2D)

> <knn Distance>
3.74165749549866

> <CpId>
173

$$$$
255
  Mrv1532301301811342D          

 33 34  0  0  0  0            999 V2000
   -0.6610    9.7240    0.0000 C   0  0  0  0  0  0  0  0  0  0  0  0
   -0.6610    8.8990    0.0000 C   0  0  0  0  0  0  0  0  0  0  0  0
   -1.4860    8.8990    0.0000 C   0  0  0  0  0  0  0  0  0  0  0  0
    0.1640    8.8990    0.0000 C   0  0  0  0  0  0  0  0  0  0  0  0
   -0.6610    8.0740    0.0000 C   0  0  0  0  0  0  0  0  0  0  0  0
    0.0534    7.6615    0.0000 C   0  0  0  0  0  0  0  0  0  0  0  0
    0.0534    6.8365    0.0000 C   0  0  0  0  0  0  0  0  0  0  0  0
   -0.6610    6.4240    0.0000 C   0  0  0  0  0  0  0  0  0  0  0  0
   -0.6610    5.5990    0.0000 O   0  0  0  0  0  0  0  0  0  0  0  0
    0.0534    5.1865    0.0000 C   0  0  0  0  0  0  0  0  0  0  0  0
    0.0534    4.3615    0.0000 C   0  0  0  0  0  0  0  0  0  0  0  0
    0.4659    3.6470    0.0000 C   0  0  0  0  0  0  0  0  0  0  0  0
   -0.3591    3.6470    0.0000 O   0  0  0  0  0  0  0  0  0  0  0  0
   -1.3755    6.8365    0.0000 C   0  0  0  0  0  0  0  0  0  0  0  0
   -1.3755    7.6615    0.0000 C   0  0  0  0  0  0  0  0  0  0  0  0
    0.1640    9.7240    0.0000 H   0  0  0  0  0  0  0  0  0  0  0  0
   -0.6610   10.5490    0.0000 H   0  0  0  0  0  0  0  0  0  0  0  0
   -1.4860    9.7240    0.0000 H   0  0  0  0  0  0  0  0  0  0  0  0
   -2.2482    9.2147    0.0000 H   0  0  0  0  0  0  0  0  0  0  0  0
   -2.0694    8.3156    0.0000 H   0  0  0  0  0  0  0  0  0  0  0  0
   -1.1703    8.1368    0.0000 H   0  0  0  0  0  0  0  0  0  0  0  0
   -0.1517    8.1368    0.0000 H   0  0  0  0  0  0  0  0  0  0  0  0
    0.7473    8.3156    0.0000 H   0  0  0  0  0  0  0  0  0  0  0  0
    0.9262    9.2147    0.0000 H   0  0  0  0  0  0  0  0  0  0  0  0
    0.8109    7.3346    0.0000 H   0  0  0  0  0  0  0  0  0  0  0  0
    0.4865    6.1343    0.0000 H   0  0  0  0  0  0  0  0  0  0  0  0
    0.8771    5.2345    0.0000 H   0  0  0  0  0  0  0  0  0  0  0  0
    0.5068    5.8758    0.0000 H   0  0  0  0  0  0  0  0  0  0  0  0
   -0.7434    4.5750    0.0000 H   0  0  0  0  0  0  0  0  0  0  0  0
    0.8362    2.9098    0.0000 H   0  0  0  0  0  0  0  0  0  0  0  0
    1.2896    3.6950    0.0000 H   0  0  0  0  0  0  0  0  0  0  0  0
   -2.0900    6.4240    0.0000 H   0  0  0  0  0  0  0  0  0  0  0  0
   -2.1330    7.3346    0.0000 H   0  0  0  0  0  0  0  0  0  0  0  0
  1  2  1  0  0  0  0
  2  3  1  0  0  0  0
  2  4  1  0  0  0  0
  2  5  1  0  0  0  0
  5  6  4  0  0  0  0
  6  7  4  0  0  0  0
  7  8  4  0  0  0  0
  8  9  1  0  0  0  0
  9 10  1  0  0  0  0
 10 11  1  0  0  0  0
 11 12  1  0  0  0  0
 12 13  1  0  0  0  0
 11 13  1  0  0  0  0
  8 14  4  0  0  0  0
 14 15  4  0  0  0  0
  5 15  4  0  0  0  0
  1 16  1  0  0  0  0
  1 17  1  0  0  0  0
  1 18  1  0  0  0  0
  3 19  1  0  0  0  0
  3 20  1  0  0  0  0
  3 21  1  0  0  0  0
  4 22  1  0  0  0  0
  4 23  1  0  0  0  0
  4 24  1  0  0  0  0
  6 25  1  0  0  0  0
  7 26  1  0  0  0  0
 10 27  1  0  0  0  0
 10 28  1  0  0  0  0
 11 29  1  0  0  0  0
 12 30  1  0  0  0  0
 12 31  1  0  0  0  0
 14 32  1  0  0  0  0
 15 33  1  0  0  0  0
M  END
>  <InChIKey>
HHRACYLRBOUBKM-UHFFFAOYSA-N

>  <UN GHS>
Non-irritant

>  <CASRN>
3101-60-8

> <Outcome>
0

>  <Index>
255

>  <StandardizerResult>
Dearomatize (ID: Dearomatize)
Clear Stereo (ID: ClearStereo)
Wedge Clean (ID: WedgeClean)
Mesomerize (ID: Mesomerize)
Tautomerize (ID: Tautomerize)
Aromatize (ID: Aromatize)
Add Explicit Hydrogens (ID: AddExplicitH)
Neutralize (ID: Neutralize)
Clean 2D (ID: Clean2D)

> <knn Distance>
3.74165749549866

> <CpId>
255

$$$$
300
  Mrv1532301301811342D          

 32 33  0  0  0  0            999 V2000
    0.7145   -0.4125    0.0000 C   0  0  0  0  0  0  0  0  0  0  0  0
    0.7145   -1.2375    0.0000 C   0  0  0  0  0  0  0  0  0  0  0  0
    1.4290   -1.6500    0.0000 C   0  0  0  0  0  0  0  0  0  0  0  0
    1.4290   -2.4750    0.0000 C   0  0  0  0  0  0  0  0  0  0  0  0
    0.7145   -2.8875    0.0000 C   0  0  0  0  0  0  0  0  0  0  0  0
    0.0000   -2.4750    0.0000 C   0  0  0  0  0  0  0  0  0  0  0  0
    0.0000   -1.6500    0.0000 C   0  0  0  0  0  0  0  0  0  0  0  0
   -0.7145   -1.2375    0.0000 N   0  0  0  0  0  0  0  0  0  0  0  0
   -1.4289   -1.6500    0.0000 C   0  0  0  0  0  0  0  0  0  0  0  0
   -2.1434   -2.0625    0.0000 O   0  0  0  0  0  0  0  0  0  0  0  0
    2.1434   -2.8875    0.0000 C   0  0  0  0  0  0  0  0  0  0  0  0
    2.8579   -2.4750    0.0000 C   0  0  0  0  0  0  0  0  0  0  0  0
    3.5724   -2.8875    0.0000 C   0  0  0  0  0  0  0  0  0  0  0  0
    3.5724   -3.7125    0.0000 C   0  0  0  0  0  0  0  0  0  0  0  0
    4.2868   -4.1250    0.0000 N   0  0  0  0  0  0  0  0  0  0  0  0
    5.0013   -3.7125    0.0000 C   0  0  0  0  0  0  0  0  0  0  0  0
    5.7158   -3.3000    0.0000 O   0  0  0  0  0  0  0  0  0  0  0  0
    2.8579   -4.1250    0.0000 C   0  0  0  0  0  0  0  0  0  0  0  0
    2.8579   -4.9500    0.0000 C   0  0  0  0  0  0  0  0  0  0  0  0
    2.1434   -3.7125    0.0000 C   0  0  0  0  0  0  0  0  0  0  0  0
    1.5395   -0.4125    0.0000 H   0  0  0  0  0  0  0  0  0  0  0  0
    0.7145    0.4125    0.0000 H   0  0  0  0  0  0  0  0  0  0  0  0
   -0.1105   -0.4125    0.0000 H   0  0  0  0  0  0  0  0  0  0  0  0
    2.1434   -1.2375    0.0000 H   0  0  0  0  0  0  0  0  0  0  0  0
    0.7145   -3.7125    0.0000 H   0  0  0  0  0  0  0  0  0  0  0  0
   -0.7145   -2.8875    0.0000 H   0  0  0  0  0  0  0  0  0  0  0  0
    2.8579   -1.6500    0.0000 H   0  0  0  0  0  0  0  0  0  0  0  0
    4.2868   -2.4750    0.0000 H   0  0  0  0  0  0  0  0  0  0  0  0
    2.0329   -4.9500    0.0000 H   0  0  0  0  0  0  0  0  0  0  0  0
    2.8579   -5.7750    0.0000 H   0  0  0  0  0  0  0  0  0  0  0  0
    3.6829   -4.9500    0.0000 H   0  0  0  0  0  0  0  0  0  0  0  0
    1.4290   -4.1250    0.0000 H   0  0  0  0  0  0  0  0  0  0  0  0
  1  2  1  0  0  0  0
  2  3  4  0  0  0  0
  3  4  4  0  0  0  0
  4  5  4  0  0  0  0
  5  6  4  0  0  0  0
  6  7  4  0  0  0  0
  2  7  4  0  0  0  0
  7  8  1  0  0  0  0
  8  9  2  0  0  0  0
  9 10  2  0  0  0  0
  4 11  1  0  0  0  0
 11 12  4  0  0  0  0
 12 13  4  0  0  0  0
 13 14  4  0  0  0  0
 14 15  1  0  0  0  0
 15 16  2  0  0  0  0
 16 17  2  0  0  0  0
 14 18  4  0  0  0  0
 18 19  1  0  0  0  0
 18 20  4  0  0  0  0
 11 20  4  0  0  0  0
  1 21  1  0  0  0  0
  1 22  1  0  0  0  0
  1 23  1  0  0  0  0
  3 24  1  0  0  0  0
  5 25  1  0  0  0  0
  6 26  1  0  0  0  0
 12 27  1  0  0  0  0
 13 28  1  0  0  0  0
 19 29  1  0  0  0  0
 19 30  1  0  0  0  0
 19 31  1  0  0  0  0
 20 32  1  0  0  0  0
M  END
>  <InChIKey>
ICLCCFKUSALICQ-UHFFFAOYSA-N

>  <UN GHS>
Non-irritant

>  <CASRN>
91-97-4

> <Outcome>
0

>  <Index>
300

>  <StandardizerResult>
Dearomatize (ID: Dearomatize)
Clear Stereo (ID: ClearStereo)
Wedge Clean (ID: WedgeClean)
Mesomerize (ID: Mesomerize)
Tautomerize (ID: Tautomerize)
Aromatize (ID: Aromatize)
Add Explicit Hydrogens (ID: AddExplicitH)
Neutralize (ID: Neutralize)
Clean 2D (ID: Clean2D)

> <knn Distance>
3.74165749549866

> <CpId>
300

$$$$
324
  Mrv1532301301811342D          

 31 33  0  0  0  0            999 V2000
   -3.0523    3.0170    0.0000 C   0  0  0  0  0  0  0  0  0  0  0  0
   -2.2454    2.8454    0.0000 C   0  0  0  0  0  0  0  0  0  0  0  0
   -1.9904    2.0608    0.0000 C   0  0  0  0  0  0  0  0  0  0  0  0
   -2.5425    1.4477    0.0000 O   0  0  0  0  0  0  0  0  0  0  0  0
   -1.1835    1.8893    0.0000 O   0  0  0  0  0  0  0  0  0  0  0  0
   -0.9285    1.1047    0.0000 C   0  0  0  0  0  0  0  0  0  0  0  0
   -1.4134    0.4372    0.0000 C   0  0  0  0  0  0  0  0  0  0  0  0
   -0.9285   -0.2302    0.0000 C   0  0  0  0  0  0  0  0  0  0  0  0
   -0.1439    0.0247    0.0000 C   0  0  0  0  0  0  0  0  0  0  0  0
    0.5706   -0.3878    0.0000 C   0  0  0  0  0  0  0  0  0  0  0  0
    1.2850    0.0247    0.0000 C   0  0  0  0  0  0  0  0  0  0  0  0
    1.2850    0.8497    0.0000 C   0  0  0  0  0  0  0  0  0  0  0  0
    0.5706    1.2622    0.0000 C   0  0  0  0  0  0  0  0  0  0  0  0
    0.3643    0.4372    0.0000 C   0  0  0  0  0  0  0  0  0  0  0  0
   -0.1439    0.8497    0.0000 C   0  0  0  0  0  0  0  0  0  0  0  0
   -3.3073    3.8016    0.0000 H   0  0  0  0  0  0  0  0  0  0  0  0
   -3.6044    2.4039    0.0000 H   0  0  0  0  0  0  0  0  0  0  0  0
   -1.6933    3.4585    0.0000 H   0  0  0  0  0  0  0  0  0  0  0  0
   -0.3452    1.6880    0.0000 H   0  0  0  0  0  0  0  0  0  0  0  0
   -2.2384    0.4372    0.0000 H   0  0  0  0  0  0  0  0  0  0  0  0
   -1.1835   -1.0148    0.0000 H   0  0  0  0  0  0  0  0  0  0  0  0
   -0.2301   -0.7958    0.0000 H   0  0  0  0  0  0  0  0  0  0  0  0
    0.9642   -1.1128    0.0000 H   0  0  0  0  0  0  0  0  0  0  0  0
    1.7384   -0.6646    0.0000 H   0  0  0  0  0  0  0  0  0  0  0  0
    2.1086   -0.0232    0.0000 H   0  0  0  0  0  0  0  0  0  0  0  0
    2.1086    0.8977    0.0000 H   0  0  0  0  0  0  0  0  0  0  0  0
    1.7384    1.5390    0.0000 H   0  0  0  0  0  0  0  0  0  0  0  0
    0.5706    2.0872    0.0000 H   0  0  0  0  0  0  0  0  0  0  0  0
    1.1101    0.0844    0.0000 H   0  0  0  0  0  0  0  0  0  0  0  0
    1.1101    0.7901    0.0000 H   0  0  0  0  0  0  0  0  0  0  0  0
   -0.8113    0.3648    0.0000 H   0  0  0  0  0  0  0  0  0  0  0  0
  1  2  2  0  0  0  0
  2  3  1  0  0  0  0
  3  4  2  0  0  0  0
  3  5  1  0  0  0  0
  5  6  1  0  0  0  0
  6  7  1  0  0  0  0
  7  8  2  0  0  0  0
  8  9  1  0  0  0  0
  9 10  1  0  0  0  0
 10 11  1  0  0  0  0
 11 12  1  0  0  0  0
 12 13  1  0  0  0  0
 13 14  1  0  0  0  0
 10 14  1  0  0  0  0
 13 15  1  0  0  0  0
  6 15  1  0  0  0  0
  9 15  1  0  0  0  0
  1 16  1  0  0  0  0
  1 17  1  0  0  0  0
  2 18  1  0  0  0  0
  6 19  1  0  0  0  0
  7 20  1  0  0  0  0
  8 21  1  0  0  0  0
  9 22  1  0  0  0  0
 10 23  1  0  0  0  0
 11 24  1  0  0  0  0
 11 25  1  0  0  0  0
 12 26  1  0  0  0  0
 12 27  1  0  0  0  0
 13 28  1  0  0  0  0
 14 29  1  0  0  0  0
 14 30  1  0  0  0  0
 15 31  1  0  0  0  0
M  END
>  <InChIKey>
ISRJTGUYHVPAOR-UHFFFAOYSA-N

>  <UN GHS>
Non-irritant

>  <CASRN>
12542-30-2

> <Outcome>
0

>  <Index>
324

>  <StandardizerResult>
Clear Stereo (ID: ClearStereo)
Wedge Clean (ID: WedgeClean)
Mesomerize (ID: Mesomerize)
Tautomerize (ID: Tautomerize)
Add Explicit Hydrogens (ID: AddExplicitH)
Neutralize (ID: Neutralize)
Clean 2D (ID: Clean2D)

> <knn Distance>
3.74165749549866

> <CpId>
324

$$$$
373
  Mrv1532301301811342D          

 31 30  0  0  0  0            999 V2000
    2.2784    3.1807    0.0000 C   0  0  0  0  0  0  0  0  0  0  0  0
    1.5640    2.7682    0.0000 C   0  0  0  0  0  0  0  0  0  0  0  0
    1.5640    1.9432    0.0000 O   0  0  0  0  0  0  0  0  0  0  0  0
    0.8495    1.5307    0.0000 Si  0  0  0  0  0  0  0  0  0  0  0  0
    0.4370    2.2452    0.0000 C   0  0  0  0  0  0  0  0  0  0  0  0
    0.1350    1.1182    0.0000 C   0  0  0  0  0  0  0  0  0  0  0  0
   -0.5795    1.5307    0.0000 C   0  0  0  0  0  0  0  0  0  0  0  0
   -0.5795    2.3557    0.0000 C   0  0  0  0  0  0  0  0  0  0  0  0
   -1.2939    2.7682    0.0000 Cl  0  0  0  0  0  0  0  0  0  0  0  0
    1.2620    0.8163    0.0000 O   0  0  0  0  0  0  0  0  0  0  0  0
    0.8495    0.1018    0.0000 C   0  0  0  0  0  0  0  0  0  0  0  0
    0.0245    0.1018    0.0000 C   0  0  0  0  0  0  0  0  0  0  0  0
    2.6909    2.4663    0.0000 H   0  0  0  0  0  0  0  0  0  0  0  0
    2.9929    3.5932    0.0000 H   0  0  0  0  0  0  0  0  0  0  0  0
    1.8659    3.8952    0.0000 H   0  0  0  0  0  0  0  0  0  0  0  0
    1.1106    3.4575    0.0000 H   0  0  0  0  0  0  0  0  0  0  0  0
    0.7404    2.8162    0.0000 H   0  0  0  0  0  0  0  0  0  0  0  0
    0.0058    2.9485    0.0000 H   0  0  0  0  0  0  0  0  0  0  0  0
   -0.3879    2.2307    0.0000 H   0  0  0  0  0  0  0  0  0  0  0  0
    0.0308    1.5271    0.0000 H   0  0  0  0  0  0  0  0  0  0  0  0
   -0.2352    0.3810    0.0000 H   0  0  0  0  0  0  0  0  0  0  0  0
    0.5053    0.3810    0.0000 H   0  0  0  0  0  0  0  0  0  0  0  0
   -1.4031    1.4828    0.0000 H   0  0  0  0  0  0  0  0  0  0  0  0
   -1.0328    0.8414    0.0000 H   0  0  0  0  0  0  0  0  0  0  0  0
   -1.2939    1.9432    0.0000 H   0  0  0  0  0  0  0  0  0  0  0  0
   -0.6898    3.1733    0.0000 H   0  0  0  0  0  0  0  0  0  0  0  0
    0.8975   -0.7218    0.0000 H   0  0  0  0  0  0  0  0  0  0  0  0
    1.5388   -0.3516    0.0000 H   0  0  0  0  0  0  0  0  0  0  0  0
   -0.7887   -0.0372    0.0000 H   0  0  0  0  0  0  0  0  0  0  0  0
   -0.3049   -0.6546    0.0000 H   0  0  0  0  0  0  0  0  0  0  0  0
    0.4766   -0.5883    0.0000 H   0  0  0  0  0  0  0  0  0  0  0  0
  1  2  1  0  0  0  0
  2  3  1  0  0  0  0
  3  4  1  0  0  0  0
  4  5  1  0  0  0  0
  4  6  1  0  0  0  0
  6  7  1  0  0  0  0
  7  8  1  0  0  0  0
  8  9  1  0  0  0  0
  4 10  1  0  0  0  0
 10 11  1  0  0  0  0
 11 12  1  0  0  0  0
  1 13  1  0  0  0  0
  1 14  1  0  0  0  0
  1 15  1  0  0  0  0
  2 16  1  0  0  0  0
  2 17  1  0  0  0  0
  5 18  1  0  0  0  0
  5 19  1  0  0  0  0
  5 20  1  0  0  0  0
  6 21  1  0  0  0  0
  6 22  1  0  0  0  0
  7 23  1  0  0  0  0
  7 24  1  0  0  0  0
  8 25  1  0  0  0  0
  8 26  1  0  0  0  0
 11 27  1  0  0  0  0
 11 28  1  0  0  0  0
 12 29  1  0  0  0  0
 12 30  1  0  0  0  0
 12 31  1  0  0  0  0
M  END
>  <InChIKey>
KEZMLECYELSZDC-UHFFFAOYSA-N

>  <UN GHS>
Non-irritant

>  <CASRN>
13501-76-3

> <Outcome>
0

>  <Index>
373

>  <StandardizerResult>
Clear Stereo (ID: ClearStereo)
Wedge Clean (ID: WedgeClean)
Mesomerize (ID: Mesomerize)
Tautomerize (ID: Tautomerize)
Add Explicit Hydrogens (ID: AddExplicitH)
Neutralize (ID: Neutralize)
Clean 2D (ID: Clean2D)

> <knn Distance>
3.74165749549866

> <CpId>
373

$$$$
410
  Mrv1532301301811342D          

 19 18  0  0  0  0            999 V2000
    0.3893    2.2617    0.0000 C   0  0  0  0  0  0  0  0  0  0  0  0
    0.8018    1.5472    0.0000 N   0  3  0  0  0  0  0  0  0  0  0  0
    0.0873    1.1347    0.0000 C   0  0  0  0  0  0  0  0  0  0  0  0
    1.5163    1.9597    0.0000 C   0  0  0  0  0  0  0  0  0  0  0  0
    1.2143    0.8328    0.0000 C   0  0  0  0  0  0  0  0  0  0  0  0
    0.8018    0.1183    0.0000 C   0  0  0  0  0  0  0  0  0  0  0  0
    1.2143   -0.5962    0.0000 O   0  5  0  0  0  0  0  0  0  0  0  0
   -0.0232    0.1183    0.0000 O   0  0  0  0  0  0  0  0  0  0  0  0
    1.1038    2.6742    0.0000 H   0  0  0  0  0  0  0  0  0  0  0  0
   -0.0232    2.9762    0.0000 H   0  0  0  0  0  0  0  0  0  0  0  0
   -0.3252    1.8492    0.0000 H   0  0  0  0  0  0  0  0  0  0  0  0
   -0.7306    1.0270    0.0000 H   0  0  0  0  0  0  0  0  0  0  0  0
   -0.1262    0.3378    0.0000 H   0  0  0  0  0  0  0  0  0  0  0  0
    0.7419    0.6325    0.0000 H   0  0  0  0  0  0  0  0  0  0  0  0
    1.6240    1.1418    0.0000 H   0  0  0  0  0  0  0  0  0  0  0  0
    2.3132    1.7462    0.0000 H   0  0  0  0  0  0  0  0  0  0  0  0
    2.0185    2.6142    0.0000 H   0  0  0  0  0  0  0  0  0  0  0  0
    1.5279    0.0697    0.0000 H   0  0  0  0  0  0  0  0  0  0  0  0
    2.0100    0.6149    0.0000 H   0  0  0  0  0  0  0  0  0  0  0  0
  1  2  1  0  0  0  0
  2  3  1  0  0  0  0
  2  4  1  0  0  0  0
  2  5  1  0  0  0  0
  5  6  1  0  0  0  0
  6  7  1  0  0  0  0
  6  8  2  0  0  0  0
  1  9  1  0  0  0  0
  1 10  1  0  0  0  0
  1 11  1  0  0  0  0
  3 12  1  0  0  0  0
  3 13  1  0  0  0  0
  3 14  1  0  0  0  0
  4 15  1  0  0  0  0
  4 16  1  0  0  0  0
  4 17  1  0  0  0  0
  5 18  1  0  0  0  0
  5 19  1  0  0  0  0
M  CHG  2   2   1   7  -1
M  END
>  <InChIKey>
KWIUHFFTVRNATP-UHFFFAOYSA-N

>  <UN GHS>
Non-irritant

>  <CASRN>
107-43-7

> <Outcome>
0

>  <Index>
410

>  <StandardizerResult>
Clear Stereo (ID: ClearStereo)
Wedge Clean (ID: WedgeClean)
Mesomerize (ID: Mesomerize)
Tautomerize (ID: Tautomerize)
Add Explicit Hydrogens (ID: AddExplicitH)
Clean 2D (ID: Clean2D)

> <knn Distance>
3.74165749549866

> <CpId>
410

$$$$
414
  Mrv1532301301811342D          

 29 28  0  0  0  0            999 V2000
    0.0880    0.3798    0.0000 C   0  0  0  0  0  0  0  0  0  0  0  0
    0.8024   -0.0327    0.0000 C   0  0  0  0  0  0  0  0  0  0  0  0
    1.5169    0.3798    0.0000 Si  0  0  0  0  0  0  0  0  0  0  0  0
    1.9294   -0.3347    0.0000 O   0  0  0  0  0  0  0  0  0  0  0  0
    1.5169   -1.0492    0.0000 C   0  0  0  0  0  0  0  0  0  0  0  0
    1.9294   -1.7637    0.0000 C   0  0  0  0  0  0  0  0  0  0  0  0
    0.6919   -1.0492    0.0000 O   0  0  0  0  0  0  0  0  0  0  0  0
    1.1044    1.0942    0.0000 O   0  0  0  0  0  0  0  0  0  0  0  0
    1.5169    1.8087    0.0000 C   0  0  0  0  0  0  0  0  0  0  0  0
    1.1044    2.5232    0.0000 C   0  0  0  0  0  0  0  0  0  0  0  0
    2.3419    1.8087    0.0000 O   0  0  0  0  0  0  0  0  0  0  0  0
    2.2314    0.7923    0.0000 O   0  0  0  0  0  0  0  0  0  0  0  0
    2.9458    0.3798    0.0000 C   0  0  0  0  0  0  0  0  0  0  0  0
    2.9458   -0.4452    0.0000 C   0  0  0  0  0  0  0  0  0  0  0  0
    3.6603    0.7923    0.0000 O   0  0  0  0  0  0  0  0  0  0  0  0
    0.5005    1.0942    0.0000 H   0  0  0  0  0  0  0  0  0  0  0  0
   -0.6265    0.7923    0.0000 H   0  0  0  0  0  0  0  0  0  0  0  0
   -0.3245   -0.3347    0.0000 H   0  0  0  0  0  0  0  0  0  0  0  0
    0.4322   -0.7700    0.0000 H   0  0  0  0  0  0  0  0  0  0  0  0
    1.1727   -0.7700    0.0000 H   0  0  0  0  0  0  0  0  0  0  0  0
    1.2149   -2.1762    0.0000 H   0  0  0  0  0  0  0  0  0  0  0  0
    2.3419   -2.4781    0.0000 H   0  0  0  0  0  0  0  0  0  0  0  0
    2.6439   -1.3512    0.0000 H   0  0  0  0  0  0  0  0  0  0  0  0
    1.8189    2.9357    0.0000 H   0  0  0  0  0  0  0  0  0  0  0  0
    0.6919    3.2376    0.0000 H   0  0  0  0  0  0  0  0  0  0  0  0
    0.3899    2.1107    0.0000 H   0  0  0  0  0  0  0  0  0  0  0  0
    3.6510   -0.8734    0.0000 H   0  0  0  0  0  0  0  0  0  0  0  0
    3.7502   -0.2620    0.0000 H   0  0  0  0  0  0  0  0  0  0  0  0
    2.1315   -0.3131    0.0000 H   0  0  0  0  0  0  0  0  0  0  0  0
  1  2  1  0  0  0  0
  2  3  1  0  0  0  0
  3  4  1  0  0  0  0
  4  5  1  0  0  0  0
  5  6  1  0  0  0  0
  5  7  2  0  0  0  0
  3  8  1  0  0  0  0
  8  9  1  0  0  0  0
  9 10  1  0  0  0  0
  9 11  2  0  0  0  0
  3 12  1  0  0  0  0
 12 13  1  0  0  0  0
 13 14  1  0  0  0  0
 13 15  2  0  0  0  0
  1 16  1  0  0  0  0
  1 17  1  0  0  0  0
  1 18  1  0  0  0  0
  2 19  1  0  0  0  0
  2 20  1  0  0  0  0
  6 21  1  0  0  0  0
  6 22  1  0  0  0  0
  6 23  1  0  0  0  0
 10 24  1  0  0  0  0
 10 25  1  0  0  0  0
 10 26  1  0  0  0  0
 14 27  1  0  0  0  0
 14 28  1  0  0  0  0
 14 29  1  0  0  0  0
M  END
>  <InChIKey>
KXJLGCBCRCSXQF-UHFFFAOYSA-N

>  <UN GHS>
Non-irritant

>  <CASRN>
17689-77-9

> <Outcome>
0

>  <Index>
414

>  <StandardizerResult>
Clear Stereo (ID: ClearStereo)
Wedge Clean (ID: WedgeClean)
Mesomerize (ID: Mesomerize)
Tautomerize (ID: Tautomerize)
Add Explicit Hydrogens (ID: AddExplicitH)
Neutralize (ID: Neutralize)
Clean 2D (ID: Clean2D)

> <knn Distance>
3.74165749549866

> <CpId>
414

$$$$
467
  Mrv1532301301811342D          

 42 42  0  0  0  0            999 V2000
   -0.0243    1.6305    0.0000 C   0  0  0  0  0  0  0  0  0  0  0  0
    0.6901    1.2180    0.0000 C   0  0  0  0  0  0  0  0  0  0  0  0
    0.6901    0.3930    0.0000 C   0  0  0  0  0  0  0  0  0  0  0  0
    1.4046    1.6305    0.0000 C   0  0  0  0  0  0  0  0  0  0  0  0
    1.4046    2.4555    0.0000 C   0  0  0  0  0  0  0  0  0  0  0  0
    2.1191    2.8680    0.0000 C   0  0  0  0  0  0  0  0  0  0  0  0
    2.8335    2.4555    0.0000 C   0  0  0  0  0  0  0  0  0  0  0  0
    3.5480    2.8680    0.0000 C   0  0  0  0  0  0  0  0  0  0  0  0
    2.8335    1.6305    0.0000 C   0  0  0  0  0  0  0  0  0  0  0  0
    2.1191    1.2180    0.0000 C   0  0  0  0  0  0  0  0  0  0  0  0
    2.1191    0.3930    0.0000 O   0  0  0  0  0  0  0  0  0  0  0  0
    2.8335   -0.0195    0.0000 C   0  0  0  0  0  0  0  0  0  0  0  0
    3.5480    0.3930    0.0000 C   0  0  0  0  0  0  0  0  0  0  0  0
    3.5480    1.2180    0.0000 O   0  0  0  0  0  0  0  0  0  0  0  0
    4.2625   -0.0195    0.0000 C   0  0  0  0  0  0  0  0  0  0  0  0
    4.9770    0.3930    0.0000 O   0  0  0  0  0  0  0  0  0  0  0  0
    0.3882    2.3450    0.0000 H   0  0  0  0  0  0  0  0  0  0  0  0
   -0.7388    2.0430    0.0000 H   0  0  0  0  0  0  0  0  0  0  0  0
   -0.4368    0.9161    0.0000 H   0  0  0  0  0  0  0  0  0  0  0  0
   -0.0243    0.8055    0.0000 H   0  0  0  0  0  0  0  0  0  0  0  0
    0.1068   -0.1903    0.0000 H   0  0  0  0  0  0  0  0  0  0  0  0
    1.1026   -0.3214    0.0000 H   0  0  0  0  0  0  0  0  0  0  0  0
    1.4870    0.6066    0.0000 H   0  0  0  0  0  0  0  0  0  0  0  0
    1.4046    0.8055    0.0000 H   0  0  0  0  0  0  0  0  0  0  0  0
    0.9513    3.1448    0.0000 H   0  0  0  0  0  0  0  0  0  0  0  0
    0.5810    2.5035    0.0000 H   0  0  0  0  0  0  0  0  0  0  0  0
    2.4893    3.6053    0.0000 H   0  0  0  0  0  0  0  0  0  0  0  0
    1.7488    3.6053    0.0000 H   0  0  0  0  0  0  0  0  0  0  0  0
    3.5480    2.0430    0.0000 H   0  0  0  0  0  0  0  0  0  0  0  0
    4.3449    2.6545    0.0000 H   0  0  0  0  0  0  0  0  0  0  0  0
    3.9605    3.5825    0.0000 H   0  0  0  0  0  0  0  0  0  0  0  0
    2.9647    3.4514    0.0000 H   0  0  0  0  0  0  0  0  0  0  0  0
    2.8335    0.8055    0.0000 H   0  0  0  0  0  0  0  0  0  0  0  0
    2.1191    2.0430    0.0000 H   0  0  0  0  0  0  0  0  0  0  0  0
    1.7066    1.9325    0.0000 H   0  0  0  0  0  0  0  0  0  0  0  0
    2.4633   -0.7567    0.0000 H   0  0  0  0  0  0  0  0  0  0  0  0
    3.2038   -0.7567    0.0000 H   0  0  0  0  0  0  0  0  0  0  0  0
    4.2625    0.8055    0.0000 H   0  0  0  0  0  0  0  0  0  0  0  0
    4.2625    1.6305    0.0000 H   0  0  0  0  0  0  0  0  0  0  0  0
    3.8922   -0.7567    0.0000 H   0  0  0  0  0  0  0  0  0  0  0  0
    4.6328   -0.7567    0.0000 H   0  0  0  0  0  0  0  0  0  0  0  0
    5.8020    0.3930    0.0000 H   0  0  0  0  0  0  0  0  0  0  0  0
  1  2  1  0  0  0  0
  2  3  1  0  0  0  0
  2  4  1  0  0  0  0
  4  5  1  0  0  0  0
  5  6  1  0  0  0  0
  6  7  1  0  0  0  0
  7  8  1  0  0  0  0
  7  9  1  0  0  0  0
  9 10  1  0  0  0  0
  4 10  1  0  0  0  0
 10 11  1  0  0  0  0
 11 12  1  0  0  0  0
 12 13  1  0  0  0  0
 13 14  1  0  0  0  0
 13 15  1  0  0  0  0
 15 16  1  0  0  0  0
  1 17  1  0  0  0  0
  1 18  1  0  0  0  0
  1 19  1  0  0  0  0
  2 20  1  0  0  0  0
  3 21  1  0  0  0  0
  3 22  1  0  0  0  0
  3 23  1  0  0  0  0
  4 24  1  0  0  0  0
  5 25  1  0  0  0  0
  5 26  1  0  0  0  0
  6 27  1  0  0  0  0
  6 28  1  0  0  0  0
  7 29  1  0  0  0  0
  8 30  1  0  0  0  0
  8 31  1  0  0  0  0
  8 32  1  0  0  0  0
  9 33  1  0  0  0  0
  9 34  1  0  0  0  0
 10 35  1  0  0  0  0
 12 36  1  0  0  0  0
 12 37  1  0  0  0  0
 13 38  1  0  0  0  0
 14 39  1  0  0  0  0
 15 40  1  0  0  0  0
 15 41  1  0  0  0  0
 16 42  1  0  0  0  0
M  END
>  <InChIKey>
MDVYIGJINBYKOM-UHFFFAOYSA-N

>  <UN GHS>
Non-irritant

>  <CASRN>
87061-04-9

> <Outcome>
0

>  <Index>
467

>  <StandardizerResult>
Clear Stereo (ID: ClearStereo)
Wedge Clean (ID: WedgeClean)
Mesomerize (ID: Mesomerize)
Tautomerize (ID: Tautomerize)
Add Explicit Hydrogens (ID: AddExplicitH)
Neutralize (ID: Neutralize)
Clean 2D (ID: Clean2D)

> <knn Distance>
3.74165749549866

> <CpId>
467

$$$$
488
  Mrv1532301301811342D          

 36 37  0  0  0  0            999 V2000
   -0.0008    0.8250    0.0000 C   0  0  0  0  0  0  0  0  0  0  0  0
   -0.0008    0.0000    0.0000 O   0  0  0  0  0  0  0  0  0  0  0  0
    0.7136   -0.4125    0.0000 C   0  0  0  0  0  0  0  0  0  0  0  0
    0.7136   -1.2375    0.0000 C   0  0  0  0  0  0  0  0  0  0  0  0
    1.4281   -1.6500    0.0000 C   0  0  0  0  0  0  0  0  0  0  0  0
    1.4281   -2.4750    0.0000 C   0  0  0  0  0  0  0  0  0  0  0  0
    0.7136   -2.8875    0.0000 C   0  0  0  0  0  0  0  0  0  0  0  0
   -0.0008   -2.4750    0.0000 C   0  0  0  0  0  0  0  0  0  0  0  0
   -0.0008   -1.6500    0.0000 C   0  0  0  0  0  0  0  0  0  0  0  0
    0.7136   -3.7125    0.0000 C   0  0  0  0  0  0  0  0  0  0  0  0
    1.4281   -4.1250    0.0000 C   0  0  0  0  0  0  0  0  0  0  0  0
    1.4281   -4.9500    0.0000 C   0  0  0  0  0  0  0  0  0  0  0  0
    0.7136   -5.3625    0.0000 C   0  0  0  0  0  0  0  0  0  0  0  0
    0.7136   -6.1875    0.0000 C   0  0  0  0  0  0  0  0  0  0  0  0
   -0.0008   -6.6000    0.0000 O   0  0  0  0  0  0  0  0  0  0  0  0
   -0.0008   -7.4250    0.0000 C   0  0  0  0  0  0  0  0  0  0  0  0
   -0.0008   -4.9500    0.0000 C   0  0  0  0  0  0  0  0  0  0  0  0
   -0.0008   -4.1250    0.0000 C   0  0  0  0  0  0  0  0  0  0  0  0
    0.8242    0.8250    0.0000 H   0  0  0  0  0  0  0  0  0  0  0  0
   -0.0008    1.6500    0.0000 H   0  0  0  0  0  0  0  0  0  0  0  0
   -0.8258    0.8250    0.0000 H   0  0  0  0  0  0  0  0  0  0  0  0
    1.5372   -0.3645    0.0000 H   0  0  0  0  0  0  0  0  0  0  0  0
    1.1670    0.2768    0.0000 H   0  0  0  0  0  0  0  0  0  0  0  0
    2.1426   -1.2375    0.0000 H   0  0  0  0  0  0  0  0  0  0  0  0
    2.1426   -2.8875    0.0000 H   0  0  0  0  0  0  0  0  0  0  0  0
   -0.7153   -2.8875    0.0000 H   0  0  0  0  0  0  0  0  0  0  0  0
   -0.7153   -1.2375    0.0000 H   0  0  0  0  0  0  0  0  0  0  0  0
    2.1426   -3.7125    0.0000 H   0  0  0  0  0  0  0  0  0  0  0  0
    2.1426   -5.3625    0.0000 H   0  0  0  0  0  0  0  0  0  0  0  0
    1.1670   -6.8768    0.0000 H   0  0  0  0  0  0  0  0  0  0  0  0
    1.5372   -6.2355    0.0000 H   0  0  0  0  0  0  0  0  0  0  0  0
   -0.8258   -7.4250    0.0000 H   0  0  0  0  0  0  0  0  0  0  0  0
   -0.0008   -8.2500    0.0000 H   0  0  0  0  0  0  0  0  0  0  0  0
    0.8242   -7.4250    0.0000 H   0  0  0  0  0  0  0  0  0  0  0  0
   -0.7153   -5.3625    0.0000 H   0  0  0  0  0  0  0  0  0  0  0  0
   -0.7153   -3.7125    0.0000 H   0  0  0  0  0  0  0  0  0  0  0  0
  1  2  1  0  0  0  0
  2  3  1  0  0  0  0
  3  4  1  0  0  0  0
  4  5  4  0  0  0  0
  5  6  4  0  0  0  0
  6  7  4  0  0  0  0
  7  8  4  0  0  0  0
  8  9  4  0  0  0  0
  4  9  4  0  0  0  0
  7 10  1  0  0  0  0
 10 11  4  0  0  0  0
 11 12  4  0  0  0  0
 12 13  4  0  0  0  0
 13 14  1  0  0  0  0
 14 15  1  0  0  0  0
 15 16  1  0  0  0  0
 13 17  4  0  0  0  0
 17 18  4  0  0  0  0
 10 18  4  0  0  0  0
  1 19  1  0  0  0  0
  1 20  1  0  0  0  0
  1 21  1  0  0  0  0
  3 22  1  0  0  0  0
  3 23  1  0  0  0  0
  5 24  1  0  0  0  0
  6 25  1  0  0  0  0
  8 26  1  0  0  0  0
  9 27  1  0  0  0  0
 11 28  1  0  0  0  0
 12 29  1  0  0  0  0
 14 30  1  0  0  0  0
 14 31  1  0  0  0  0
 16 32  1  0  0  0  0
 16 33  1  0  0  0  0
 16 34  1  0  0  0  0
 17 35  1  0  0  0  0
 18 36  1  0  0  0  0
M  END
>  <InChIKey>
MODAACUAXYPNJH-UHFFFAOYSA-N

>  <UN GHS>
Non-irritant

>  <CASRN>
3753-18-2

> <Outcome>
0

>  <Index>
488

>  <StandardizerResult>
Dearomatize (ID: Dearomatize)
Clear Stereo (ID: ClearStereo)
Wedge Clean (ID: WedgeClean)
Mesomerize (ID: Mesomerize)
Tautomerize (ID: Tautomerize)
Aromatize (ID: Aromatize)
Add Explicit Hydrogens (ID: AddExplicitH)
Neutralize (ID: Neutralize)
Clean 2D (ID: Clean2D)

> <knn Distance>
3.74165749549866

> <CpId>
488

$$$$
522
  Mrv1532301301811342D          

 81 83  0  0  0  0            999 V2000
   -2.1434   -1.2375    0.0000 C   0  0  0  0  0  0  0  0  0  0  0  0
   -2.8579   -0.8250    0.0000 C   0  0  0  0  0  0  0  0  0  0  0  0
   -3.5724   -1.2375    0.0000 C   0  0  0  0  0  0  0  0  0  0  0  0
   -4.2868   -0.8250    0.0000 C   0  0  0  0  0  0  0  0  0  0  0  0
   -5.0013   -1.2375    0.0000 O   0  0  0  0  0  0  0  0  0  0  0  0
   -5.7158   -0.8250    0.0000 C   0  0  0  0  0  0  0  0  0  0  0  0
   -5.7158    0.0000    0.0000 O   0  0  0  0  0  0  0  0  0  0  0  0
   -6.4302   -1.2375    0.0000 C   0  0  0  0  0  0  0  0  0  0  0  0
   -6.4302   -2.0625    0.0000 C   0  0  0  0  0  0  0  0  0  0  0  0
   -7.1447   -2.4750    0.0000 C   0  0  0  0  0  0  0  0  0  0  0  0
   -7.8592   -2.0625    0.0000 C   0  0  0  0  0  0  0  0  0  0  0  0
   -8.5737   -2.4750    0.0000 O   0  0  0  0  0  0  0  0  0  0  0  0
   -9.2881   -2.0625    0.0000 C   0  0  0  0  0  0  0  0  0  0  0  0
  -10.0026   -2.4750    0.0000 C   0  0  0  0  0  0  0  0  0  0  0  0
  -10.7171   -2.0625    0.0000 C   0  0  0  0  0  0  0  0  0  0  0  0
  -11.4315   -2.4750    0.0000 C   0  0  0  0  0  0  0  0  0  0  0  0
  -12.1460   -2.0625    0.0000 O   0  0  0  0  0  0  0  0  0  0  0  0
  -12.8605   -2.4750    0.0000 C   0  0  0  0  0  0  0  0  0  0  0  0
  -12.8605   -3.3000    0.0000 O   0  0  0  0  0  0  0  0  0  0  0  0
  -13.5749   -2.0625    0.0000 C   0  0  0  0  0  0  0  0  0  0  0  0
  -14.2894   -2.4750    0.0000 C   0  0  0  0  0  0  0  0  0  0  0  0
   -7.8592   -1.2375    0.0000 C   0  0  0  0  0  0  0  0  0  0  0  0
   -7.1447   -0.8250    0.0000 C   0  0  0  0  0  0  0  0  0  0  0  0
   -4.2868    0.0000    0.0000 C   0  0  0  0  0  0  0  0  0  0  0  0
   -3.5724    0.4125    0.0000 C   0  0  0  0  0  0  0  0  0  0  0  0
   -2.8579    0.0000    0.0000 C   0  0  0  0  0  0  0  0  0  0  0  0
   -2.1434    0.4125    0.0000 O   0  0  0  0  0  0  0  0  0  0  0  0
   -2.1434    1.2375    0.0000 C   0  0  0  0  0  0  0  0  0  0  0  0
   -2.8579    1.6500    0.0000 O   0  0  0  0  0  0  0  0  0  0  0  0
   -1.4289    1.6500    0.0000 C   0  0  0  0  0  0  0  0  0  0  0  0
   -1.4289    2.4750    0.0000 C   0  0  0  0  0  0  0  0  0  0  0  0
   -0.7145    2.8875    0.0000 C   0  0  0  0  0  0  0  0  0  0  0  0
    0.0000    2.4750    0.0000 C   0  0  0  0  0  0  0  0  0  0  0  0
    0.7145    2.8875    0.0000 O   0  0  0  0  0  0  0  0  0  0  0  0
    1.4289    2.4750    0.0000 C   0  0  0  0  0  0  0  0  0  0  0  0
    2.1434    2.8875    0.0000 C   0  0  0  0  0  0  0  0  0  0  0  0
    2.8579    2.4750    0.0000 C   0  0  0  0  0  0  0  0  0  0  0  0
    3.5724    2.8875    0.0000 C   0  0  0  0  0  0  0  0  0  0  0  0
    4.2868    2.4750    0.0000 O   0  0  0  0  0  0  0  0  0  0  0  0
    5.0013    2.8875    0.0000 C   0  0  0  0  0  0  0  0  0  0  0  0
    5.0013    3.7125    0.0000 O   0  0  0  0  0  0  0  0  0  0  0  0
    5.7158    2.4750    0.0000 C   0  0  0  0  0  0  0  0  0  0  0  0
    6.4302    2.8875    0.0000 C   0  0  0  0  0  0  0  0  0  0  0  0
    0.0000    1.6500    0.0000 C   0  0  0  0  0  0  0  0  0  0  0  0
   -0.7145    1.2375    0.0000 C   0  0  0  0  0  0  0  0  0  0  0  0
   -2.5559   -1.9520    0.0000 H   0  0  0  0  0  0  0  0  0  0  0  0
   -1.4289   -1.6500    0.0000 H   0  0  0  0  0  0  0  0  0  0  0  0
   -1.7309   -0.5230    0.0000 H   0  0  0  0  0  0  0  0  0  0  0  0
   -3.5724   -2.0625    0.0000 H   0  0  0  0  0  0  0  0  0  0  0  0
   -5.7158   -2.4750    0.0000 H   0  0  0  0  0  0  0  0  0  0  0  0
   -7.1447   -3.3000    0.0000 H   0  0  0  0  0  0  0  0  0  0  0  0
   -8.9179   -1.3253    0.0000 H   0  0  0  0  0  0  0  0  0  0  0  0
   -9.6584   -1.3253    0.0000 H   0  0  0  0  0  0  0  0  0  0  0  0
  -10.3729   -3.2122    0.0000 H   0  0  0  0  0  0  0  0  0  0  0  0
   -9.6323   -3.2122    0.0000 H   0  0  0  0  0  0  0  0  0  0  0  0
  -10.3468   -1.3253    0.0000 H   0  0  0  0  0  0  0  0  0  0  0  0
  -11.0873   -1.3253    0.0000 H   0  0  0  0  0  0  0  0  0  0  0  0
  -11.8018   -3.2122    0.0000 H   0  0  0  0  0  0  0  0  0  0  0  0
  -11.0613   -3.2122    0.0000 H   0  0  0  0  0  0  0  0  0  0  0  0
  -13.5749   -1.2375    0.0000 H   0  0  0  0  0  0  0  0  0  0  0  0
  -15.0039   -2.0625    0.0000 H   0  0  0  0  0  0  0  0  0  0  0  0
  -14.2894   -3.3000    0.0000 H   0  0  0  0  0  0  0  0  0  0  0  0
   -8.5737   -0.8250    0.0000 H   0  0  0  0  0  0  0  0  0  0  0  0
   -7.1447    0.0000    0.0000 H   0  0  0  0  0  0  0  0  0  0  0  0
   -5.0013    0.4125    0.0000 H   0  0  0  0  0  0  0  0  0  0  0  0
   -3.5724    1.2375    0.0000 H   0  0  0  0  0  0  0  0  0  0  0  0
   -2.1434    2.8875    0.0000 H   0  0  0  0  0  0  0  0  0  0  0  0
   -0.7145    3.7125    0.0000 H   0  0  0  0  0  0  0  0  0  0  0  0
    1.0587    1.7378    0.0000 H   0  0  0  0  0  0  0  0  0  0  0  0
    1.7992    1.7378    0.0000 H   0  0  0  0  0  0  0  0  0  0  0  0
    2.5137    3.6247    0.0000 H   0  0  0  0  0  0  0  0  0  0  0  0
    1.7732    3.6247    0.0000 H   0  0  0  0  0  0  0  0  0  0  0  0
    2.4876    1.7378    0.0000 H   0  0  0  0  0  0  0  0  0  0  0  0
    3.2281    1.7378    0.0000 H   0  0  0  0  0  0  0  0  0  0  0  0
    3.9426    3.6247    0.0000 H   0  0  0  0  0  0  0  0  0  0  0  0
    3.2021    3.6247    0.0000 H   0  0  0  0  0  0  0  0  0  0  0  0
    5.7158    1.6500    0.0000 H   0  0  0  0  0  0  0  0  0  0  0  0
    7.1447    2.4750    0.0000 H   0  0  0  0  0  0  0  0  0  0  0  0
    6.4302    3.7125    0.0000 H   0  0  0  0  0  0  0  0  0  0  0  0
    0.7145    1.2375    0.0000 H   0  0  0  0  0  0  0  0  0  0  0  0
   -0.7145    0.4125    0.0000 H   0  0  0  0  0  0  0  0  0  0  0  0
  1  2  1  0  0  0  0
  2  3  4  0  0  0  0
  3  4  4  0  0  0  0
  4  5  1  0  0  0  0
  5  6  1  0  0  0  0
  6  7  2  0  0  0  0
  6  8  1  0  0  0  0
  8  9  4  0  0  0  0
  9 10  4  0  0  0  0
 10 11  4  0  0  0  0
 11 12  1  0  0  0  0
 12 13  1  0  0  0  0
 13 14  1  0  0  0  0
 14 15  1  0  0  0  0
 15 16  1  0  0  0  0
 16 17  1  0  0  0  0
 17 18  1  0  0  0  0
 18 19  2  0  0  0  0
 18 20  1  0  0  0  0
 20 21  2  0  0  0  0
 11 22  4  0  0  0  0
 22 23  4  0  0  0  0
  8 23  4  0  0  0  0
  4 24  4  0  0  0  0
 24 25  4  0  0  0  0
 25 26  4  0  0  0  0
  2 26  4  0  0  0  0
 26 27  1  0  0  0  0
 27 28  1  0  0  0  0
 28 29  2  0  0  0  0
 28 30  1  0  0  0  0
 30 31  4  0  0  0  0
 31 32  4  0  0  0  0
 32 33  4  0  0  0  0
 33 34  1  0  0  0  0
 34 35  1  0  0  0  0
 35 36  1  0  0  0  0
 36 37  1  0  0  0  0
 37 38  1  0  0  0  0
 38 39  1  0  0  0  0
 39 40  1  0  0  0  0
 40 41  2  0  0  0  0
 40 42  1  0  0  0  0
 42 43  2  0  0  0  0
 33 44  4  0  0  0  0
 44 45  4  0  0  0  0
 30 45  4  0  0  0  0
  1 46  1  0  0  0  0
  1 47  1  0  0  0  0
  1 48  1  0  0  0  0
  3 49  1  0  0  0  0
  9 50  1  0  0  0  0
 10 51  1  0  0  0  0
 13 52  1  0  0  0  0
 13 53  1  0  0  0  0
 14 54  1  0  0  0  0
 14 55  1  0  0  0  0
 15 56  1  0  0  0  0
 15 57  1  0  0  0  0
 16 58  1  0  0  0  0
 16 59  1  0  0  0  0
 20 60  1  0  0  0  0
 21 61  1  0  0  0  0
 21 62  1  0  0  0  0
 22 63  1  0  0  0  0
 23 64  1  0  0  0  0
 24 65  1  0  0  0  0
 25 66  1  0  0  0  0
 31 67  1  0  0  0  0
 32 68  1  0  0  0  0
 35 69  1  0  0  0  0
 35 70  1  0  0  0  0
 36 71  1  0  0  0  0
 36 72  1  0  0  0  0
 37 73  1  0  0  0  0
 37 74  1  0  0  0  0
 38 75  1  0  0  0  0
 38 76  1  0  0  0  0
 42 77  1  0  0  0  0
 43 78  1  0  0  0  0
 43 79  1  0  0  0  0
 44 80  1  0  0  0  0
 45 81  1  0  0  0  0
M  END
>  <InChIKey>
NLGINBDFXRCWQW-UHFFFAOYSA-N

>  <UN GHS>
Non-irritant

>  <CASRN>
132900-75-5

> <Outcome>
0

>  <Index>
522

>  <StandardizerResult>
Dearomatize (ID: Dearomatize)
Clear Stereo (ID: ClearStereo)
Wedge Clean (ID: WedgeClean)
Mesomerize (ID: Mesomerize)
Tautomerize (ID: Tautomerize)
Aromatize (ID: Aromatize)
Add Explicit Hydrogens (ID: AddExplicitH)
Neutralize (ID: Neutralize)
Clean 2D (ID: Clean2D)

> <knn Distance>
3.74165749549866

> <CpId>
522

$$$$
533
  Mrv1532301301811342D          

 36 40  0  0  0  0            999 V2000
    5.0013   -6.1875    0.0000 O   0  0  0  0  0  0  0  0  0  0  0  0
    5.0013   -5.3625    0.0000 C   0  0  0  0  0  0  0  0  0  0  0  0
    4.2868   -4.9500    0.0000 C   0  0  0  0  0  0  0  0  0  0  0  0
    3.5724   -5.3625    0.0000 C   0  0  0  0  0  0  0  0  0  0  0  0
    2.8579   -4.9500    0.0000 C   0  0  0  0  0  0  0  0  0  0  0  0
    2.8579   -4.1250    0.0000 C   0  0  0  0  0  0  0  0  0  0  0  0
    3.5724   -3.7125    0.0000 C   0  0  0  0  0  0  0  0  0  0  0  0
    4.2868   -4.1250    0.0000 C   0  0  0  0  0  0  0  0  0  0  0  0
    5.0013   -3.7125    0.0000 N   0  0  0  0  0  0  0  0  0  0  0  0
    5.7158   -4.1250    0.0000 C   0  0  0  0  0  0  0  0  0  0  0  0
    6.4302   -3.7125    0.0000 C   0  0  0  0  0  0  0  0  0  0  0  0
    7.1447   -4.1250    0.0000 C   0  0  0  0  0  0  0  0  0  0  0  0
    7.8592   -3.7125    0.0000 C   0  0  0  0  0  0  0  0  0  0  0  0
    7.8592   -2.8875    0.0000 O   0  0  0  0  0  0  0  0  0  0  0  0
    8.5737   -4.1250    0.0000 C   0  0  0  0  0  0  0  0  0  0  0  0
    9.2881   -3.7125    0.0000 C   0  0  0  0  0  0  0  0  0  0  0  0
   10.0026   -4.1250    0.0000 C   0  0  0  0  0  0  0  0  0  0  0  0
   10.0026   -4.9500    0.0000 C   0  0  0  0  0  0  0  0  0  0  0  0
    9.2881   -5.3625    0.0000 C   0  0  0  0  0  0  0  0  0  0  0  0
    8.5737   -4.9500    0.0000 C   0  0  0  0  0  0  0  0  0  0  0  0
    7.8592   -5.3625    0.0000 N   0  0  0  0  0  0  0  0  0  0  0  0
    7.1447   -4.9500    0.0000 C   0  0  0  0  0  0  0  0  0  0  0  0
    6.4302   -5.3625    0.0000 C   0  0  0  0  0  0  0  0  0  0  0  0
    5.7158   -4.9500    0.0000 C   0  0  0  0  0  0  0  0  0  0  0  0
    4.2868   -6.6000    0.0000 H   0  0  0  0  0  0  0  0  0  0  0  0
    3.5724   -6.1875    0.0000 H   0  0  0  0  0  0  0  0  0  0  0  0
    2.1434   -5.3625    0.0000 H   0  0  0  0  0  0  0  0  0  0  0  0
    2.1434   -3.7125    0.0000 H   0  0  0  0  0  0  0  0  0  0  0  0
    3.5724   -2.8875    0.0000 H   0  0  0  0  0  0  0  0  0  0  0  0
    6.4302   -2.8875    0.0000 H   0  0  0  0  0  0  0  0  0  0  0  0
    8.5737   -2.4750    0.0000 H   0  0  0  0  0  0  0  0  0  0  0  0
    9.2881   -2.8875    0.0000 H   0  0  0  0  0  0  0  0  0  0  0  0
   10.7171   -3.7125    0.0000 H   0  0  0  0  0  0  0  0  0  0  0  0
   10.7171   -5.3625    0.0000 H   0  0  0  0  0  0  0  0  0  0  0  0
    9.2881   -6.1875    0.0000 H   0  0  0  0  0  0  0  0  0  0  0  0
    6.4302   -6.1875    0.0000 H   0  0  0  0  0  0  0  0  0  0  0  0
  1  2  1  0  0  0  0
  2  3  4  0  0  0  0
  3  4  4  0  0  0  0
  4  5  4  0  0  0  0
  5  6  4  0  0  0  0
  6  7  4  0  0  0  0
  7  8  4  0  0  0  0
  3  8  4  0  0  0  0
  8  9  4  0  0  0  0
  9 10  4  0  0  0  0
 10 11  4  0  0  0  0
 11 12  4  0  0  0  0
 12 13  4  0  0  0  0
 13 14  1  0  0  0  0
 13 15  4  0  0  0  0
 15 16  4  0  0  0  0
 16 17  4  0  0  0  0
 17 18  4  0  0  0  0
 18 19  4  0  0  0  0
 19 20  4  0  0  0  0
 15 20  4  0  0  0  0
 20 21  4  0  0  0  0
 21 22  4  0  0  0  0
 12 22  4  0  0  0  0
 22 23  4  0  0  0  0
 23 24  4  0  0  0  0
  2 24  4  0  0  0  0
 10 24  4  0  0  0  0
  1 25  1  0  0  0  0
  4 26  1  0  0  0  0
  5 27  1  0  0  0  0
  6 28  1  0  0  0  0
  7 29  1  0  0  0  0
 11 30  1  0  0  0  0
 14 31  1  0  0  0  0
 16 32  1  0  0  0  0
 17 33  1  0  0  0  0
 18 34  1  0  0  0  0
 19 35  1  0  0  0  0
 23 36  1  0  0  0  0
M  END
>  <InChIKey>
NRCMAYZCPIVABH-UHFFFAOYSA-N

>  <UN GHS>
Non-irritant

>  <CASRN>
1047-16-1

> <Outcome>
0

>  <Index>
533

>  <StandardizerResult>
Dearomatize (ID: Dearomatize)
Clear Stereo (ID: ClearStereo)
Wedge Clean (ID: WedgeClean)
Mesomerize (ID: Mesomerize)
Tautomerize (ID: Tautomerize)
Aromatize (ID: Aromatize)
Add Explicit Hydrogens (ID: AddExplicitH)
Neutralize (ID: Neutralize)
Clean 2D (ID: Clean2D)

> <knn Distance>
3.74165749549866

> <CpId>
533

$$$$
776
  Mrv1532301301811342D          

 13 12  0  0  0  0            999 V2000
    1.2375    2.1434    0.0000 N   0  0  0  0  0  0  0  0  0  0  0  0
    0.8250    1.4289    0.0000 C   0  0  0  0  0  0  0  0  0  0  0  0
    1.2375    0.7145    0.0000 C   0  0  0  0  0  0  0  0  0  0  0  0
    0.8250   -0.0000    0.0000 C   0  0  0  0  0  0  0  0  0  0  0  0
    1.2375   -0.7145    0.0000 O   0  0  0  0  0  0  0  0  0  0  0  0
   -0.0000   -0.0000    0.0000 O   0  0  0  0  0  0  0  0  0  0  0  0
    2.0625    2.1434    0.0000 H   0  0  0  0  0  0  0  0  0  0  0  0
    0.8250    2.8579    0.0000 H   0  0  0  0  0  0  0  0  0  0  0  0
    0.0878    1.7992    0.0000 H   0  0  0  0  0  0  0  0  0  0  0  0
    0.0878    1.0587    0.0000 H   0  0  0  0  0  0  0  0  0  0  0  0
    1.9747    0.3442    0.0000 H   0  0  0  0  0  0  0  0  0  0  0  0
    1.9747    1.0847    0.0000 H   0  0  0  0  0  0  0  0  0  0  0  0
    0.8250   -1.4290    0.0000 H   0  0  0  0  0  0  0  0  0  0  0  0
  1  2  1  0  0  0  0
  2  3  1  0  0  0  0
  3  4  1  0  0  0  0
  4  5  1  0  0  0  0
  4  6  2  0  0  0  0
  1  7  1  0  0  0  0
  1  8  1  0  0  0  0
  2  9  1  0  0  0  0
  2 10  1  0  0  0  0
  3 11  1  0  0  0  0
  3 12  1  0  0  0  0
  5 13  1  0  0  0  0
M  END
>  <InChIKey>
UCMIRNVEIXFBKS-UHFFFAOYSA-N

>  <UN GHS>
Non-irritant

>  <CASRN>
107-95-9

> <Outcome>
0

>  <Index>
776

>  <StandardizerResult>
Clear Stereo (ID: ClearStereo)
Wedge Clean (ID: WedgeClean)
Mesomerize (ID: Mesomerize)
Tautomerize (ID: Tautomerize)
Add Explicit Hydrogens (ID: AddExplicitH)
Neutralize (ID: Neutralize)
Clean 2D (ID: Clean2D)

> <knn Distance>
3.74165749549866

> <CpId>
776

$$$$
783
  Mrv1532301301811342D          

 36 40  0  0  0  0            999 V2000
    5.0013   -6.1875    0.0000 O   0  0  0  0  0  0  0  0  0  0  0  0
    5.0013   -5.3625    0.0000 C   0  0  0  0  0  0  0  0  0  0  0  0
    4.2868   -4.9500    0.0000 C   0  0  0  0  0  0  0  0  0  0  0  0
    3.5724   -5.3625    0.0000 C   0  0  0  0  0  0  0  0  0  0  0  0
    2.8579   -4.9500    0.0000 C   0  0  0  0  0  0  0  0  0  0  0  0
    2.8579   -4.1250    0.0000 C   0  0  0  0  0  0  0  0  0  0  0  0
    3.5724   -3.7125    0.0000 C   0  0  0  0  0  0  0  0  0  0  0  0
    4.2868   -4.1250    0.0000 C   0  0  0  0  0  0  0  0  0  0  0  0
    5.0013   -3.7125    0.0000 N   0  0  0  0  0  0  0  0  0  0  0  0
    5.7158   -4.1250    0.0000 C   0  0  0  0  0  0  0  0  0  0  0  0
    6.4302   -3.7125    0.0000 C   0  0  0  0  0  0  0  0  0  0  0  0
    6.4302   -2.8875    0.0000 Cl  0  0  0  0  0  0  0  0  0  0  0  0
    7.1447   -4.1250    0.0000 C   0  0  0  0  0  0  0  0  0  0  0  0
    7.8592   -3.7125    0.0000 C   0  0  0  0  0  0  0  0  0  0  0  0
    7.8592   -2.8875    0.0000 O   0  0  0  0  0  0  0  0  0  0  0  0
    8.5737   -4.1250    0.0000 C   0  0  0  0  0  0  0  0  0  0  0  0
    9.2881   -3.7125    0.0000 C   0  0  0  0  0  0  0  0  0  0  0  0
   10.0026   -4.1250    0.0000 C   0  0  0  0  0  0  0  0  0  0  0  0
   10.0026   -4.9500    0.0000 C   0  0  0  0  0  0  0  0  0  0  0  0
    9.2881   -5.3625    0.0000 C   0  0  0  0  0  0  0  0  0  0  0  0
    8.5737   -4.9500    0.0000 C   0  0  0  0  0  0  0  0  0  0  0  0
    7.8592   -5.3625    0.0000 N   0  0  0  0  0  0  0  0  0  0  0  0
    7.1447   -4.9500    0.0000 C   0  0  0  0  0  0  0  0  0  0  0  0
    6.4302   -5.3625    0.0000 C   0  0  0  0  0  0  0  0  0  0  0  0
    6.4302   -6.1875    0.0000 Cl  0  0  0  0  0  0  0  0  0  0  0  0
    5.7158   -4.9500    0.0000 C   0  0  0  0  0  0  0  0  0  0  0  0
    4.2868   -6.6000    0.0000 H   0  0  0  0  0  0  0  0  0  0  0  0
    3.5724   -6.1875    0.0000 H   0  0  0  0  0  0  0  0  0  0  0  0
    2.1434   -5.3625    0.0000 H   0  0  0  0  0  0  0  0  0  0  0  0
    2.1434   -3.7125    0.0000 H   0  0  0  0  0  0  0  0  0  0  0  0
    3.5724   -2.8875    0.0000 H   0  0  0  0  0  0  0  0  0  0  0  0
    8.5737   -2.4750    0.0000 H   0  0  0  0  0  0  0  0  0  0  0  0
    9.2881   -2.8875    0.0000 H   0  0  0  0  0  0  0  0  0  0  0  0
   10.7171   -3.7125    0.0000 H   0  0  0  0  0  0  0  0  0  0  0  0
   10.7171   -5.3625    0.0000 H   0  0  0  0  0  0  0  0  0  0  0  0
    9.2881   -6.1875    0.0000 H   0  0  0  0  0  0  0  0  0  0  0  0
  1  2  1  0  0  0  0
  2  3  4  0  0  0  0
  3  4  4  0  0  0  0
  4  5  4  0  0  0  0
  5  6  4  0  0  0  0
  6  7  4  0  0  0  0
  7  8  4  0  0  0  0
  3  8  4  0  0  0  0
  8  9  4  0  0  0  0
  9 10  4  0  0  0  0
 10 11  4  0  0  0  0
 11 12  1  0  0  0  0
 11 13  4  0  0  0  0
 13 14  4  0  0  0  0
 14 15  1  0  0  0  0
 14 16  4  0  0  0  0
 16 17  4  0  0  0  0
 17 18  4  0  0  0  0
 18 19  4  0  0  0  0
 19 20  4  0  0  0  0
 20 21  4  0  0  0  0
 16 21  4  0  0  0  0
 21 22  4  0  0  0  0
 22 23  4  0  0  0  0
 13 23  4  0  0  0  0
 23 24  4  0  0  0  0
 24 25  1  0  0  0  0
 24 26  4  0  0  0  0
  2 26  4  0  0  0  0
 10 26  4  0  0  0  0
  1 27  1  0  0  0  0
  4 28  1  0  0  0  0
  5 29  1  0  0  0  0
  6 30  1  0  0  0  0
  7 31  1  0  0  0  0
 15 32  1  0  0  0  0
 17 33  1  0  0  0  0
 18 34  1  0  0  0  0
 19 35  1  0  0  0  0
 20 36  1  0  0  0  0
M  END
>  <InChIKey>
UFLLEPHODSEMJD-UHFFFAOYSA-N

>  <UN GHS>
Non-irritant

>  <CASRN>
38720-66-0

> <Outcome>
0

>  <Index>
783

>  <StandardizerResult>
Dearomatize (ID: Dearomatize)
Clear Stereo (ID: ClearStereo)
Wedge Clean (ID: WedgeClean)
Mesomerize (ID: Mesomerize)
Tautomerize (ID: Tautomerize)
Aromatize (ID: Aromatize)
Add Explicit Hydrogens (ID: AddExplicitH)
Neutralize (ID: Neutralize)
Clean 2D (ID: Clean2D)

> <knn Distance>
3.74165749549866

> <CpId>
783

$$$$
800
  Mrv1532301301811342D          

 29 30  0  0  0  0            999 V2000
    0.6999    0.3911    0.0000 O   0  0  0  0  0  0  0  0  0  0  0  0
    1.4143   -0.0214    0.0000 C   0  0  0  0  0  0  0  0  0  0  0  0
    2.1288   -0.4339    0.0000 N   0  0  0  0  0  0  0  0  0  0  0  0
    2.1288   -1.2589    0.0000 C   0  0  0  0  0  0  0  0  0  0  0  0
    2.8433   -1.6714    0.0000 C   0  0  0  0  0  0  0  0  0  0  0  0
    2.8433   -2.4964    0.0000 C   0  0  0  0  0  0  0  0  0  0  0  0
    2.1288   -2.9089    0.0000 C   0  0  0  0  0  0  0  0  0  0  0  0
    2.1288   -3.7339    0.0000 C   0  0  0  0  0  0  0  0  0  0  0  0
    1.4143   -4.1464    0.0000 C   0  0  0  0  0  0  0  0  0  0  0  0
    1.4143   -4.9714    0.0000 C   0  0  0  0  0  0  0  0  0  0  0  0
    0.6999   -5.3839    0.0000 C   0  0  0  0  0  0  0  0  0  0  0  0
   -0.0146   -4.9714    0.0000 C   0  0  0  0  0  0  0  0  0  0  0  0
   -0.0146   -4.1464    0.0000 C   0  0  0  0  0  0  0  0  0  0  0  0
    0.6999   -3.7339    0.0000 C   0  0  0  0  0  0  0  0  0  0  0  0
   -0.7291   -5.3839    0.0000 N   0  0  0  0  0  0  0  0  0  0  0  0
   -0.7291   -6.2089    0.0000 C   0  0  0  0  0  0  0  0  0  0  0  0
   -0.7291   -7.0339    0.0000 O   0  0  0  0  0  0  0  0  0  0  0  0
    1.4143   -2.4964    0.0000 C   0  0  0  0  0  0  0  0  0  0  0  0
    1.4143   -1.6714    0.0000 C   0  0  0  0  0  0  0  0  0  0  0  0
    3.5578   -1.2589    0.0000 H   0  0  0  0  0  0  0  0  0  0  0  0
    3.5578   -2.9089    0.0000 H   0  0  0  0  0  0  0  0  0  0  0  0
    2.5822   -4.4231    0.0000 H   0  0  0  0  0  0  0  0  0  0  0  0
    2.9524   -3.7818    0.0000 H   0  0  0  0  0  0  0  0  0  0  0  0
    2.1288   -5.3839    0.0000 H   0  0  0  0  0  0  0  0  0  0  0  0
    0.6999   -6.2089    0.0000 H   0  0  0  0  0  0  0  0  0  0  0  0
   -0.7291   -3.7339    0.0000 H   0  0  0  0  0  0  0  0  0  0  0  0
    0.6999   -2.9089    0.0000 H   0  0  0  0  0  0  0  0  0  0  0  0
    0.6999   -2.0839    0.0000 H   0  0  0  0  0  0  0  0  0  0  0  0
    1.0018   -0.9569    0.0000 H   0  0  0  0  0  0  0  0  0  0  0  0
  1  2  2  0  0  0  0
  2  3  2  0  0  0  0
  3  4  1  0  0  0  0
  4  5  4  0  0  0  0
  5  6  4  0  0  0  0
  6  7  4  0  0  0  0
  7  8  1  0  0  0  0
  8  9  1  0  0  0  0
  9 10  4  0  0  0  0
 10 11  4  0  0  0  0
 11 12  4  0  0  0  0
 12 13  4  0  0  0  0
 13 14  4  0  0  0  0
  9 14  4  0  0  0  0
 12 15  1  0  0  0  0
 15 16  2  0  0  0  0
 16 17  2  0  0  0  0
  7 18  4  0  0  0  0
 18 19  4  0  0  0  0
  4 19  4  0  0  0  0
  5 20  1  0  0  0  0
  6 21  1  0  0  0  0
  8 22  1  0  0  0  0
  8 23  1  0  0  0  0
 10 24  1  0  0  0  0
 11 25  1  0  0  0  0
 13 26  1  0  0  0  0
 14 27  1  0  0  0  0
 18 28  1  0  0  0  0
 19 29  1  0  0  0  0
M  END
>  <InChIKey>
UPMLOUAZCHDJJD-UHFFFAOYSA-N

>  <UN GHS>
Non-irritant

>  <CASRN>
101-68-8

> <Outcome>
0

>  <Index>
800

>  <StandardizerResult>
Dearomatize (ID: Dearomatize)
Clear Stereo (ID: ClearStereo)
Wedge Clean (ID: WedgeClean)
Mesomerize (ID: Mesomerize)
Tautomerize (ID: Tautomerize)
Aromatize (ID: Aromatize)
Add Explicit Hydrogens (ID: AddExplicitH)
Neutralize (ID: Neutralize)
Clean 2D (ID: Clean2D)

> <knn Distance>
3.74165749549866

> <CpId>
800

$$$$
807
  Mrv1532301301811342D          

 47 48  0  0  0  0            999 V2000
    1.5507   -1.2638    0.0000 C   0  0  0  0  0  0  0  0  0  0  0  0
    0.7257   -1.2638    0.0000 C   0  0  0  0  0  0  0  0  0  0  0  0
   -0.0993   -1.2638    0.0000 C   0  0  0  0  0  0  0  0  0  0  0  0
    0.7257   -2.0888    0.0000 C   0  0  0  0  0  0  0  0  0  0  0  0
    1.4402   -2.5013    0.0000 C   0  0  0  0  0  0  0  0  0  0  0  0
    1.4402   -3.3263    0.0000 C   0  0  0  0  0  0  0  0  0  0  0  0
    0.7257   -3.7388    0.0000 C   0  0  0  0  0  0  0  0  0  0  0  0
    0.7257   -4.5638    0.0000 O   0  0  0  0  0  0  0  0  0  0  0  0
    0.0113   -4.9763    0.0000 C   0  0  0  0  0  0  0  0  0  0  0  0
    0.0113   -5.8013    0.0000 C   0  0  0  0  0  0  0  0  0  0  0  0
   -0.7032   -6.2138    0.0000 O   0  0  0  0  0  0  0  0  0  0  0  0
    0.0113   -3.3263    0.0000 C   0  0  0  0  0  0  0  0  0  0  0  0
    0.0113   -2.5013    0.0000 C   0  0  0  0  0  0  0  0  0  0  0  0
    0.7257   -0.4388    0.0000 C   0  0  0  0  0  0  0  0  0  0  0  0
    0.0113   -0.0263    0.0000 C   0  0  0  0  0  0  0  0  0  0  0  0
    0.0113    0.7987    0.0000 C   0  0  0  0  0  0  0  0  0  0  0  0
    0.7257    1.2112    0.0000 C   0  0  0  0  0  0  0  0  0  0  0  0
    0.7257    2.0362    0.0000 O   0  0  0  0  0  0  0  0  0  0  0  0
    0.0113    2.4487    0.0000 C   0  0  0  0  0  0  0  0  0  0  0  0
    0.0113    3.2737    0.0000 C   0  0  0  0  0  0  0  0  0  0  0  0
   -0.7032    3.6862    0.0000 O   0  0  0  0  0  0  0  0  0  0  0  0
    1.4402    0.7987    0.0000 C   0  0  0  0  0  0  0  0  0  0  0  0
    1.4402   -0.0263    0.0000 C   0  0  0  0  0  0  0  0  0  0  0  0
    1.5507   -2.0888    0.0000 H   0  0  0  0  0  0  0  0  0  0  0  0
    2.3757   -1.2638    0.0000 H   0  0  0  0  0  0  0  0  0  0  0  0
    1.5507   -0.4388    0.0000 H   0  0  0  0  0  0  0  0  0  0  0  0
   -0.0993   -0.4388    0.0000 H   0  0  0  0  0  0  0  0  0  0  0  0
   -0.9243   -1.2638    0.0000 H   0  0  0  0  0  0  0  0  0  0  0  0
   -0.0993   -2.0888    0.0000 H   0  0  0  0  0  0  0  0  0  0  0  0
    2.2581   -2.6090    0.0000 H   0  0  0  0  0  0  0  0  0  0  0  0
    2.1547   -3.7388    0.0000 H   0  0  0  0  0  0  0  0  0  0  0  0
   -0.4421   -4.2871    0.0000 H   0  0  0  0  0  0  0  0  0  0  0  0
   -0.8123   -4.9284    0.0000 H   0  0  0  0  0  0  0  0  0  0  0  0
    0.4646   -6.4906    0.0000 H   0  0  0  0  0  0  0  0  0  0  0  0
    0.8349   -5.8493    0.0000 H   0  0  0  0  0  0  0  0  0  0  0  0
   -1.4177   -5.8013    0.0000 H   0  0  0  0  0  0  0  0  0  0  0  0
   -0.7032   -3.7388    0.0000 H   0  0  0  0  0  0  0  0  0  0  0  0
   -0.8067   -2.6090    0.0000 H   0  0  0  0  0  0  0  0  0  0  0  0
   -0.8067    0.0814    0.0000 H   0  0  0  0  0  0  0  0  0  0  0  0
   -0.7032    1.2112    0.0000 H   0  0  0  0  0  0  0  0  0  0  0  0
   -0.8123    2.4007    0.0000 H   0  0  0  0  0  0  0  0  0  0  0  0
   -0.4421    1.7594    0.0000 H   0  0  0  0  0  0  0  0  0  0  0  0
    0.8349    3.3216    0.0000 H   0  0  0  0  0  0  0  0  0  0  0  0
    0.4646    3.9629    0.0000 H   0  0  0  0  0  0  0  0  0  0  0  0
   -0.7032    4.5112    0.0000 H   0  0  0  0  0  0  0  0  0  0  0  0
    2.1547    1.2112    0.0000 H   0  0  0  0  0  0  0  0  0  0  0  0
    2.2581    0.0814    0.0000 H   0  0  0  0  0  0  0  0  0  0  0  0
  1  2  1  0  0  0  0
  2  3  1  0  0  0  0
  2  4  1  0  0  0  0
  4  5  4  0  0  0  0
  5  6  4  0  0  0  0
  6  7  4  0  0  0  0
  7  8  1  0  0  0  0
  8  9  1  0  0  0  0
  9 10  1  0  0  0  0
 10 11  1  0  0  0  0
  7 12  4  0  0  0  0
 12 13  4  0  0  0  0
  4 13  4  0  0  0  0
  2 14  1  0  0  0  0
 14 15  4  0  0  0  0
 15 16  4  0  0  0  0
 16 17  4  0  0  0  0
 17 18  1  0  0  0  0
 18 19  1  0  0  0  0
 19 20  1  0  0  0  0
 20 21  1  0  0  0  0
 17 22  4  0  0  0  0
 22 23  4  0  0  0  0
 14 23  4  0  0  0  0
  1 24  1  0  0  0  0
  1 25  1  0  0  0  0
  1 26  1  0  0  0  0
  3 27  1  0  0  0  0
  3 28  1  0  0  0  0
  3 29  1  0  0  0  0
  5 30  1  0  0  0  0
  6 31  1  0  0  0  0
  9 32  1  0  0  0  0
  9 33  1  0  0  0  0
 10 34  1  0  0  0  0
 10 35  1  0  0  0  0
 11 36  1  0  0  0  0
 12 37  1  0  0  0  0
 13 38  1  0  0  0  0
 15 39  1  0  0  0  0
 16 40  1  0  0  0  0
 19 41  1  0  0  0  0
 19 42  1  0  0  0  0
 20 43  1  0  0  0  0
 20 44  1  0  0  0  0
 21 45  1  0  0  0  0
 22 46  1  0  0  0  0
 23 47  1  0  0  0  0
M  END
>  <InChIKey>
UUAGPGQUHZVJBQ-UHFFFAOYSA-N

>  <UN GHS>
Non-irritant

>  <CASRN>
32492-61-8

> <Outcome>
0

>  <Index>
807

>  <StandardizerResult>
Dearomatize (ID: Dearomatize)
Clear Stereo (ID: ClearStereo)
Wedge Clean (ID: WedgeClean)
Mesomerize (ID: Mesomerize)
Tautomerize (ID: Tautomerize)
Aromatize (ID: Aromatize)
Add Explicit Hydrogens (ID: AddExplicitH)
Neutralize (ID: Neutralize)
Clean 2D (ID: Clean2D)

> <knn Distance>
3.74165749549866

> <CpId>
807

$$$$
808
  Mrv1532301301811342D          

 66 66  0  0  0  0            999 V2000
   -2.1805   -5.3631    0.0000 C   0  0  0  0  0  0  0  0  0  0  0  0
   -1.4660   -4.9506    0.0000 C   0  0  0  0  0  0  0  0  0  0  0  0
   -1.4660   -4.1256    0.0000 C   0  0  0  0  0  0  0  0  0  0  0  0
   -0.7515   -3.7131    0.0000 C   0  0  0  0  0  0  0  0  0  0  0  0
   -0.7515   -2.8881    0.0000 C   0  0  0  0  0  0  0  0  0  0  0  0
   -1.4660   -2.4756    0.0000 C   0  0  0  0  0  0  0  0  0  0  0  0
   -1.4660   -1.6506    0.0000 C   0  0  0  0  0  0  0  0  0  0  0  0
   -0.0371   -2.4756    0.0000 C   0  0  0  0  0  0  0  0  0  0  0  0
   -0.0371   -1.6506    0.0000 O   0  0  0  0  0  0  0  0  0  0  0  0
    0.6774   -1.2381    0.0000 C   0  0  0  0  0  0  0  0  0  0  0  0
    1.3919   -1.6506    0.0000 O   0  0  0  0  0  0  0  0  0  0  0  0
    0.6774   -0.4131    0.0000 C   0  0  0  0  0  0  0  0  0  0  0  0
   -0.0371   -0.0006    0.0000 C   0  0  0  0  0  0  0  0  0  0  0  0
   -0.7515   -0.4131    0.0000 Br  0  0  0  0  0  0  0  0  0  0  0  0
   -0.0371    0.8244    0.0000 C   0  0  0  0  0  0  0  0  0  0  0  0
   -0.7515    1.2369    0.0000 Br  0  0  0  0  0  0  0  0  0  0  0  0
    0.6774    1.2369    0.0000 C   0  0  0  0  0  0  0  0  0  0  0  0
    0.6774    2.0619    0.0000 Br  0  0  0  0  0  0  0  0  0  0  0  0
    1.3919    0.8244    0.0000 C   0  0  0  0  0  0  0  0  0  0  0  0
    2.1064    1.2369    0.0000 Br  0  0  0  0  0  0  0  0  0  0  0  0
    1.3919   -0.0006    0.0000 C   0  0  0  0  0  0  0  0  0  0  0  0
    2.1064   -0.4131    0.0000 C   0  0  0  0  0  0  0  0  0  0  0  0
    2.1064   -1.2381    0.0000 O   0  0  0  0  0  0  0  0  0  0  0  0
    2.8208   -0.0006    0.0000 O   0  0  0  0  0  0  0  0  0  0  0  0
    3.5353   -0.4131    0.0000 C   0  0  0  0  0  0  0  0  0  0  0  0
    4.2498   -0.0006    0.0000 C   0  0  0  0  0  0  0  0  0  0  0  0
    4.2498    0.8244    0.0000 C   0  0  0  0  0  0  0  0  0  0  0  0
    4.9642    1.2369    0.0000 C   0  0  0  0  0  0  0  0  0  0  0  0
    4.9642   -0.4131    0.0000 C   0  0  0  0  0  0  0  0  0  0  0  0
    5.6787   -0.0006    0.0000 C   0  0  0  0  0  0  0  0  0  0  0  0
    6.3932   -0.4131    0.0000 C   0  0  0  0  0  0  0  0  0  0  0  0
    7.1077   -0.0006    0.0000 C   0  0  0  0  0  0  0  0  0  0  0  0
   -2.5930   -4.6487    0.0000 H   0  0  0  0  0  0  0  0  0  0  0  0
   -2.8949   -5.7756    0.0000 H   0  0  0  0  0  0  0  0  0  0  0  0
   -1.7680   -6.0776    0.0000 H   0  0  0  0  0  0  0  0  0  0  0  0
   -1.0127   -5.6399    0.0000 H   0  0  0  0  0  0  0  0  0  0  0  0
   -0.6424   -4.9986    0.0000 H   0  0  0  0  0  0  0  0  0  0  0  0
   -1.9193   -3.4364    0.0000 H   0  0  0  0  0  0  0  0  0  0  0  0
   -2.2896   -4.0777    0.0000 H   0  0  0  0  0  0  0  0  0  0  0  0
   -0.2982   -4.4024    0.0000 H   0  0  0  0  0  0  0  0  0  0  0  0
    0.0721   -3.7611    0.0000 H   0  0  0  0  0  0  0  0  0  0  0  0
   -1.4660   -3.3006    0.0000 H   0  0  0  0  0  0  0  0  0  0  0  0
   -2.2412   -2.1935    0.0000 H   0  0  0  0  0  0  0  0  0  0  0  0
   -2.2412   -2.7578    0.0000 H   0  0  0  0  0  0  0  0  0  0  0  0
   -0.6646   -1.8467    0.0000 H   0  0  0  0  0  0  0  0  0  0  0  0
   -1.0851   -0.9189    0.0000 H   0  0  0  0  0  0  0  0  0  0  0  0
   -2.0863   -1.1067    0.0000 H   0  0  0  0  0  0  0  0  0  0  0  0
    0.4163   -3.1649    0.0000 H   0  0  0  0  0  0  0  0  0  0  0  0
    0.7865   -2.5236    0.0000 H   0  0  0  0  0  0  0  0  0  0  0  0
    3.1650   -1.1504    0.0000 H   0  0  0  0  0  0  0  0  0  0  0  0
    3.9056   -1.1504    0.0000 H   0  0  0  0  0  0  0  0  0  0  0  0
    3.5353    0.4119    0.0000 H   0  0  0  0  0  0  0  0  0  0  0  0
    4.1065    1.6368    0.0000 H   0  0  0  0  0  0  0  0  0  0  0  0
    3.6178    1.3547    0.0000 H   0  0  0  0  0  0  0  0  0  0  0  0
    5.1951    0.4448    0.0000 H   0  0  0  0  0  0  0  0  0  0  0  0
    5.7885    1.2728    0.0000 H   0  0  0  0  0  0  0  0  0  0  0  0
    5.1252    2.0460    0.0000 H   0  0  0  0  0  0  0  0  0  0  0  0
    4.5940   -1.1504    0.0000 H   0  0  0  0  0  0  0  0  0  0  0  0
    5.3345   -1.1504    0.0000 H   0  0  0  0  0  0  0  0  0  0  0  0
    6.1674    0.6640    0.0000 H   0  0  0  0  0  0  0  0  0  0  0  0
    5.6787   -0.8256    0.0000 H   0  0  0  0  0  0  0  0  0  0  0  0
    6.5364   -1.2256    0.0000 H   0  0  0  0  0  0  0  0  0  0  0  0
    7.0252   -0.9434    0.0000 H   0  0  0  0  0  0  0  0  0  0  0  0
    7.8889   -0.2658    0.0000 H   0  0  0  0  0  0  0  0  0  0  0  0
    7.5509    0.6952    0.0000 H   0  0  0  0  0  0  0  0  0  0  0  0
    6.5372    0.5953    0.0000 H   0  0  0  0  0  0  0  0  0  0  0  0
  1  2  1  0  0  0  0
  2  3  1  0  0  0  0
  3  4  1  0  0  0  0
  4  5  1  0  0  0  0
  5  6  1  0  0  0  0
  6  7  1  0  0  0  0
  5  8  1  0  0  0  0
  8  9  1  0  0  0  0
  9 10  1  0  0  0  0
 10 11  2  0  0  0  0
 10 12  1  0  0  0  0
 12 13  4  0  0  0  0
 13 14  1  0  0  0  0
 13 15  4  0  0  0  0
 15 16  1  0  0  0  0
 15 17  4  0  0  0  0
 17 18  1  0  0  0  0
 17 19  4  0  0  0  0
 19 20  1  0  0  0  0
 19 21  4  0  0  0  0
 12 21  4  0  0  0  0
 21 22  1  0  0  0  0
 22 23  2  0  0  0  0
 22 24  1  0  0  0  0
 24 25  1  0  0  0  0
 25 26  1  0  0  0  0
 26 27  1  0  0  0  0
 27 28  1  0  0  0  0
 26 29  1  0  0  0  0
 29 30  1  0  0  0  0
 30 31  1  0  0  0  0
 31 32  1  0  0  0  0
  1 33  1  0  0  0  0
  1 34  1  0  0  0  0
  1 35  1  0  0  0  0
  2 36  1  0  0  0  0
  2 37  1  0  0  0  0
  3 38  1  0  0  0  0
  3 39  1  0  0  0  0
  4 40  1  0  0  0  0
  4 41  1  0  0  0  0
  5 42  1  0  0  0  0
  6 43  1  0  0  0  0
  6 44  1  0  0  0  0
  7 45  1  0  0  0  0
  7 46  1  0  0  0  0
  7 47  1  0  0  0  0
  8 48  1  0  0  0  0
  8 49  1  0  0  0  0
 25 50  1  0  0  0  0
 25 51  1  0  0  0  0
 26 52  1  0  0  0  0
 27 53  1  0  0  0  0
 27 54  1  0  0  0  0
 28 55  1  0  0  0  0
 28 56  1  0  0  0  0
 28 57  1  0  0  0  0
 29 58  1  0  0  0  0
 29 59  1  0  0  0  0
 30 60  1  0  0  0  0
 30 61  1  0  0  0  0
 31 62  1  0  0  0  0
 31 63  1  0  0  0  0
 32 64  1  0  0  0  0
 32 65  1  0  0  0  0
 32 66  1  0  0  0  0
M  END
>  <InChIKey>
UUEDINPOVKWVAZ-UHFFFAOYSA-N

>  <UN GHS>
Non-irritant

>  <CASRN>
26040-51-7

> <Outcome>
0

>  <Index>
808

>  <StandardizerResult>
Dearomatize (ID: Dearomatize)
Clear Stereo (ID: ClearStereo)
Wedge Clean (ID: WedgeClean)
Mesomerize (ID: Mesomerize)
Tautomerize (ID: Tautomerize)
Aromatize (ID: Aromatize)
Add Explicit Hydrogens (ID: AddExplicitH)
Neutralize (ID: Neutralize)
Clean 2D (ID: Clean2D)

> <knn Distance>
3.74165749549866

> <CpId>
808

$$$$
811
  Mrv1532301301811342D          

 41 40  0  0  0  0            999 V2000
    2.7278    0.7364    0.0000 C   0  0  0  0  0  0  0  0  0  0  0  0
    2.0133    0.3239    0.0000 O   0  0  0  0  0  0  0  0  0  0  0  0
    1.2989    0.7364    0.0000 Si  0  0  0  0  0  0  0  0  0  0  0  0
    0.5844    1.1489    0.0000 C   0  0  0  0  0  0  0  0  0  0  0  0
    0.5844    1.9739    0.0000 C   0  0  0  0  0  0  0  0  0  0  0  0
   -0.1301    2.3864    0.0000 C   0  0  0  0  0  0  0  0  0  0  0  0
    1.2989    2.3864    0.0000 C   0  0  0  0  0  0  0  0  0  0  0  0
    1.2989    3.2114    0.0000 C   0  0  0  0  0  0  0  0  0  0  0  0
    1.2989    4.0364    0.0000 C   0  0  0  0  0  0  0  0  0  0  0  0
    2.1239    3.2114    0.0000 C   0  0  0  0  0  0  0  0  0  0  0  0
    0.4739    3.2114    0.0000 C   0  0  0  0  0  0  0  0  0  0  0  0
    1.7114    1.4508    0.0000 O   0  0  0  0  0  0  0  0  0  0  0  0
    2.5364    1.4508    0.0000 C   0  0  0  0  0  0  0  0  0  0  0  0
    0.8864    0.0219    0.0000 O   0  0  0  0  0  0  0  0  0  0  0  0
    0.0614    0.0219    0.0000 C   0  0  0  0  0  0  0  0  0  0  0  0
    2.7818   -0.0869    0.0000 H   0  0  0  0  0  0  0  0  0  0  0  0
    3.4900    0.4206    0.0000 H   0  0  0  0  0  0  0  0  0  0  0  0
    3.3481    1.2803    0.0000 H   0  0  0  0  0  0  0  0  0  0  0  0
   -0.2392    1.1009    0.0000 H   0  0  0  0  0  0  0  0  0  0  0  0
    0.1311    0.4596    0.0000 H   0  0  0  0  0  0  0  0  0  0  0  0
   -0.1301    1.5614    0.0000 H   0  0  0  0  0  0  0  0  0  0  0  0
    0.4533    2.9697    0.0000 H   0  0  0  0  0  0  0  0  0  0  0  0
   -0.5426    3.1008    0.0000 H   0  0  0  0  0  0  0  0  0  0  0  0
   -0.9270    2.1728    0.0000 H   0  0  0  0  0  0  0  0  0  0  0  0
    1.7522    1.6971    0.0000 H   0  0  0  0  0  0  0  0  0  0  0  0
    2.1225    2.3384    0.0000 H   0  0  0  0  0  0  0  0  0  0  0  0
    2.1239    4.0364    0.0000 H   0  0  0  0  0  0  0  0  0  0  0  0
    1.2989    4.8614    0.0000 H   0  0  0  0  0  0  0  0  0  0  0  0
    0.4739    4.0364    0.0000 H   0  0  0  0  0  0  0  0  0  0  0  0
    2.7065    2.6273    0.0000 H   0  0  0  0  0  0  0  0  0  0  0  0
    2.9489    3.2107    0.0000 H   0  0  0  0  0  0  0  0  0  0  0  0
    2.7075    3.7945    0.0000 H   0  0  0  0  0  0  0  0  0  0  0  0
   -0.0970    3.8070    0.0000 H   0  0  0  0  0  0  0  0  0  0  0  0
   -0.3504    3.2464    0.0000 H   0  0  0  0  0  0  0  0  0  0  0  0
   -0.1455    2.6663    0.0000 H   0  0  0  0  0  0  0  0  0  0  0  0
    3.1066    2.0471    0.0000 H   0  0  0  0  0  0  0  0  0  0  0  0
    2.3309    2.2498    0.0000 H   0  0  0  0  0  0  0  0  0  0  0  0
    2.0341    0.7963    0.0000 H   0  0  0  0  0  0  0  0  0  0  0  0
   -0.6582    0.4254    0.0000 H   0  0  0  0  0  0  0  0  0  0  0  0
   -0.5662   -0.5137    0.0000 H   0  0  0  0  0  0  0  0  0  0  0  0
    0.3468   -0.7522    0.0000 H   0  0  0  0  0  0  0  0  0  0  0  0
  1  2  1  0  0  0  0
  2  3  1  0  0  0  0
  3  4  1  0  0  0  0
  4  5  1  0  0  0  0
  5  6  1  0  0  0  0
  5  7  1  0  0  0  0
  7  8  1  0  0  0  0
  8  9  1  0  0  0  0
  8 10  1  0  0  0  0
  8 11  1  0  0  0  0
  3 12  1  0  0  0  0
 12 13  1  0  0  0  0
  3 14  1  0  0  0  0
 14 15  1  0  0  0  0
  1 16  1  0  0  0  0
  1 17  1  0  0  0  0
  1 18  1  0  0  0  0
  4 19  1  0  0  0  0
  4 20  1  0  0  0  0
  5 21  1  0  0  0  0
  6 22  1  0  0  0  0
  6 23  1  0  0  0  0
  6 24  1  0  0  0  0
  7 25  1  0  0  0  0
  7 26  1  0  0  0  0
  9 27  1  0  0  0  0
  9 28  1  0  0  0  0
  9 29  1  0  0  0  0
 10 30  1  0  0  0  0
 10 31  1  0  0  0  0
 10 32  1  0  0  0  0
 11 33  1  0  0  0  0
 11 34  1  0  0  0  0
 11 35  1  0  0  0  0
 13 36  1  0  0  0  0
 13 37  1  0  0  0  0
 13 38  1  0  0  0  0
 15 39  1  0  0  0  0
 15 40  1  0  0  0  0
 15 41  1  0  0  0  0
M  END
>  <InChIKey>
UWSYCPWEBZRZNJ-UHFFFAOYSA-N

>  <UN GHS>
Non-irritant

>  <CASRN>
34396-03-7

> <Outcome>
0

>  <Index>
811

>  <StandardizerResult>
Clear Stereo (ID: ClearStereo)
Wedge Clean (ID: WedgeClean)
Mesomerize (ID: Mesomerize)
Tautomerize (ID: Tautomerize)
Add Explicit Hydrogens (ID: AddExplicitH)
Neutralize (ID: Neutralize)
Clean 2D (ID: Clean2D)

> <knn Distance>
3.74165749549866

> <CpId>
811

$$$$
819
  Mrv1532301301811342D          

 31 30  0  0  0  0            999 V2000
    2.8875    0.8452    0.0000 O   0  0  0  0  0  0  0  0  0  0  0  0
    3.6976    0.6893    0.0000 C   0  0  0  0  0  0  0  0  0  0  0  0
    3.9677   -0.0902    0.0000 O   0  0  0  0  0  0  0  0  0  0  0  0
    4.2377    1.3130    0.0000 C   0  0  0  0  0  0  0  0  0  0  0  0
    5.0479    1.1571    0.0000 C   0  0  0  0  0  0  0  0  0  0  0  0
    5.5879    1.7807    0.0000 C   0  0  0  0  0  0  0  0  0  0  0  0
    6.3981    1.6248    0.0000 N   0  0  0  0  0  0  0  0  0  0  0  0
    6.9382    2.2484    0.0000 C   0  0  0  0  0  0  0  0  0  0  0  0
    7.7483    2.0925    0.0000 C   0  0  0  0  0  0  0  0  0  0  0  0
    8.2884    2.7162    0.0000 O   0  0  0  0  0  0  0  0  0  0  0  0
    8.0184    1.3130    0.0000 O   0  0  0  0  0  0  0  0  0  0  0  0
    6.6681    0.8452    0.0000 C   0  0  0  0  0  0  0  0  0  0  0  0
    7.4783    0.6893    0.0000 C   0  0  0  0  0  0  0  0  0  0  0  0
    7.7483   -0.0902    0.0000 O   0  0  0  0  0  0  0  0  0  0  0  0
    8.2818    0.8764    0.0000 O   0  0  0  0  0  0  0  0  0  0  0  0
    5.3179    2.5603    0.0000 C   0  0  0  0  0  0  0  0  0  0  0  0
    4.5078    2.7162    0.0000 O   0  0  0  0  0  0  0  0  0  0  0  0
    5.8580    3.1839    0.0000 O   0  0  0  0  0  0  0  0  0  0  0  0
    2.6175    1.6248    0.0000 H   0  0  0  0  0  0  0  0  0  0  0  0
    4.3463    2.1308    0.0000 H   0  0  0  0  0  0  0  0  0  0  0  0
    3.6465    1.8884    0.0000 H   0  0  0  0  0  0  0  0  0  0  0  0
    4.9393    0.3392    0.0000 H   0  0  0  0  0  0  0  0  0  0  0  0
    5.6390    0.5816    0.0000 H   0  0  0  0  0  0  0  0  0  0  0  0
    5.8580    1.0012    0.0000 H   0  0  0  0  0  0  0  0  0  0  0  0
    7.0467    3.0663    0.0000 H   0  0  0  0  0  0  0  0  0  0  0  0
    6.3470    2.8239    0.0000 H   0  0  0  0  0  0  0  0  0  0  0  0
    9.0985    2.5603    0.0000 H   0  0  0  0  0  0  0  0  0  0  0  0
    6.2445    0.1373    0.0000 H   0  0  0  0  0  0  0  0  0  0  0  0
    6.7987    0.0306    0.0000 H   0  0  0  0  0  0  0  0  0  0  0  0
    8.3888   -0.6102    0.0000 H   0  0  0  0  0  0  0  0  0  0  0  0
    4.0725    3.4170    0.0000 H   0  0  0  0  0  0  0  0  0  0  0  0
  1  2  1  0  0  0  0
  2  3  2  0  0  0  0
  2  4  1  0  0  0  0
  4  5  1  0  0  0  0
  5  6  1  0  0  0  0
  6  7  1  0  0  0  0
  7  8  1  0  0  0  0
  8  9  1  0  0  0  0
  9 10  1  0  0  0  0
  9 11  2  0  0  0  0
  7 12  1  0  0  0  0
 12 13  1  0  0  0  0
 13 14  1  0  0  0  0
 13 15  2  0  0  0  0
  6 16  1  0  0  0  0
 16 17  1  0  0  0  0
 16 18  2  0  0  0  0
  1 19  1  0  0  0  0
  4 20  1  0  0  0  0
  4 21  1  0  0  0  0
  5 22  1  0  0  0  0
  5 23  1  0  0  0  0
  6 24  1  0  0  0  0
  8 25  1  0  0  0  0
  8 26  1  0  0  0  0
 10 27  1  0  0  0  0
 12 28  1  0  0  0  0
 12 29  1  0  0  0  0
 14 30  1  0  0  0  0
 17 31  1  0  0  0  0
M  END
>  <InChIKey>
VCVKIIDXVWEWSZ-UHFFFAOYSA-J

>  <UN GHS>
Non-irritant

>  <CASRN>
51981-21-6

> <Outcome>
0

>  <Index>
819

>  <StandardizerResult>
Clear Stereo (ID: ClearStereo)
Wedge Clean (ID: WedgeClean)
Mesomerize (ID: Mesomerize)
Tautomerize (ID: Tautomerize)
Add Explicit Hydrogens (ID: AddExplicitH)
Neutralize (ID: Neutralize)
Clean 2D (ID: Clean2D)

> <knn Distance>
3.74165749549866

> <CpId>
819

$$$$
926
  Mrv1532301301811342D          

 36 40  0  0  0  0            999 V2000
    5.0013   -6.1875    0.0000 O   0  0  0  0  0  0  0  0  0  0  0  0
    5.0013   -5.3625    0.0000 C   0  0  0  0  0  0  0  0  0  0  0  0
    4.2868   -4.9500    0.0000 C   0  0  0  0  0  0  0  0  0  0  0  0
    3.5724   -5.3625    0.0000 C   0  0  0  0  0  0  0  0  0  0  0  0
    2.8579   -4.9500    0.0000 C   0  0  0  0  0  0  0  0  0  0  0  0
    2.1434   -5.3625    0.0000 Cl  0  0  0  0  0  0  0  0  0  0  0  0
    2.8579   -4.1250    0.0000 C   0  0  0  0  0  0  0  0  0  0  0  0
    3.5724   -3.7125    0.0000 C   0  0  0  0  0  0  0  0  0  0  0  0
    4.2868   -4.1250    0.0000 C   0  0  0  0  0  0  0  0  0  0  0  0
    5.0013   -3.7125    0.0000 N   0  0  0  0  0  0  0  0  0  0  0  0
    5.7158   -4.1250    0.0000 C   0  0  0  0  0  0  0  0  0  0  0  0
    6.4302   -3.7125    0.0000 C   0  0  0  0  0  0  0  0  0  0  0  0
    7.1447   -4.1250    0.0000 C   0  0  0  0  0  0  0  0  0  0  0  0
    7.8592   -3.7125    0.0000 C   0  0  0  0  0  0  0  0  0  0  0  0
    7.8592   -2.8875    0.0000 O   0  0  0  0  0  0  0  0  0  0  0  0
    8.5737   -4.1250    0.0000 C   0  0  0  0  0  0  0  0  0  0  0  0
    9.2881   -3.7125    0.0000 C   0  0  0  0  0  0  0  0  0  0  0  0
   10.0026   -4.1250    0.0000 C   0  0  0  0  0  0  0  0  0  0  0  0
   10.7171   -3.7125    0.0000 Cl  0  0  0  0  0  0  0  0  0  0  0  0
   10.0026   -4.9500    0.0000 C   0  0  0  0  0  0  0  0  0  0  0  0
    9.2881   -5.3625    0.0000 C   0  0  0  0  0  0  0  0  0  0  0  0
    8.5737   -4.9500    0.0000 C   0  0  0  0  0  0  0  0  0  0  0  0
    7.8592   -5.3625    0.0000 N   0  0  0  0  0  0  0  0  0  0  0  0
    7.1447   -4.9500    0.0000 C   0  0  0  0  0  0  0  0  0  0  0  0
    6.4302   -5.3625    0.0000 C   0  0  0  0  0  0  0  0  0  0  0  0
    5.7158   -4.9500    0.0000 C   0  0  0  0  0  0  0  0  0  0  0  0
    4.2868   -6.6000    0.0000 H   0  0  0  0  0  0  0  0  0  0  0  0
    3.5724   -6.1875    0.0000 H   0  0  0  0  0  0  0  0  0  0  0  0
    2.1434   -3.7125    0.0000 H   0  0  0  0  0  0  0  0  0  0  0  0
    3.5724   -2.8875    0.0000 H   0  0  0  0  0  0  0  0  0  0  0  0
    6.4302   -2.8875    0.0000 H   0  0  0  0  0  0  0  0  0  0  0  0
    8.5737   -2.4750    0.0000 H   0  0  0  0  0  0  0  0  0  0  0  0
    9.2881   -2.8875    0.0000 H   0  0  0  0  0  0  0  0  0  0  0  0
   10.7171   -5.3625    0.0000 H   0  0  0  0  0  0  0  0  0  0  0  0
    9.2881   -6.1875    0.0000 H   0  0  0  0  0  0  0  0  0  0  0  0
    6.4302   -6.1875    0.0000 H   0  0  0  0  0  0  0  0  0  0  0  0
  1  2  1  0  0  0  0
  2  3  4  0  0  0  0
  3  4  4  0  0  0  0
  4  5  4  0  0  0  0
  5  6  1  0  0  0  0
  5  7  4  0  0  0  0
  7  8  4  0  0  0  0
  8  9  4  0  0  0  0
  3  9  4  0  0  0  0
  9 10  4  0  0  0  0
 10 11  4  0  0  0  0
 11 12  4  0  0  0  0
 12 13  4  0  0  0  0
 13 14  4  0  0  0  0
 14 15  1  0  0  0  0
 14 16  4  0  0  0  0
 16 17  4  0  0  0  0
 17 18  4  0  0  0  0
 18 19  1  0  0  0  0
 18 20  4  0  0  0  0
 20 21  4  0  0  0  0
 21 22  4  0  0  0  0
 16 22  4  0  0  0  0
 22 23  4  0  0  0  0
 23 24  4  0  0  0  0
 13 24  4  0  0  0  0
 24 25  4  0  0  0  0
 25 26  4  0  0  0  0
  2 26  4  0  0  0  0
 11 26  4  0  0  0  0
  1 27  1  0  0  0  0
  4 28  1  0  0  0  0
  7 29  1  0  0  0  0
  8 30  1  0  0  0  0
 12 31  1  0  0  0  0
 15 32  1  0  0  0  0
 17 33  1  0  0  0  0
 20 34  1  0  0  0  0
 21 35  1  0  0  0  0
 25 36  1  0  0  0  0
M  END
>  <InChIKey>
XPZQBGDNVOHQIS-UHFFFAOYSA-N

>  <UN GHS>
Non-irritant

>  <CASRN>
3089-17-6

> <Outcome>
0

>  <Index>
926

>  <StandardizerResult>
Dearomatize (ID: Dearomatize)
Clear Stereo (ID: ClearStereo)
Wedge Clean (ID: WedgeClean)
Mesomerize (ID: Mesomerize)
Tautomerize (ID: Tautomerize)
Aromatize (ID: Aromatize)
Add Explicit Hydrogens (ID: AddExplicitH)
Neutralize (ID: Neutralize)
Clean 2D (ID: Clean2D)

> <knn Distance>
3.74165749549866

> <CpId>
926

$$$$
947
  Mrv1532301301811342D          

 38 40  0  0  0  0            999 V2000
    2.3558    0.4097    0.0000 O   0  0  0  0  0  0  0  0  0  0  0  0
    2.7683    1.1242    0.0000 P   0  0  0  0  0  0  0  0  0  0  0  0
    3.4828    0.7117    0.0000 O   0  0  0  0  0  0  0  0  0  0  0  0
    3.4828   -0.1133    0.0000 C   0  0  0  0  0  0  0  0  0  0  0  0
    4.1973   -0.5258    0.0000 C   0  0  0  0  0  0  0  0  0  0  0  0
    4.1973   -1.3508    0.0000 C   0  0  0  0  0  0  0  0  0  0  0  0
    3.4828   -1.7633    0.0000 C   0  0  0  0  0  0  0  0  0  0  0  0
    2.7683   -1.3508    0.0000 C   0  0  0  0  0  0  0  0  0  0  0  0
    2.7683   -0.5258    0.0000 C   0  0  0  0  0  0  0  0  0  0  0  0
    2.0538    1.5367    0.0000 O   0  0  0  0  0  0  0  0  0  0  0  0
    2.0538    2.3617    0.0000 C   0  0  0  0  0  0  0  0  0  0  0  0
    1.3394    2.7742    0.0000 C   0  0  0  0  0  0  0  0  0  0  0  0
    1.3394    3.5992    0.0000 C   0  0  0  0  0  0  0  0  0  0  0  0
    2.0538    4.0117    0.0000 C   0  0  0  0  0  0  0  0  0  0  0  0
    2.7683    3.5992    0.0000 C   0  0  0  0  0  0  0  0  0  0  0  0
    2.7683    2.7742    0.0000 C   0  0  0  0  0  0  0  0  0  0  0  0
    3.1808    1.8387    0.0000 O   0  0  0  0  0  0  0  0  0  0  0  0
    4.0058    1.8387    0.0000 C   0  0  0  0  0  0  0  0  0  0  0  0
    4.4183    2.5531    0.0000 C   0  0  0  0  0  0  0  0  0  0  0  0
    5.2433    2.5531    0.0000 C   0  0  0  0  0  0  0  0  0  0  0  0
    5.6558    1.8387    0.0000 C   0  0  0  0  0  0  0  0  0  0  0  0
    5.2433    1.1242    0.0000 C   0  0  0  0  0  0  0  0  0  0  0  0
    4.4183    1.1242    0.0000 C   0  0  0  0  0  0  0  0  0  0  0  0
    4.9117   -0.1133    0.0000 H   0  0  0  0  0  0  0  0  0  0  0  0
    4.9117   -1.7633    0.0000 H   0  0  0  0  0  0  0  0  0  0  0  0
    3.4828   -2.5883    0.0000 H   0  0  0  0  0  0  0  0  0  0  0  0
    2.0538   -1.7633    0.0000 H   0  0  0  0  0  0  0  0  0  0  0  0
    2.0538   -0.1133    0.0000 H   0  0  0  0  0  0  0  0  0  0  0  0
    0.6249    2.3617    0.0000 H   0  0  0  0  0  0  0  0  0  0  0  0
    0.6249    4.0117    0.0000 H   0  0  0  0  0  0  0  0  0  0  0  0
    2.0538    4.8367    0.0000 H   0  0  0  0  0  0  0  0  0  0  0  0
    3.4828    4.0117    0.0000 H   0  0  0  0  0  0  0  0  0  0  0  0
    3.4828    2.3617    0.0000 H   0  0  0  0  0  0  0  0  0  0  0  0
    4.3352    3.3739    0.0000 H   0  0  0  0  0  0  0  0  0  0  0  0
    5.6558    3.2676    0.0000 H   0  0  0  0  0  0  0  0  0  0  0  0
    6.4808    1.8387    0.0000 H   0  0  0  0  0  0  0  0  0  0  0  0
    5.6558    0.4097    0.0000 H   0  0  0  0  0  0  0  0  0  0  0  0
    4.0058    0.4097    0.0000 H   0  0  0  0  0  0  0  0  0  0  0  0
  1  2  2  0  0  0  0
  2  3  1  0  0  0  0
  3  4  1  0  0  0  0
  4  5  4  0  0  0  0
  5  6  4  0  0  0  0
  6  7  4  0  0  0  0
  7  8  4  0  0  0  0
  8  9  4  0  0  0  0
  4  9  4  0  0  0  0
  2 10  1  0  0  0  0
 10 11  1  0  0  0  0
 11 12  4  0  0  0  0
 12 13  4  0  0  0  0
 13 14  4  0  0  0  0
 14 15  4  0  0  0  0
 15 16  4  0  0  0  0
 11 16  4  0  0  0  0
  2 17  1  0  0  0  0
 17 18  1  0  0  0  0
 18 19  4  0  0  0  0
 19 20  4  0  0  0  0
 20 21  4  0  0  0  0
 21 22  4  0  0  0  0
 22 23  4  0  0  0  0
 18 23  4  0  0  0  0
  5 24  1  0  0  0  0
  6 25  1  0  0  0  0
  7 26  1  0  0  0  0
  8 27  1  0  0  0  0
  9 28  1  0  0  0  0
 12 29  1  0  0  0  0
 13 30  1  0  0  0  0
 14 31  1  0  0  0  0
 15 32  1  0  0  0  0
 16 33  1  0  0  0  0
 19 34  1  0  0  0  0
 20 35  1  0  0  0  0
 21 36  1  0  0  0  0
 22 37  1  0  0  0  0
 23 38  1  0  0  0  0
M  END
>  <InChIKey>
XZZNDPSIHUTMOC-UHFFFAOYSA-N

>  <UN GHS>
Non-irritant

>  <CASRN>
115-86-6

> <Outcome>
0

>  <Index>
947

>  <StandardizerResult>
Dearomatize (ID: Dearomatize)
Clear Stereo (ID: ClearStereo)
Wedge Clean (ID: WedgeClean)
Mesomerize (ID: Mesomerize)
Tautomerize (ID: Tautomerize)
Aromatize (ID: Aromatize)
Add Explicit Hydrogens (ID: AddExplicitH)
Neutralize (ID: Neutralize)
Clean 2D (ID: Clean2D)

> <knn Distance>
3.74165749549866

> <CpId>
947

$$$$
988
  Mrv1532301301811342D          

 18 18  0  0  0  0            999 V2000
    0.7145    2.0625    0.0000 N   0  0  0  0  0  0  0  0  0  0  0  0
    0.7145    1.2375    0.0000 C   0  0  0  0  0  0  0  0  0  0  0  0
    1.4289    0.8250    0.0000 C   0  0  0  0  0  0  0  0  0  0  0  0
    1.4289   -0.0000    0.0000 C   0  0  0  0  0  0  0  0  0  0  0  0
    0.7145   -0.4125    0.0000 C   0  0  0  0  0  0  0  0  0  0  0  0
    0.0000   -0.0000    0.0000 C   0  0  0  0  0  0  0  0  0  0  0  0
    0.0000    0.8250    0.0000 C   0  0  0  0  0  0  0  0  0  0  0  0
   -0.7145   -0.4125    0.0000 S   0  0  0  0  0  0  0  0  0  0  0  0
   -1.4289   -0.8250    0.0000 O   0  0  0  0  0  0  0  0  0  0  0  0
   -1.1270    0.3020    0.0000 O   0  0  0  0  0  0  0  0  0  0  0  0
   -0.3020   -1.1270    0.0000 O   0  0  0  0  0  0  0  0  0  0  0  0
    1.4289    2.4750    0.0000 H   0  0  0  0  0  0  0  0  0  0  0  0
    0.0000    2.4750    0.0000 H   0  0  0  0  0  0  0  0  0  0  0  0
    2.1434    1.2375    0.0000 H   0  0  0  0  0  0  0  0  0  0  0  0
    2.1434   -0.4125    0.0000 H   0  0  0  0  0  0  0  0  0  0  0  0
    0.7145   -1.2375    0.0000 H   0  0  0  0  0  0  0  0  0  0  0  0
   -0.7145    1.2375    0.0000 H   0  0  0  0  0  0  0  0  0  0  0  0
   -2.1434   -0.4125    0.0000 H   0  0  0  0  0  0  0  0  0  0  0  0
  1  2  1  0  0  0  0
  2  3  4  0  0  0  0
  3  4  4  0  0  0  0
  4  5  4  0  0  0  0
  5  6  4  0  0  0  0
  6  7  4  0  0  0  0
  2  7  4  0  0  0  0
  6  8  1  0  0  0  0
  8  9  1  0  0  0  0
  8 10  2  0  0  0  0
  8 11  2  0  0  0  0
  1 12  1  0  0  0  0
  1 13  1  0  0  0  0
  3 14  1  0  0  0  0
  4 15  1  0  0  0  0
  5 16  1  0  0  0  0
  7 17  1  0  0  0  0
  9 18  1  0  0  0  0
M  END
>  <InChIKey>
ZAJAQTYSTDTMCU-UHFFFAOYSA-N

>  <UN GHS>
Non-irritant

>  <CASRN>
121-47-1

> <Outcome>
0

>  <Index>
988

>  <StandardizerResult>
Dearomatize (ID: Dearomatize)
Clear Stereo (ID: ClearStereo)
Wedge Clean (ID: WedgeClean)
Mesomerize (ID: Mesomerize)
Tautomerize (ID: Tautomerize)
Aromatize (ID: Aromatize)
Add Explicit Hydrogens (ID: AddExplicitH)
Neutralize (ID: Neutralize)
Clean 2D (ID: Clean2D)

> <knn Distance>
3.74165749549866

> <CpId>
988

$$$$
1000
  Mrv1532301301811342D          

 53 52  0  0  0  0            999 V2000
   -2.8194    8.1101    0.0000 Cl  0  0  0  0  0  0  0  0  0  0  0  0
   -2.1050    7.6976    0.0000 C   0  0  0  0  0  0  0  0  0  0  0  0
   -2.1050    6.8726    0.0000 C   0  0  0  0  0  0  0  0  0  0  0  0
   -1.3905    6.4601    0.0000 O   0  0  0  0  0  0  0  0  0  0  0  0
   -1.3905    5.6351    0.0000 P   0  0  0  0  0  0  0  0  0  0  0  0
   -2.2155    5.6351    0.0000 O   0  0  0  0  0  0  0  0  0  0  0  0
   -0.5655    5.6351    0.0000 O   0  0  0  0  0  0  0  0  0  0  0  0
   -0.1530    4.9207    0.0000 C   0  0  0  0  0  0  0  0  0  0  0  0
    0.6720    4.9207    0.0000 C   0  0  0  0  0  0  0  0  0  0  0  0
    1.0845    4.2062    0.0000 Cl  0  0  0  0  0  0  0  0  0  0  0  0
   -1.3905    4.8101    0.0000 O   0  0  0  0  0  0  0  0  0  0  0  0
   -0.6760    4.3976    0.0000 C   0  0  0  0  0  0  0  0  0  0  0  0
   -0.6760    3.5726    0.0000 C   0  0  0  0  0  0  0  0  0  0  0  0
   -1.5010    3.5726    0.0000 C   0  0  0  0  0  0  0  0  0  0  0  0
   -1.9135    2.8582    0.0000 Cl  0  0  0  0  0  0  0  0  0  0  0  0
    0.1490    3.5726    0.0000 C   0  0  0  0  0  0  0  0  0  0  0  0
    0.5615    2.8582    0.0000 Cl  0  0  0  0  0  0  0  0  0  0  0  0
   -0.6760    2.7476    0.0000 C   0  0  0  0  0  0  0  0  0  0  0  0
    0.0385    2.3351    0.0000 O   0  0  0  0  0  0  0  0  0  0  0  0
    0.0385    1.5101    0.0000 P   0  0  0  0  0  0  0  0  0  0  0  0
   -0.7865    1.5101    0.0000 O   0  0  0  0  0  0  0  0  0  0  0  0
    0.0385    0.6851    0.0000 O   0  0  0  0  0  0  0  0  0  0  0  0
   -0.6760    0.2726    0.0000 C   0  0  0  0  0  0  0  0  0  0  0  0
   -1.3905    0.6851    0.0000 C   0  0  0  0  0  0  0  0  0  0  0  0
   -2.1050    0.2726    0.0000 Cl  0  0  0  0  0  0  0  0  0  0  0  0
    0.8635    1.5101    0.0000 O   0  0  0  0  0  0  0  0  0  0  0  0
    1.2760    0.7957    0.0000 C   0  0  0  0  0  0  0  0  0  0  0  0
    0.8635    0.0812    0.0000 C   0  0  0  0  0  0  0  0  0  0  0  0
    0.0385    0.0812    0.0000 Cl  0  0  0  0  0  0  0  0  0  0  0  0
   -1.2813    7.7456    0.0000 H   0  0  0  0  0  0  0  0  0  0  0  0
   -1.6516    8.3869    0.0000 H   0  0  0  0  0  0  0  0  0  0  0  0
   -2.9286    6.8247    0.0000 H   0  0  0  0  0  0  0  0  0  0  0  0
   -2.5583    6.1834    0.0000 H   0  0  0  0  0  0  0  0  0  0  0  0
    0.1627    4.1585    0.0000 H   0  0  0  0  0  0  0  0  0  0  0  0
   -0.9709    5.0283    0.0000 H   0  0  0  0  0  0  0  0  0  0  0  0
    1.3613    5.3740    0.0000 H   0  0  0  0  0  0  0  0  0  0  0  0
    0.7200    5.7443    0.0000 H   0  0  0  0  0  0  0  0  0  0  0  0
   -1.4885    4.2544    0.0000 H   0  0  0  0  0  0  0  0  0  0  0  0
   -1.2063    3.7656    0.0000 H   0  0  0  0  0  0  0  0  0  0  0  0
   -2.2959    3.7935    0.0000 H   0  0  0  0  0  0  0  0  0  0  0  0
   -1.0885    2.8582    0.0000 H   0  0  0  0  0  0  0  0  0  0  0  0
    0.9483    3.7768    0.0000 H   0  0  0  0  0  0  0  0  0  0  0  0
   -0.2635    2.8582    0.0000 H   0  0  0  0  0  0  0  0  0  0  0  0
   -1.3080    2.2173    0.0000 H   0  0  0  0  0  0  0  0  0  0  0  0
   -0.6041    1.9258    0.0000 H   0  0  0  0  0  0  0  0  0  0  0  0
   -1.2508   -0.3192    0.0000 H   0  0  0  0  0  0  0  0  0  0  0  0
   -0.6880   -0.5523    0.0000 H   0  0  0  0  0  0  0  0  0  0  0  0
   -1.0202    1.4224    0.0000 H   0  0  0  0  0  0  0  0  0  0  0  0
   -1.7607    1.4224    0.0000 H   0  0  0  0  0  0  0  0  0  0  0  0
    2.0132    0.4254    0.0000 H   0  0  0  0  0  0  0  0  0  0  0  0
    2.0132    1.1659    0.0000 H   0  0  0  0  0  0  0  0  0  0  0  0
    0.9114   -0.7424    0.0000 H   0  0  0  0  0  0  0  0  0  0  0  0
    1.5527   -0.3722    0.0000 H   0  0  0  0  0  0  0  0  0  0  0  0
  1  2  1  0  0  0  0
  2  3  1  0  0  0  0
  3  4  1  0  0  0  0
  4  5  1  0  0  0  0
  5  6  2  0  0  0  0
  5  7  1  0  0  0  0
  7  8  1  0  0  0  0
  8  9  1  0  0  0  0
  9 10  1  0  0  0  0
  5 11  1  0  0  0  0
 11 12  1  0  0  0  0
 12 13  1  0  0  0  0
 13 14  1  0  0  0  0
 14 15  1  0  0  0  0
 13 16  1  0  0  0  0
 16 17  1  0  0  0  0
 13 18  1  0  0  0  0
 18 19  1  0  0  0  0
 19 20  1  0  0  0  0
 20 21  2  0  0  0  0
 20 22  1  0  0  0  0
 22 23  1  0  0  0  0
 23 24  1  0  0  0  0
 24 25  1  0  0  0  0
 20 26  1  0  0  0  0
 26 27  1  0  0  0  0
 27 28  1  0  0  0  0
 28 29  1  0  0  0  0
  2 30  1  0  0  0  0
  2 31  1  0  0  0  0
  3 32  1  0  0  0  0
  3 33  1  0  0  0  0
  8 34  1  0  0  0  0
  8 35  1  0  0  0  0
  9 36  1  0  0  0  0
  9 37  1  0  0  0  0
 12 38  1  0  0  0  0
 12 39  1  0  0  0  0
 14 40  1  0  0  0  0
 14 41  1  0  0  0  0
 16 42  1  0  0  0  0
 16 43  1  0  0  0  0
 18 44  1  0  0  0  0
 18 45  1  0  0  0  0
 23 46  1  0  0  0  0
 23 47  1  0  0  0  0
 24 48  1  0  0  0  0
 24 49  1  0  0  0  0
 27 50  1  0  0  0  0
 27 51  1  0  0  0  0
 28 52  1  0  0  0  0
 28 53  1  0  0  0  0
M  END
>  <InChIKey>
ZGHUDSLVQAGWEY-UHFFFAOYSA-N

>  <UN GHS>
Non-irritant

>  <CASRN>
38051-10-4

> <Outcome>
0

>  <Index>
1000

>  <StandardizerResult>
Clear Stereo (ID: ClearStereo)
Wedge Clean (ID: WedgeClean)
Mesomerize (ID: Mesomerize)
Tautomerize (ID: Tautomerize)
Add Explicit Hydrogens (ID: AddExplicitH)
Neutralize (ID: Neutralize)
Clean 2D (ID: Clean2D)

> <knn Distance>
3.74165749549866

> <CpId>
1000

$$$$
1138
  Mrv1532301301811342D          

 31 31  0  0  0  0            999 V2000
   -0.7130    3.6799    0.0000 C   0  0  0  0  0  0  0  0  0  0  0  0
    0.0015    3.2674    0.0000 C   0  0  0  0  0  0  0  0  0  0  0  0
    0.0015    2.4424    0.0000 C   0  0  0  0  0  0  0  0  0  0  0  0
   -0.7130    2.0299    0.0000 C   0  0  0  0  0  0  0  0  0  0  0  0
    0.7160    2.0299    0.0000 C   0  0  0  0  0  0  0  0  0  0  0  0
    1.4304    2.4424    0.0000 O   0  0  0  0  0  0  0  0  0  0  0  0
    0.7160    1.2049    0.0000 C   0  0  0  0  0  0  0  0  0  0  0  0
    1.4304    0.7924    0.0000 C   0  0  0  0  0  0  0  0  0  0  0  0
    1.4304   -0.0326    0.0000 C   0  0  0  0  0  0  0  0  0  0  0  0
    0.7160   -0.4451    0.0000 C   0  0  0  0  0  0  0  0  0  0  0  0
    0.7160   -1.2701    0.0000 O   0  0  0  0  0  0  0  0  0  0  0  0
    1.4304   -1.6826    0.0000 C   0  0  0  0  0  0  0  0  0  0  0  0
    1.4304   -2.5076    0.0000 C   0  0  0  0  0  0  0  0  0  0  0  0
    2.1449   -2.9201    0.0000 O   0  0  0  0  0  0  0  0  0  0  0  0
    0.7160   -2.9201    0.0000 O   0  0  0  0  0  0  0  0  0  0  0  0
    0.0015   -0.0326    0.0000 C   0  0  0  0  0  0  0  0  0  0  0  0
   -0.7130   -0.4451    0.0000 Cl  0  0  0  0  0  0  0  0  0  0  0  0
    0.0015    0.7924    0.0000 C   0  0  0  0  0  0  0  0  0  0  0  0
   -0.7130    1.2049    0.0000 Cl  0  0  0  0  0  0  0  0  0  0  0  0
   -0.3005    4.3944    0.0000 H   0  0  0  0  0  0  0  0  0  0  0  0
   -1.4274    4.0924    0.0000 H   0  0  0  0  0  0  0  0  0  0  0  0
   -1.1255    2.9655    0.0000 H   0  0  0  0  0  0  0  0  0  0  0  0
    0.8251    3.3154    0.0000 H   0  0  0  0  0  0  0  0  0  0  0  0
    0.4548    3.9567    0.0000 H   0  0  0  0  0  0  0  0  0  0  0  0
   -1.1663    2.7192    0.0000 H   0  0  0  0  0  0  0  0  0  0  0  0
   -1.5366    2.0779    0.0000 H   0  0  0  0  0  0  0  0  0  0  0  0
    2.1449    1.2049    0.0000 H   0  0  0  0  0  0  0  0  0  0  0  0
    2.1449   -0.4451    0.0000 H   0  0  0  0  0  0  0  0  0  0  0  0
    2.2540   -1.6346    0.0000 H   0  0  0  0  0  0  0  0  0  0  0  0
    1.8838   -0.9933    0.0000 H   0  0  0  0  0  0  0  0  0  0  0  0
    2.1449   -3.7451    0.0000 H   0  0  0  0  0  0  0  0  0  0  0  0
  1  2  1  0  0  0  0
  2  3  1  0  0  0  0
  3  4  2  0  0  0  0
  3  5  1  0  0  0  0
  5  6  2  0  0  0  0
  5  7  1  0  0  0  0
  7  8  4  0  0  0  0
  8  9  4  0  0  0  0
  9 10  4  0  0  0  0
 10 11  1  0  0  0  0
 11 12  1  0  0  0  0
 12 13  1  0  0  0  0
 13 14  1  0  0  0  0
 13 15  2  0  0  0  0
 10 16  4  0  0  0  0
 16 17  1  0  0  0  0
 16 18  4  0  0  0  0
  7 18  4  0  0  0  0
 18 19  1  0  0  0  0
  1 20  1  0  0  0  0
  1 21  1  0  0  0  0
  1 22  1  0  0  0  0
  2 23  1  0  0  0  0
  2 24  1  0  0  0  0
  4 25  1  0  0  0  0
  4 26  1  0  0  0  0
  8 27  1  0  0  0  0
  9 28  1  0  0  0  0
 12 29  1  0  0  0  0
 12 30  1  0  0  0  0
 14 31  1  0  0  0  0
M  END
>  <InChIKey>
InChI=1S/C13H12Cl2O4/c1-3-7(2)13(18)8-4-5-9(12(15)11(8)14)19-6-10(16)17/h4-5H,2-3,6H2,1H3,(H,16,17)

>  <CASRN>
58-54-8

> <Outcome>
0

>  <Index>
1138

>  <StandardizerResult>
Dearomatize (ID: Dearomatize)
Clear Stereo (ID: ClearStereo)
Wedge Clean (ID: WedgeClean)
Mesomerize (ID: Mesomerize)
Tautomerize (ID: Tautomerize)
Aromatize (ID: Aromatize)
Add Explicit Hydrogens (ID: AddExplicitH)
Neutralize (ID: Neutralize)
Clean 2D (ID: Clean2D)

> <knn Distance>
3.74165749549866

> <CpId>
1138

$$$$
1199
  Mrv1532301301811342D          

 23 23  0  0  0  0            999 V2000
   -0.7151    3.7121    0.0000 C   0  0  0  0  0  0  0  0  0  0  0  0
   -0.0007    3.2996    0.0000 C   0  0  0  0  0  0  0  0  0  0  0  0
   -0.0007    2.4746    0.0000 O   0  0  0  0  0  0  0  0  0  0  0  0
    0.7138    2.0621    0.0000 C   0  0  0  0  0  0  0  0  0  0  0  0
    1.4283    2.4746    0.0000 O   0  0  0  0  0  0  0  0  0  0  0  0
    0.7138    1.2371    0.0000 C   0  0  0  0  0  0  0  0  0  0  0  0
    1.4283    0.8246    0.0000 C   0  0  0  0  0  0  0  0  0  0  0  0
    1.4283   -0.0004    0.0000 C   0  0  0  0  0  0  0  0  0  0  0  0
    0.7138   -0.4129    0.0000 C   0  0  0  0  0  0  0  0  0  0  0  0
    0.7138   -1.2379    0.0000 N   0  0  0  0  0  0  0  0  0  0  0  0
   -0.0007   -0.0004    0.0000 C   0  0  0  0  0  0  0  0  0  0  0  0
   -0.0007    0.8246    0.0000 C   0  0  0  0  0  0  0  0  0  0  0  0
   -0.3026    4.4266    0.0000 H   0  0  0  0  0  0  0  0  0  0  0  0
   -1.4296    4.1246    0.0000 H   0  0  0  0  0  0  0  0  0  0  0  0
   -1.1276    2.9976    0.0000 H   0  0  0  0  0  0  0  0  0  0  0  0
    0.8229    3.3476    0.0000 H   0  0  0  0  0  0  0  0  0  0  0  0
    0.4527    3.9889    0.0000 H   0  0  0  0  0  0  0  0  0  0  0  0
    2.1427    1.2371    0.0000 H   0  0  0  0  0  0  0  0  0  0  0  0
    2.1427   -0.4129    0.0000 H   0  0  0  0  0  0  0  0  0  0  0  0
   -0.0007   -1.6504    0.0000 H   0  0  0  0  0  0  0  0  0  0  0  0
    1.4283   -1.6504    0.0000 H   0  0  0  0  0  0  0  0  0  0  0  0
   -0.7151   -0.4129    0.0000 H   0  0  0  0  0  0  0  0  0  0  0  0
   -0.7151    1.2371    0.0000 H   0  0  0  0  0  0  0  0  0  0  0  0
  1  2  1  0  0  0  0
  2  3  1  0  0  0  0
  3  4  1  0  0  0  0
  4  5  2  0  0  0  0
  4  6  1  0  0  0  0
  6  7  4  0  0  0  0
  7  8  4  0  0  0  0
  8  9  4  0  0  0  0
  9 10  1  0  0  0  0
  9 11  4  0  0  0  0
 11 12  4  0  0  0  0
  6 12  4  0  0  0  0
  1 13  1  0  0  0  0
  1 14  1  0  0  0  0
  1 15  1  0  0  0  0
  2 16  1  0  0  0  0
  2 17  1  0  0  0  0
  7 18  1  0  0  0  0
  8 19  1  0  0  0  0
 10 20  1  0  0  0  0
 10 21  1  0  0  0  0
 11 22  1  0  0  0  0
 12 23  1  0  0  0  0
M  END
>  <InChIKey>
InChI=1S/C9H11NO2/c1-2-12-9(11)7-3-5-8(10)6-4-7/h3-6H,2,10H2,1H3

>  <CASRN>
94-09-7

> <Outcome>
0

>  <Index>
1199

>  <StandardizerResult>
Dearomatize (ID: Dearomatize)
Clear Stereo (ID: ClearStereo)
Wedge Clean (ID: WedgeClean)
Mesomerize (ID: Mesomerize)
Tautomerize (ID: Tautomerize)
Aromatize (ID: Aromatize)
Add Explicit Hydrogens (ID: AddExplicitH)
Neutralize (ID: Neutralize)
Clean 2D (ID: Clean2D)

> <knn Distance>
3.74165749549866

> <CpId>
1199

$$$$
1212
  Mrv1532301301811342D          

 47 49  0  0  0  0            999 V2000
   -0.6406   -0.7168    0.0000 C   0  0  0  0  0  0  0  0  0  0  0  0
   -0.6406   -1.5418    0.0000 C   0  0  0  0  0  0  0  0  0  0  0  0
    0.0739   -1.9543    0.0000 C   0  0  0  0  0  0  0  0  0  0  0  0
    0.0739   -2.7793    0.0000 C   0  0  0  0  0  0  0  0  0  0  0  0
   -0.6406   -3.1918    0.0000 C   0  0  0  0  0  0  0  0  0  0  0  0
   -0.6406   -4.0168    0.0000 O   0  0  0  0  0  0  0  0  0  0  0  0
    0.0739   -4.4293    0.0000 P   0  0  0  0  0  0  0  0  0  0  0  0
   -0.3386   -5.1437    0.0000 O   0  0  0  0  0  0  0  0  0  0  0  0
    0.7884   -4.8418    0.0000 O   0  0  0  0  0  0  0  0  0  0  0  0
    0.7884   -5.6668    0.0000 C   0  0  0  0  0  0  0  0  0  0  0  0
    1.5028   -6.0793    0.0000 C   0  0  0  0  0  0  0  0  0  0  0  0
    1.5028   -6.9043    0.0000 C   0  0  0  0  0  0  0  0  0  0  0  0
    0.7884   -7.3168    0.0000 C   0  0  0  0  0  0  0  0  0  0  0  0
    0.7884   -8.1418    0.0000 C   0  0  0  0  0  0  0  0  0  0  0  0
    0.0739   -6.9043    0.0000 C   0  0  0  0  0  0  0  0  0  0  0  0
    0.0739   -6.0793    0.0000 C   0  0  0  0  0  0  0  0  0  0  0  0
    0.4864   -3.7148    0.0000 O   0  0  0  0  0  0  0  0  0  0  0  0
    1.3114   -3.7148    0.0000 C   0  0  0  0  0  0  0  0  0  0  0  0
    1.7239   -3.0003    0.0000 C   0  0  0  0  0  0  0  0  0  0  0  0
    2.5489   -3.0003    0.0000 C   0  0  0  0  0  0  0  0  0  0  0  0
    2.9614   -3.7148    0.0000 C   0  0  0  0  0  0  0  0  0  0  0  0
    3.7864   -3.7148    0.0000 C   0  0  0  0  0  0  0  0  0  0  0  0
    2.5489   -4.4293    0.0000 C   0  0  0  0  0  0  0  0  0  0  0  0
    1.7239   -4.4293    0.0000 C   0  0  0  0  0  0  0  0  0  0  0  0
   -1.3550   -2.7793    0.0000 C   0  0  0  0  0  0  0  0  0  0  0  0
   -1.3550   -1.9543    0.0000 C   0  0  0  0  0  0  0  0  0  0  0  0
    0.1844   -0.7168    0.0000 H   0  0  0  0  0  0  0  0  0  0  0  0
   -0.6406    0.1082    0.0000 H   0  0  0  0  0  0  0  0  0  0  0  0
   -1.4656   -0.7168    0.0000 H   0  0  0  0  0  0  0  0  0  0  0  0
    0.7884   -1.5418    0.0000 H   0  0  0  0  0  0  0  0  0  0  0  0
    0.7884   -3.1918    0.0000 H   0  0  0  0  0  0  0  0  0  0  0  0
    2.2173   -5.6668    0.0000 H   0  0  0  0  0  0  0  0  0  0  0  0
    2.2173   -7.3168    0.0000 H   0  0  0  0  0  0  0  0  0  0  0  0
   -0.0366   -8.1418    0.0000 H   0  0  0  0  0  0  0  0  0  0  0  0
    0.7884   -8.9668    0.0000 H   0  0  0  0  0  0  0  0  0  0  0  0
    1.6134   -8.1418    0.0000 H   0  0  0  0  0  0  0  0  0  0  0  0
   -0.6406   -7.3168    0.0000 H   0  0  0  0  0  0  0  0  0  0  0  0
   -0.6406   -5.6668    0.0000 H   0  0  0  0  0  0  0  0  0  0  0  0
    1.6408   -2.1795    0.0000 H   0  0  0  0  0  0  0  0  0  0  0  0
    2.9614   -2.2858    0.0000 H   0  0  0  0  0  0  0  0  0  0  0  0
    3.7864   -4.5398    0.0000 H   0  0  0  0  0  0  0  0  0  0  0  0
    4.6114   -3.7148    0.0000 H   0  0  0  0  0  0  0  0  0  0  0  0
    3.7864   -2.8898    0.0000 H   0  0  0  0  0  0  0  0  0  0  0  0
    2.9614   -5.1437    0.0000 H   0  0  0  0  0  0  0  0  0  0  0  0
    1.3114   -5.1437    0.0000 H   0  0  0  0  0  0  0  0  0  0  0  0
   -2.0695   -3.1918    0.0000 H   0  0  0  0  0  0  0  0  0  0  0  0
   -2.0695   -1.5418    0.0000 H   0  0  0  0  0  0  0  0  0  0  0  0
  1  2  1  0  0  0  0
  2  3  4  0  0  0  0
  3  4  4  0  0  0  0
  4  5  4  0  0  0  0
  5  6  1  0  0  0  0
  6  7  1  0  0  0  0
  7  8  2  0  0  0  0
  7  9  1  0  0  0  0
  9 10  1  0  0  0  0
 10 11  4  0  0  0  0
 11 12  4  0  0  0  0
 12 13  4  0  0  0  0
 13 14  1  0  0  0  0
 13 15  4  0  0  0  0
 15 16  4  0  0  0  0
 10 16  4  0  0  0  0
  7 17  1  0  0  0  0
 17 18  1  0  0  0  0
 18 19  4  0  0  0  0
 19 20  4  0  0  0  0
 20 21  4  0  0  0  0
 21 22  1  0  0  0  0
 21 23  4  0  0  0  0
 23 24  4  0  0  0  0
 18 24  4  0  0  0  0
  5 25  4  0  0  0  0
 25 26  4  0  0  0  0
  2 26  4  0  0  0  0
  1 27  1  0  0  0  0
  1 28  1  0  0  0  0
  1 29  1  0  0  0  0
  3 30  1  0  0  0  0
  4 31  1  0  0  0  0
 11 32  1  0  0  0  0
 12 33  1  0  0  0  0
 14 34  1  0  0  0  0
 14 35  1  0  0  0  0
 14 36  1  0  0  0  0
 15 37  1  0  0  0  0
 16 38  1  0  0  0  0
 19 39  1  0  0  0  0
 20 40  1  0  0  0  0
 22 41  1  0  0  0  0
 22 42  1  0  0  0  0
 22 43  1  0  0  0  0
 23 44  1  0  0  0  0
 24 45  1  0  0  0  0
 25 46  1  0  0  0  0
 26 47  1  0  0  0  0
M  END
>  <InChIKey>
InChI=1S/C21H21O4P/c1-16-4-10-19(11-5-16)23-26(22,24-20-12-6-17(2)7-13-20)25-21-14-8-18(3)9-15-21/h4-15H,1-3H3

>  <UN GHS>
Non-irritant

>  <CASRN>
1330-78-5

> <Outcome>
0

>  <Index>
1212

>  <StandardizerResult>
Dearomatize (ID: Dearomatize)
Clear Stereo (ID: ClearStereo)
Wedge Clean (ID: WedgeClean)
Mesomerize (ID: Mesomerize)
Tautomerize (ID: Tautomerize)
Aromatize (ID: Aromatize)
Add Explicit Hydrogens (ID: AddExplicitH)
Neutralize (ID: Neutralize)
Clean 2D (ID: Clean2D)

> <knn Distance>
3.74165749549866

> <CpId>
1212

$$$$
1233
  Mrv1532301301811342D          

 30 30  0  0  0  0            999 V2000
   -0.7128    3.7675    0.0000 C   0  0  0  0  0  0  0  0  0  0  0  0
    0.0017    3.3550    0.0000 C   0  0  0  0  0  0  0  0  0  0  0  0
    0.7161    3.7675    0.0000 N   0  0  0  0  0  0  0  0  0  0  0  0
    0.0017    2.5300    0.0000 C   0  0  0  0  0  0  0  0  0  0  0  0
   -0.7128    2.1175    0.0000 O   0  0  0  0  0  0  0  0  0  0  0  0
    0.7161    2.1175    0.0000 N   0  0  0  0  0  0  0  0  0  0  0  0
    0.7161    1.2925    0.0000 C   0  0  0  0  0  0  0  0  0  0  0  0
    1.4306    0.8800    0.0000 C   0  0  0  0  0  0  0  0  0  0  0  0
    2.1451    1.2925    0.0000 C   0  0  0  0  0  0  0  0  0  0  0  0
    1.4306    0.0550    0.0000 C   0  0  0  0  0  0  0  0  0  0  0  0
    0.7161   -0.3575    0.0000 C   0  0  0  0  0  0  0  0  0  0  0  0
    0.0017    0.0550    0.0000 C   0  0  0  0  0  0  0  0  0  0  0  0
    0.0017    0.8800    0.0000 C   0  0  0  0  0  0  0  0  0  0  0  0
   -0.7128    1.2925    0.0000 C   0  0  0  0  0  0  0  0  0  0  0  0
   -0.3003    4.4820    0.0000 H   0  0  0  0  0  0  0  0  0  0  0  0
   -1.4273    4.1800    0.0000 H   0  0  0  0  0  0  0  0  0  0  0  0
   -1.1253    3.0530    0.0000 H   0  0  0  0  0  0  0  0  0  0  0  0
    0.0017    4.1800    0.0000 H   0  0  0  0  0  0  0  0  0  0  0  0
    1.4054    3.3142    0.0000 H   0  0  0  0  0  0  0  0  0  0  0  0
    1.4054    4.2208    0.0000 H   0  0  0  0  0  0  0  0  0  0  0  0
    1.4306    2.5300    0.0000 H   0  0  0  0  0  0  0  0  0  0  0  0
    2.5576    0.5780    0.0000 H   0  0  0  0  0  0  0  0  0  0  0  0
    2.8596    1.7050    0.0000 H   0  0  0  0  0  0  0  0  0  0  0  0
    1.7326    2.0070    0.0000 H   0  0  0  0  0  0  0  0  0  0  0  0
    2.1451   -0.3575    0.0000 H   0  0  0  0  0  0  0  0  0  0  0  0
    0.7161   -1.1825    0.0000 H   0  0  0  0  0  0  0  0  0  0  0  0
   -0.7128   -0.3575    0.0000 H   0  0  0  0  0  0  0  0  0  0  0  0
   -1.4273    1.7050    0.0000 H   0  0  0  0  0  0  0  0  0  0  0  0
   -1.4273    0.8800    0.0000 H   0  0  0  0  0  0  0  0  0  0  0  0
   -0.7128    0.4675    0.0000 H   0  0  0  0  0  0  0  0  0  0  0  0
  1  2  1  0  0  0  0
  2  3  1  0  0  0  0
  2  4  1  0  0  0  0
  4  5  2  0  0  0  0
  4  6  1  0  0  0  0
  6  7  1  0  0  0  0
  7  8  4  0  0  0  0
  8  9  1  0  0  0  0
  8 10  4  0  0  0  0
 10 11  4  0  0  0  0
 11 12  4  0  0  0  0
 12 13  4  0  0  0  0
  7 13  4  0  0  0  0
 13 14  1  0  0  0  0
  1 15  1  0  0  0  0
  1 16  1  0  0  0  0
  1 17  1  0  0  0  0
  2 18  1  0  0  0  0
  3 19  1  0  0  0  0
  3 20  1  0  0  0  0
  6 21  1  0  0  0  0
  9 22  1  0  0  0  0
  9 23  1  0  0  0  0
  9 24  1  0  0  0  0
 10 25  1  0  0  0  0
 11 26  1  0  0  0  0
 12 27  1  0  0  0  0
 14 28  1  0  0  0  0
 14 29  1  0  0  0  0
 14 30  1  0  0  0  0
M  END
>  <InChIKey>
InChI=1S/C11H16N2O/c1-7-5-4-6-8(2)10(7)13-11(14)9(3)12/h4-6,9H,12H2,1-3H3,(H,13,14)

>  <CASRN>
41708-72-9

> <Outcome>
0

>  <Index>
1233

>  <StandardizerResult>
Dearomatize (ID: Dearomatize)
Clear Stereo (ID: ClearStereo)
Wedge Clean (ID: WedgeClean)
Mesomerize (ID: Mesomerize)
Tautomerize (ID: Tautomerize)
Aromatize (ID: Aromatize)
Add Explicit Hydrogens (ID: AddExplicitH)
Neutralize (ID: Neutralize)
Clean 2D (ID: Clean2D)

> <knn Distance>
3.74165749549866

> <CpId>
1233

$$$$
1391
  Mrv1532301301811342D          

 62 62  0  0  0  0            999 V2000
   -3.0092   -2.9033    0.0000 C   0  0  0  0  0  0  0  0  0  0  0  0
   -2.8377   -2.0963    0.0000 C   0  0  0  0  0  0  0  0  0  0  0  0
   -2.0530   -1.8414    0.0000 C   0  0  0  0  0  0  0  0  0  0  0  0
   -1.8815   -1.0344    0.0000 C   0  0  0  0  0  0  0  0  0  0  0  0
   -1.0969   -0.7795    0.0000 C   0  0  0  0  0  0  0  0  0  0  0  0
   -0.9254    0.0275    0.0000 C   0  0  0  0  0  0  0  0  0  0  0  0
   -0.1184   -0.1440    0.0000 C   0  0  0  0  0  0  0  0  0  0  0  0
   -1.7323    0.1990    0.0000 O   0  0  0  0  0  0  0  0  0  0  0  0
   -0.7538    0.8345    0.0000 C   0  0  0  0  0  0  0  0  0  0  0  0
    0.0308    1.0894    0.0000 C   0  0  0  0  0  0  0  0  0  0  0  0
    0.2023    1.8964    0.0000 C   0  0  0  0  0  0  0  0  0  0  0  0
   -0.3497    2.5095    0.0000 C   0  0  0  0  0  0  0  0  0  0  0  0
   -1.1702    2.4232    0.0000 O   0  0  0  0  0  0  0  0  0  0  0  0
    0.0628    3.2239    0.0000 C   0  0  0  0  0  0  0  0  0  0  0  0
    0.8698    3.0524    0.0000 C   0  0  0  0  0  0  0  0  0  0  0  0
    1.4829    3.6044    0.0000 O   0  0  0  0  0  0  0  0  0  0  0  0
    0.9560    2.2319    0.0000 C   0  0  0  0  0  0  0  0  0  0  0  0
    1.6705    1.8194    0.0000 C   0  0  0  0  0  0  0  0  0  0  0  0
    2.3849    2.2319    0.0000 C   0  0  0  0  0  0  0  0  0  0  0  0
    3.0994    1.8194    0.0000 C   0  0  0  0  0  0  0  0  0  0  0  0
    3.8139    2.2319    0.0000 C   0  0  0  0  0  0  0  0  0  0  0  0
    4.5284    1.8194    0.0000 C   0  0  0  0  0  0  0  0  0  0  0  0
    5.2428    2.2319    0.0000 C   0  0  0  0  0  0  0  0  0  0  0  0
    5.9573    1.8194    0.0000 C   0  0  0  0  0  0  0  0  0  0  0  0
    6.6718    2.2319    0.0000 O   0  0  0  0  0  0  0  0  0  0  0  0
    5.9573    0.9944    0.0000 O   0  0  0  0  0  0  0  0  0  0  0  0
   -3.8162   -2.7318    0.0000 H   0  0  0  0  0  0  0  0  0  0  0  0
   -3.1807   -3.7103    0.0000 H   0  0  0  0  0  0  0  0  0  0  0  0
   -2.2022   -3.0748    0.0000 H   0  0  0  0  0  0  0  0  0  0  0  0
   -3.1378   -1.3279    0.0000 H   0  0  0  0  0  0  0  0  0  0  0  0
   -3.6333   -1.8782    0.0000 H   0  0  0  0  0  0  0  0  0  0  0  0
   -1.7529   -2.6099    0.0000 H   0  0  0  0  0  0  0  0  0  0  0  0
   -1.2574   -2.0596    0.0000 H   0  0  0  0  0  0  0  0  0  0  0  0
   -2.1816   -0.2660    0.0000 H   0  0  0  0  0  0  0  0  0  0  0  0
   -2.6771   -0.8163    0.0000 H   0  0  0  0  0  0  0  0  0  0  0  0
   -0.7968   -1.5480    0.0000 H   0  0  0  0  0  0  0  0  0  0  0  0
   -0.3012   -0.9976    0.0000 H   0  0  0  0  0  0  0  0  0  0  0  0
    0.5610   -0.6121    0.0000 H   0  0  0  0  0  0  0  0  0  0  0  0
    0.5739    0.3047    0.0000 H   0  0  0  0  0  0  0  0  0  0  0  0
   -0.2684    0.6672    0.0000 H   0  0  0  0  0  0  0  0  0  0  0  0
   -1.9734    0.9880    0.0000 H   0  0  0  0  0  0  0  0  0  0  0  0
   -1.3669    1.3865    0.0000 H   0  0  0  0  0  0  0  0  0  0  0  0
    0.8397    1.2517    0.0000 H   0  0  0  0  0  0  0  0  0  0  0  0
   -0.5946    1.6828    0.0000 H   0  0  0  0  0  0  0  0  0  0  0  0
   -0.7990    3.2014    0.0000 H   0  0  0  0  0  0  0  0  0  0  0  0
   -1.9904    2.3344    0.0000 H   0  0  0  0  0  0  0  0  0  0  0  0
    0.4341    3.9606    0.0000 H   0  0  0  0  0  0  0  0  0  0  0  0
   -0.1681    4.0160    0.0000 H   0  0  0  0  0  0  0  0  0  0  0  0
    1.6400    2.7568    0.0000 H   0  0  0  0  0  0  0  0  0  0  0  0
    1.7480    4.3857    0.0000 H   0  0  0  0  0  0  0  0  0  0  0  0
    0.9128    1.4081    0.0000 H   0  0  0  0  0  0  0  0  0  0  0  0
    1.8007    1.0048    0.0000 H   0  0  0  0  0  0  0  0  0  0  0  0
    2.2970    1.2827    0.0000 H   0  0  0  0  0  0  0  0  0  0  0  0
    2.8292    2.9271    0.0000 H   0  0  0  0  0  0  0  0  0  0  0  0
    3.5352    1.1189    0.0000 H   0  0  0  0  0  0  0  0  0  0  0  0
    4.1841    2.9692    0.0000 H   0  0  0  0  0  0  0  0  0  0  0  0
    3.4436    2.9692    0.0000 H   0  0  0  0  0  0  0  0  0  0  0  0
    4.1581    1.0822    0.0000 H   0  0  0  0  0  0  0  0  0  0  0  0
    4.8986    1.0822    0.0000 H   0  0  0  0  0  0  0  0  0  0  0  0
    5.6131    2.9692    0.0000 H   0  0  0  0  0  0  0  0  0  0  0  0
    4.8726    2.9692    0.0000 H   0  0  0  0  0  0  0  0  0  0  0  0
    7.3862    1.8194    0.0000 H   0  0  0  0  0  0  0  0  0  0  0  0
  1  2  1  0  0  0  0
  2  3  1  0  0  0  0
  3  4  1  0  0  0  0
  4  5  1  0  0  0  0
  5  6  1  0  0  0  0
  6  7  1  0  0  0  0
  6  8  1  0  0  0  0
  9  6  1  4  0  0  0
  9 10  2  0  0  0  0
 10 11  1  0  0  0  0
 11 12  1  0  0  0  0
 12 13  1  0  0  0  0
 12 14  1  0  0  0  0
 14 15  1  0  0  0  0
 15 16  1  0  0  0  0
 15 17  1  0  0  0  0
 11 17  1  0  0  0  0
 17 18  1  0  0  0  0
 19 18  1  4  0  0  0
 19 20  2  0  0  0  0
 20 21  1  0  0  0  0
 21 22  1  0  0  0  0
 22 23  1  0  0  0  0
 23 24  1  0  0  0  0
 24 25  1  0  0  0  0
 24 26  2  0  0  0  0
  1 27  1  0  0  0  0
  1 28  1  0  0  0  0
  1 29  1  0  0  0  0
  2 30  1  0  0  0  0
  2 31  1  0  0  0  0
  3 32  1  0  0  0  0
  3 33  1  0  0  0  0
  4 34  1  0  0  0  0
  4 35  1  0  0  0  0
  5 36  1  0  0  0  0
  5 37  1  0  0  0  0
  7 38  1  0  0  0  0
  7 39  1  0  0  0  0
  7 40  1  0  0  0  0
  8 41  1  0  0  0  0
  9 42  1  0  0  0  0
 10 43  1  0  0  0  0
 11 44  1  0  0  0  0
 12 45  1  0  0  0  0
 13 46  1  0  0  0  0
 14 47  1  0  0  0  0
 14 48  1  0  0  0  0
 15 49  1  0  0  0  0
 16 50  1  0  0  0  0
 17 51  1  0  0  0  0
 18 52  1  0  0  0  0
 18 53  1  0  0  0  0
 19 54  1  0  0  0  0
 20 55  1  0  0  0  0
 21 56  1  0  0  0  0
 21 57  1  0  0  0  0
 22 58  1  0  0  0  0
 22 59  1  0  0  0  0
 23 60  1  0  0  0  0
 23 61  1  0  0  0  0
 25 62  1  0  0  0  0
M  END
>  <InChIKey>
InChI=1S/C21H36O5/c1-3-4-9-13-21(2,26)14-12-17-16(18(22)15-19(17)23)10-7-5-6-8-11-20(24)25/h5,7,12,14,16-19,22-23,26H,3-4,6,8-11,13,15H2,1-2H3,(H,24,25)

>  <CASRN>
35700-23-3

> <Outcome>
0

>  <Index>
1391

>  <StandardizerResult>
Clear Stereo (ID: ClearStereo)
Wedge Clean (ID: WedgeClean)
Mesomerize (ID: Mesomerize)
Tautomerize (ID: Tautomerize)
Add Explicit Hydrogens (ID: AddExplicitH)
Neutralize (ID: Neutralize)
Clean 2D (ID: Clean2D)

> <knn Distance>
3.74165749549866

> <CpId>
1391

$$$$
1392
  Mrv1532301301811342D          

 24 24  0  0  0  0            999 V2000
   -0.0404    3.2774    0.0000 C   0  0  0  0  0  0  0  0  0  0  0  0
   -0.0404    2.4524    0.0000 C   0  0  0  0  0  0  0  0  0  0  0  0
   -0.7549    2.0399    0.0000 N   0  0  0  0  0  0  0  0  0  0  0  0
    0.6741    2.0399    0.0000 C   0  0  0  0  0  0  0  0  0  0  0  0
    1.3885    2.4524    0.0000 O   0  0  0  0  0  0  0  0  0  0  0  0
    0.6741    1.2149    0.0000 C   0  0  0  0  0  0  0  0  0  0  0  0
    1.3885    0.8024    0.0000 C   0  0  0  0  0  0  0  0  0  0  0  0
    1.3885   -0.0226    0.0000 C   0  0  0  0  0  0  0  0  0  0  0  0
    0.6741   -0.4351    0.0000 C   0  0  0  0  0  0  0  0  0  0  0  0
   -0.0404   -0.0226    0.0000 C   0  0  0  0  0  0  0  0  0  0  0  0
   -0.0404    0.8024    0.0000 C   0  0  0  0  0  0  0  0  0  0  0  0
    0.7846    3.2774    0.0000 H   0  0  0  0  0  0  0  0  0  0  0  0
   -0.0404    4.1024    0.0000 H   0  0  0  0  0  0  0  0  0  0  0  0
   -0.8654    3.2774    0.0000 H   0  0  0  0  0  0  0  0  0  0  0  0
   -0.7549    2.8649    0.0000 H   0  0  0  0  0  0  0  0  0  0  0  0
   -1.4921    1.6696    0.0000 H   0  0  0  0  0  0  0  0  0  0  0  0
   -0.7069    1.2163    0.0000 H   0  0  0  0  0  0  0  0  0  0  0  0
    0.6741    2.8649    0.0000 H   0  0  0  0  0  0  0  0  0  0  0  0
    2.2135    2.4524    0.0000 H   0  0  0  0  0  0  0  0  0  0  0  0
    2.1030    1.2149    0.0000 H   0  0  0  0  0  0  0  0  0  0  0  0
    2.1030   -0.4351    0.0000 H   0  0  0  0  0  0  0  0  0  0  0  0
    0.6741   -1.2601    0.0000 H   0  0  0  0  0  0  0  0  0  0  0  0
   -0.7549   -0.4351    0.0000 H   0  0  0  0  0  0  0  0  0  0  0  0
   -0.0272    1.6273    0.0000 H   0  0  0  0  0  0  0  0  0  0  0  0
  1  2  1  0  0  0  0
  2  3  1  0  0  0  0
  2  4  1  0  0  0  0
  4  5  1  0  0  0  0
  4  6  1  0  0  0  0
  6  7  4  0  0  0  0
  7  8  4  0  0  0  0
  8  9  4  0  0  0  0
  9 10  4  0  0  0  0
 10 11  4  0  0  0  0
  6 11  4  0  0  0  0
  1 12  1  0  0  0  0
  1 13  1  0  0  0  0
  1 14  1  0  0  0  0
  2 15  1  0  0  0  0
  3 16  1  0  0  0  0
  3 17  1  0  0  0  0
  4 18  1  0  0  0  0
  5 19  1  0  0  0  0
  7 20  1  0  0  0  0
  8 21  1  0  0  0  0
  9 22  1  0  0  0  0
 10 23  1  0  0  0  0
 11 24  1  0  0  0  0
M  END
>  <InChIKey>
InChI=1S/C9H13NO/c1-7(10)9(11)8-5-3-2-4-6-8/h2-7,9,11H,10H2,1H3

>  <CASRN>
14838-15-4

> <Outcome>
0

>  <Index>
1392

>  <StandardizerResult>
Dearomatize (ID: Dearomatize)
Clear Stereo (ID: ClearStereo)
Wedge Clean (ID: WedgeClean)
Mesomerize (ID: Mesomerize)
Tautomerize (ID: Tautomerize)
Aromatize (ID: Aromatize)
Add Explicit Hydrogens (ID: AddExplicitH)
Neutralize (ID: Neutralize)
Clean 2D (ID: Clean2D)

> <knn Distance>
3.74165749549866

> <CpId>
1392

$$$$
1402
  Mrv1532301301811342D          

 42 45  0  0  0  0            999 V2000
    3.5173   -3.3160    0.0000 C   0  0  0  0  0  0  0  0  0  0  0  0
    3.8772   -2.5737    0.0000 C   0  0  0  0  0  0  0  0  0  0  0  0
    4.4090   -3.2044    0.0000 C   0  0  0  0  0  0  0  0  0  0  0  0
    5.2211   -3.0592    0.0000 C   0  0  0  0  0  0  0  0  0  0  0  0
    5.5014   -2.2832    0.0000 C   0  0  0  0  0  0  0  0  0  0  0  0
    4.9696   -1.6525    0.0000 C   0  0  0  0  0  0  0  0  0  0  0  0
    5.2499   -0.8766    0.0000 C   0  0  0  0  0  0  0  0  0  0  0  0
    6.0620   -0.7314    0.0000 C   0  0  0  0  0  0  0  0  0  0  0  0
    6.5939   -1.3621    0.0000 C   0  0  0  0  0  0  0  0  0  0  0  0
    7.4060   -1.2169    0.0000 C   0  0  0  0  0  0  0  0  0  0  0  0
    7.9378   -1.8476    0.0000 C   0  0  0  0  0  0  0  0  0  0  0  0
    8.7499   -1.7024    0.0000 O   0  0  0  0  0  0  0  0  0  0  0  0
    7.6575   -2.6235    0.0000 C   0  0  0  0  0  0  0  0  0  0  0  0
    6.8454   -2.7687    0.0000 C   0  0  0  0  0  0  0  0  0  0  0  0
    6.3136   -2.1380    0.0000 C   0  0  0  0  0  0  0  0  0  0  0  0
    4.1575   -1.7977    0.0000 C   0  0  0  0  0  0  0  0  0  0  0  0
    3.5062   -1.2914    0.0000 C   0  0  0  0  0  0  0  0  0  0  0  0
    2.8233   -1.7544    0.0000 C   0  0  0  0  0  0  0  0  0  0  0  0
    3.0526   -2.5469    0.0000 C   0  0  0  0  0  0  0  0  0  0  0  0
    2.5463   -3.1982    0.0000 O   0  0  0  0  0  0  0  0  0  0  0  0
    2.6932   -3.3540    0.0000 H   0  0  0  0  0  0  0  0  0  0  0  0
    3.1575   -4.0584    0.0000 H   0  0  0  0  0  0  0  0  0  0  0  0
    3.9980   -3.9865    0.0000 H   0  0  0  0  0  0  0  0  0  0  0  0
    4.8964   -3.8700    0.0000 H   0  0  0  0  0  0  0  0  0  0  0  0
    4.6893   -2.4284    0.0000 H   0  0  0  0  0  0  0  0  0  0  0  0
    5.8432   -3.6011    0.0000 H   0  0  0  0  0  0  0  0  0  0  0  0
    6.0461   -3.0682    0.0000 H   0  0  0  0  0  0  0  0  0  0  0  0
    5.7817   -1.5073    0.0000 H   0  0  0  0  0  0  0  0  0  0  0  0
    4.4378   -1.0218    0.0000 H   0  0  0  0  0  0  0  0  0  0  0  0
    5.3912   -0.0638    0.0000 H   0  0  0  0  0  0  0  0  0  0  0  0
    4.8357   -0.1631    0.0000 H   0  0  0  0  0  0  0  0  0  0  0  0
    6.8265   -0.4212    0.0000 H   0  0  0  0  0  0  0  0  0  0  0  0
    6.4341    0.0050    0.0000 H   0  0  0  0  0  0  0  0  0  0  0  0
    7.6863   -0.4410    0.0000 H   0  0  0  0  0  0  0  0  0  0  0  0
    9.2817   -2.3331    0.0000 H   0  0  0  0  0  0  0  0  0  0  0  0
    8.1893   -3.2542    0.0000 H   0  0  0  0  0  0  0  0  0  0  0  0
    7.0636   -3.5643    0.0000 H   0  0  0  0  0  0  0  0  0  0  0  0
    3.3650   -2.0271    0.0000 H   0  0  0  0  0  0  0  0  0  0  0  0
    3.4610   -0.4676    0.0000 H   0  0  0  0  0  0  0  0  0  0  0  0
    2.9014   -0.7302    0.0000 H   0  0  0  0  0  0  0  0  0  0  0  0
    2.2698   -1.1426    0.0000 H   0  0  0  0  0  0  0  0  0  0  0  0
    2.0066   -1.8712    0.0000 H   0  0  0  0  0  0  0  0  0  0  0  0
  1  2  1  0  0  0  0
  2  3  1  0  0  0  0
  3  4  1  0  0  0  0
  4  5  1  0  0  0  0
  5  6  1  0  0  0  0
  6  7  1  0  0  0  0
  7  8  1  0  0  0  0
  8  9  1  0  0  0  0
  9 10  4  0  0  0  0
 10 11  4  0  0  0  0
 11 12  1  0  0  0  0
 11 13  4  0  0  0  0
 13 14  4  0  0  0  0
 14 15  4  0  0  0  0
  5 15  1  0  0  0  0
  9 15  4  0  0  0  0
  6 16  1  0  0  0  0
  2 16  1  0  0  0  0
 16 17  1  0  0  0  0
 17 18  1  0  0  0  0
 18 19  1  0  0  0  0
  2 19  1  0  0  0  0
 19 20  2  0  0  0  0
  1 21  1  0  0  0  0
  1 22  1  0  0  0  0
  1 23  1  0  0  0  0
  3 24  1  0  0  0  0
  3 25  1  0  0  0  0
  4 26  1  0  0  0  0
  4 27  1  0  0  0  0
  5 28  1  0  0  0  0
  6 29  1  0  0  0  0
  7 30  1  0  0  0  0
  7 31  1  0  0  0  0
  8 32  1  0  0  0  0
  8 33  1  0  0  0  0
 10 34  1  0  0  0  0
 12 35  1  0  0  0  0
 13 36  1  0  0  0  0
 14 37  1  0  0  0  0
 16 38  1  0  0  0  0
 17 39  1  0  0  0  0
 17 40  1  0  0  0  0
 18 41  1  0  0  0  0
 18 42  1  0  0  0  0
M  END
>  <InChIKey>
InChI=1S/C18H22O2/c1-18-9-8-14-13-5-3-12(19)10-11(13)2-4-15(14)16(18)6-7-17(18)20/h3,5,10,14-16,19H,2,4,6-9H2,1H3

>  <CASRN>
53-16-7

> <Outcome>
0

>  <Index>
1402

>  <StandardizerResult>
Dearomatize (ID: Dearomatize)
Clear Stereo (ID: ClearStereo)
Wedge Clean (ID: WedgeClean)
Mesomerize (ID: Mesomerize)
Tautomerize (ID: Tautomerize)
Aromatize (ID: Aromatize)
Add Explicit Hydrogens (ID: AddExplicitH)
Neutralize (ID: Neutralize)
Clean 2D (ID: Clean2D)

> <knn Distance>
3.74165749549866

> <CpId>
1402

$$$$
1411
  Mrv1532301301811342D          

 25 25  0  0  0  0            999 V2000
    2.1234   -3.6985    0.0000 C   0  0  0  0  0  0  0  0  0  0  0  0
    2.1234   -2.8735    0.0000 N   0  0  0  0  0  0  0  0  0  0  0  0
    1.4089   -2.4610    0.0000 C   0  0  0  0  0  0  0  0  0  0  0  0
    0.6944   -2.8735    0.0000 C   0  0  0  0  0  0  0  0  0  0  0  0
   -0.0200   -3.2860    0.0000 C   0  0  0  0  0  0  0  0  0  0  0  0
    2.8378   -2.4610    0.0000 C   0  0  0  0  0  0  0  0  0  0  0  0
    3.5523   -2.8735    0.0000 C   0  0  0  0  0  0  0  0  0  0  0  0
    4.2668   -2.4610    0.0000 C   0  0  0  0  0  0  0  0  0  0  0  0
    4.9813   -2.8735    0.0000 C   0  0  0  0  0  0  0  0  0  0  0  0
    4.9813   -3.6985    0.0000 C   0  0  0  0  0  0  0  0  0  0  0  0
    4.2668   -4.1110    0.0000 C   0  0  0  0  0  0  0  0  0  0  0  0
    3.5523   -3.6985    0.0000 C   0  0  0  0  0  0  0  0  0  0  0  0
    1.2984   -3.6985    0.0000 H   0  0  0  0  0  0  0  0  0  0  0  0
    2.1234   -4.5235    0.0000 H   0  0  0  0  0  0  0  0  0  0  0  0
    2.9484   -3.6985    0.0000 H   0  0  0  0  0  0  0  0  0  0  0  0
    1.7792   -1.7238    0.0000 H   0  0  0  0  0  0  0  0  0  0  0  0
    1.0386   -1.7238    0.0000 H   0  0  0  0  0  0  0  0  0  0  0  0
   -0.7345   -3.6985    0.0000 H   0  0  0  0  0  0  0  0  0  0  0  0
    3.2081   -1.7238    0.0000 H   0  0  0  0  0  0  0  0  0  0  0  0
    2.4676   -1.7238    0.0000 H   0  0  0  0  0  0  0  0  0  0  0  0
    4.2668   -1.6360    0.0000 H   0  0  0  0  0  0  0  0  0  0  0  0
    5.6957   -2.4610    0.0000 H   0  0  0  0  0  0  0  0  0  0  0  0
    5.6957   -4.1110    0.0000 H   0  0  0  0  0  0  0  0  0  0  0  0
    4.2668   -4.9360    0.0000 H   0  0  0  0  0  0  0  0  0  0  0  0
    3.3388   -4.4954    0.0000 H   0  0  0  0  0  0  0  0  0  0  0  0
  1  2  1  0  0  0  0
  2  3  1  0  0  0  0
  3  4  1  0  0  0  0
  4  5  3  0  0  0  0
  2  6  1  0  0  0  0
  6  7  1  0  0  0  0
  7  8  4  0  0  0  0
  8  9  4  0  0  0  0
  9 10  4  0  0  0  0
 10 11  4  0  0  0  0
 11 12  4  0  0  0  0
  7 12  4  0  0  0  0
  1 13  1  0  0  0  0
  1 14  1  0  0  0  0
  1 15  1  0  0  0  0
  3 16  1  0  0  0  0
  3 17  1  0  0  0  0
  5 18  1  0  0  0  0
  6 19  1  0  0  0  0
  6 20  1  0  0  0  0
  8 21  1  0  0  0  0
  9 22  1  0  0  0  0
 10 23  1  0  0  0  0
 11 24  1  0  0  0  0
 12 25  1  0  0  0  0
M  END
>  <InChIKey>
InChI=1S/C11H13N/c1-3-9-12(2)10-11-7-5-4-6-8-11/h1,4-8H,9-10H2,2H3

>  <CASRN>
555-57-7

> <Outcome>
0

>  <Index>
1411

>  <StandardizerResult>
Dearomatize (ID: Dearomatize)
Clear Stereo (ID: ClearStereo)
Wedge Clean (ID: WedgeClean)
Mesomerize (ID: Mesomerize)
Tautomerize (ID: Tautomerize)
Aromatize (ID: Aromatize)
Add Explicit Hydrogens (ID: AddExplicitH)
Neutralize (ID: Neutralize)
Clean 2D (ID: Clean2D)

> <knn Distance>
3.74165749549866

> <CpId>
1411

$$$$
1537
  Mrv1532301301811342D          

 25 26  0  0  0  0            999 V2000
    2.1271   -0.4376    0.0000 Cl  0  0  0  0  0  0  0  0  0  0  0  0
    2.1271   -1.2626    0.0000 C   0  0  0  0  0  0  0  0  0  0  0  0
    2.8416   -1.6751    0.0000 C   0  0  0  0  0  0  0  0  0  0  0  0
    2.8416   -2.5001    0.0000 C   0  0  0  0  0  0  0  0  0  0  0  0
    2.1271   -2.9126    0.0000 C   0  0  0  0  0  0  0  0  0  0  0  0
    2.1271   -3.7376    0.0000 O   0  0  0  0  0  0  0  0  0  0  0  0
    1.4126   -4.1501    0.0000 C   0  0  0  0  0  0  0  0  0  0  0  0
    1.4126   -4.9751    0.0000 C   0  0  0  0  0  0  0  0  0  0  0  0
    0.6981   -5.3876    0.0000 C   0  0  0  0  0  0  0  0  0  0  0  0
   -0.0163   -4.9751    0.0000 C   0  0  0  0  0  0  0  0  0  0  0  0
   -0.0163   -4.1501    0.0000 C   0  0  0  0  0  0  0  0  0  0  0  0
    0.6981   -3.7376    0.0000 C   0  0  0  0  0  0  0  0  0  0  0  0
   -0.7308   -5.3876    0.0000 N   0  0  0  0  0  0  0  0  0  0  0  0
   -0.7308   -6.2126    0.0000 O   0  0  0  0  0  0  0  0  0  0  0  0
   -1.4453   -4.9751    0.0000 O   0  0  0  0  0  0  0  0  0  0  0  0
    1.4126   -2.5001    0.0000 C   0  0  0  0  0  0  0  0  0  0  0  0
    1.4126   -1.6751    0.0000 C   0  0  0  0  0  0  0  0  0  0  0  0
    3.5560   -1.2626    0.0000 H   0  0  0  0  0  0  0  0  0  0  0  0
    3.5560   -2.9126    0.0000 H   0  0  0  0  0  0  0  0  0  0  0  0
    2.1271   -5.3876    0.0000 H   0  0  0  0  0  0  0  0  0  0  0  0
    0.6981   -6.2126    0.0000 H   0  0  0  0  0  0  0  0  0  0  0  0
   -0.7308   -3.7376    0.0000 H   0  0  0  0  0  0  0  0  0  0  0  0
    0.6981   -2.9126    0.0000 H   0  0  0  0  0  0  0  0  0  0  0  0
    0.6981   -2.0876    0.0000 H   0  0  0  0  0  0  0  0  0  0  0  0
    1.0001   -0.9607    0.0000 H   0  0  0  0  0  0  0  0  0  0  0  0
  1  2  1  0  0  0  0
  2  3  4  0  0  0  0
  3  4  4  0  0  0  0
  4  5  4  0  0  0  0
  5  6  1  0  0  0  0
  6  7  1  0  0  0  0
  7  8  4  0  0  0  0
  8  9  4  0  0  0  0
  9 10  4  0  0  0  0
 10 11  4  0  0  0  0
 11 12  4  0  0  0  0
  7 12  4  0  0  0  0
 10 13  1  0  0  0  0
 13 14  2  0  0  0  0
 13 15  2  0  0  0  0
  5 16  4  0  0  0  0
 16 17  4  0  0  0  0
  2 17  4  0  0  0  0
  3 18  1  0  0  0  0
  4 19  1  0  0  0  0
  8 20  1  0  0  0  0
  9 21  1  0  0  0  0
 11 22  1  0  0  0  0
 12 23  1  0  0  0  0
 16 24  1  0  0  0  0
 17 25  1  0  0  0  0
M  END
>  <InChIKey>
InChI=1S/C12H8ClNO3/c13-9-1-5-11(6-2-9)17-12-7-3-10(4-8-12)14(15)16/h1-8H

>  <UN GHS>
Non-irritant

>  <CASRN>
1836-74-4

> <Outcome>
0

>  <Index>
1537

>  <StandardizerResult>
Dearomatize (ID: Dearomatize)
Clear Stereo (ID: ClearStereo)
Wedge Clean (ID: WedgeClean)
Mesomerize (ID: Mesomerize)
Tautomerize (ID: Tautomerize)
Aromatize (ID: Aromatize)
Add Explicit Hydrogens (ID: AddExplicitH)
Neutralize (ID: Neutralize)
Clean 2D (ID: Clean2D)

> <knn Distance>
3.74165749549866

> <CpId>
1537

$$$$
1556
  Mrv1532301301811342D          

 24 24  0  0  0  0            999 V2000
    0.0231    3.2942    0.0000 C   0  0  0  0  0  0  0  0  0  0  0  0
    0.0231    2.4692    0.0000 C   0  0  0  0  0  0  0  0  0  0  0  0
   -0.6914    2.0567    0.0000 N   0  0  0  0  0  0  0  0  0  0  0  0
    0.7376    2.0567    0.0000 C   0  0  0  0  0  0  0  0  0  0  0  0
    0.7376    1.2317    0.0000 C   0  0  0  0  0  0  0  0  0  0  0  0
    1.4521    0.8192    0.0000 C   0  0  0  0  0  0  0  0  0  0  0  0
    1.4521   -0.0058    0.0000 C   0  0  0  0  0  0  0  0  0  0  0  0
    0.7376   -0.4183    0.0000 C   0  0  0  0  0  0  0  0  0  0  0  0
    0.7376   -1.2433    0.0000 O   0  0  0  0  0  0  0  0  0  0  0  0
    0.0231   -0.0058    0.0000 C   0  0  0  0  0  0  0  0  0  0  0  0
    0.0231    0.8192    0.0000 C   0  0  0  0  0  0  0  0  0  0  0  0
    0.8481    3.2942    0.0000 H   0  0  0  0  0  0  0  0  0  0  0  0
    0.0231    4.1192    0.0000 H   0  0  0  0  0  0  0  0  0  0  0  0
   -0.8019    3.2942    0.0000 H   0  0  0  0  0  0  0  0  0  0  0  0
   -0.6914    2.8817    0.0000 H   0  0  0  0  0  0  0  0  0  0  0  0
   -1.4286    1.6865    0.0000 H   0  0  0  0  0  0  0  0  0  0  0  0
   -0.6434    1.2331    0.0000 H   0  0  0  0  0  0  0  0  0  0  0  0
    1.5612    2.1047    0.0000 H   0  0  0  0  0  0  0  0  0  0  0  0
    1.1909    2.7460    0.0000 H   0  0  0  0  0  0  0  0  0  0  0  0
    2.1665    1.2317    0.0000 H   0  0  0  0  0  0  0  0  0  0  0  0
    2.1665   -0.4183    0.0000 H   0  0  0  0  0  0  0  0  0  0  0  0
    0.0231   -1.6558    0.0000 H   0  0  0  0  0  0  0  0  0  0  0  0
   -0.6914   -0.4183    0.0000 H   0  0  0  0  0  0  0  0  0  0  0  0
    0.0364    1.6441    0.0000 H   0  0  0  0  0  0  0  0  0  0  0  0
  1  2  1  0  0  0  0
  2  3  1  0  0  0  0
  2  4  1  0  0  0  0
  4  5  1  0  0  0  0
  5  6  4  0  0  0  0
  6  7  4  0  0  0  0
  7  8  4  0  0  0  0
  8  9  1  0  0  0  0
  8 10  4  0  0  0  0
 10 11  4  0  0  0  0
  5 11  4  0  0  0  0
  1 12  1  0  0  0  0
  1 13  1  0  0  0  0
  1 14  1  0  0  0  0
  2 15  1  0  0  0  0
  3 16  1  0  0  0  0
  3 17  1  0  0  0  0
  4 18  1  0  0  0  0
  4 19  1  0  0  0  0
  6 20  1  0  0  0  0
  7 21  1  0  0  0  0
  9 22  1  0  0  0  0
 10 23  1  0  0  0  0
 11 24  1  0  0  0  0
M  END
>  <InChIKey>
InChI=1S/C9H13NO/c1-7(10)6-8-2-4-9(11)5-3-8/h2-5,7,11H,6,10H2,1H3

>  <CASRN>
103-86-6

> <Outcome>
0

>  <Index>
1556

>  <StandardizerResult>
Dearomatize (ID: Dearomatize)
Clear Stereo (ID: ClearStereo)
Wedge Clean (ID: WedgeClean)
Mesomerize (ID: Mesomerize)
Tautomerize (ID: Tautomerize)
Aromatize (ID: Aromatize)
Add Explicit Hydrogens (ID: AddExplicitH)
Neutralize (ID: Neutralize)
Clean 2D (ID: Clean2D)

> <knn Distance>
3.74165749549866

> <CpId>
1556

$$$$
1572
  Mrv1532301301811342D          

 59 59  0  0  0  0            999 V2000
   -3.3288   -3.7682    0.0000 C   0  0  0  0  0  0  0  0  0  0  0  0
   -2.5442   -3.5133    0.0000 C   0  0  0  0  0  0  0  0  0  0  0  0
   -2.3726   -2.7063    0.0000 C   0  0  0  0  0  0  0  0  0  0  0  0
   -1.5880   -2.4514    0.0000 C   0  0  0  0  0  0  0  0  0  0  0  0
   -1.4165   -1.6444    0.0000 C   0  0  0  0  0  0  0  0  0  0  0  0
   -0.6319   -1.3894    0.0000 C   0  0  0  0  0  0  0  0  0  0  0  0
   -0.0188   -1.9415    0.0000 O   0  0  0  0  0  0  0  0  0  0  0  0
   -0.4603   -0.5825    0.0000 C   0  0  0  0  0  0  0  0  0  0  0  0
    0.3243   -0.3275    0.0000 C   0  0  0  0  0  0  0  0  0  0  0  0
    0.4958    0.4794    0.0000 C   0  0  0  0  0  0  0  0  0  0  0  0
   -0.0562    1.0925    0.0000 C   0  0  0  0  0  0  0  0  0  0  0  0
   -0.8767    1.0063    0.0000 O   0  0  0  0  0  0  0  0  0  0  0  0
    0.3563    1.8070    0.0000 C   0  0  0  0  0  0  0  0  0  0  0  0
    1.1633    1.6355    0.0000 C   0  0  0  0  0  0  0  0  0  0  0  0
    1.7764    2.1875    0.0000 O   0  0  0  0  0  0  0  0  0  0  0  0
    1.2495    0.8150    0.0000 C   0  0  0  0  0  0  0  0  0  0  0  0
    1.9640    0.4025    0.0000 C   0  0  0  0  0  0  0  0  0  0  0  0
    2.6784    0.8150    0.0000 C   0  0  0  0  0  0  0  0  0  0  0  0
    3.3929    0.4025    0.0000 C   0  0  0  0  0  0  0  0  0  0  0  0
    4.1074    0.8150    0.0000 C   0  0  0  0  0  0  0  0  0  0  0  0
    4.8219    0.4025    0.0000 C   0  0  0  0  0  0  0  0  0  0  0  0
    5.5363    0.8150    0.0000 C   0  0  0  0  0  0  0  0  0  0  0  0
    6.2508    0.4025    0.0000 C   0  0  0  0  0  0  0  0  0  0  0  0
    6.9653    0.8150    0.0000 O   0  0  0  0  0  0  0  0  0  0  0  0
    6.2508   -0.4225    0.0000 O   0  0  0  0  0  0  0  0  0  0  0  0
   -3.5837   -2.9836    0.0000 H   0  0  0  0  0  0  0  0  0  0  0  0
   -4.1134   -4.0231    0.0000 H   0  0  0  0  0  0  0  0  0  0  0  0
   -3.0738   -4.5528    0.0000 H   0  0  0  0  0  0  0  0  0  0  0  0
   -2.2440   -4.2817    0.0000 H   0  0  0  0  0  0  0  0  0  0  0  0
   -1.7485   -3.7314    0.0000 H   0  0  0  0  0  0  0  0  0  0  0  0
   -2.6728   -1.9378    0.0000 H   0  0  0  0  0  0  0  0  0  0  0  0
   -3.1683   -2.4881    0.0000 H   0  0  0  0  0  0  0  0  0  0  0  0
   -1.2879   -3.2198    0.0000 H   0  0  0  0  0  0  0  0  0  0  0  0
   -0.7924   -2.6695    0.0000 H   0  0  0  0  0  0  0  0  0  0  0  0
   -1.7166   -0.8759    0.0000 H   0  0  0  0  0  0  0  0  0  0  0  0
   -2.2121   -1.4262    0.0000 H   0  0  0  0  0  0  0  0  0  0  0  0
   -0.8034   -2.1964    0.0000 H   0  0  0  0  0  0  0  0  0  0  0  0
    0.7882   -2.1130    0.0000 H   0  0  0  0  0  0  0  0  0  0  0  0
   -1.0734   -0.0304    0.0000 H   0  0  0  0  0  0  0  0  0  0  0  0
    0.9374   -0.8796    0.0000 H   0  0  0  0  0  0  0  0  0  0  0  0
    1.1370   -0.0397    0.0000 H   0  0  0  0  0  0  0  0  0  0  0  0
   -0.3519    0.3223    0.0000 H   0  0  0  0  0  0  0  0  0  0  0  0
   -1.6347    1.3320    0.0000 H   0  0  0  0  0  0  0  0  0  0  0  0
    0.4138    2.6300    0.0000 H   0  0  0  0  0  0  0  0  0  0  0  0
   -0.2938    2.3149    0.0000 H   0  0  0  0  0  0  0  0  0  0  0  0
    1.9414    1.2643    0.0000 H   0  0  0  0  0  0  0  0  0  0  0  0
    2.0910   -0.4127    0.0000 H   0  0  0  0  0  0  0  0  0  0  0  0
    2.5892   -0.1358    0.0000 H   0  0  0  0  0  0  0  0  0  0  0  0
    3.3962    1.2218    0.0000 H   0  0  0  0  0  0  0  0  0  0  0  0
    2.6916    1.6399    0.0000 H   0  0  0  0  0  0  0  0  0  0  0  0
    3.4295   -0.4217    0.0000 H   0  0  0  0  0  0  0  0  0  0  0  0
    4.1163    0.0059    0.0000 H   0  0  0  0  0  0  0  0  0  0  0  0
    4.7385    1.3463    0.0000 H   0  0  0  0  0  0  0  0  0  0  0  0
    4.2486    1.6278    0.0000 H   0  0  0  0  0  0  0  0  0  0  0  0
    4.9594   -0.4110    0.0000 H   0  0  0  0  0  0  0  0  0  0  0  0
    5.4515   -0.1306    0.0000 H   0  0  0  0  0  0  0  0  0  0  0  0
    6.2594    1.2122    0.0000 H   0  0  0  0  0  0  0  0  0  0  0  0
    5.5715    1.6392    0.0000 H   0  0  0  0  0  0  0  0  0  0  0  0
    7.7903    0.8196    0.0000 H   0  0  0  0  0  0  0  0  0  0  0  0
  1  2  1  0  0  0  0
  2  3  1  0  0  0  0
  3  4  1  0  0  0  0
  4  5  1  0  0  0  0
  5  6  1  0  0  0  0
  6  7  1  0  0  0  0
  8  6  1  4  0  0  0
  8  9  2  0  0  0  0
  9 10  1  0  0  0  0
 10 11  1  0  0  0  0
 11 12  1  0  0  0  0
 11 13  1  0  0  0  0
 13 14  1  0  0  0  0
 14 15  2  0  0  0  0
 14 16  1  0  0  0  0
 10 16  1  0  0  0  0
 16 17  1  0  0  0  0
 17 18  1  0  0  0  0
 18 19  1  0  0  0  0
 19 20  1  0  0  0  0
 20 21  1  0  0  0  0
 21 22  1  0  0  0  0
 22 23  1  0  0  0  0
 23 24  1  0  0  0  0
 23 25  2  0  0  0  0
  1 26  1  0  0  0  0
  1 27  1  0  0  0  0
  1 28  1  0  0  0  0
  2 29  1  0  0  0  0
  2 30  1  0  0  0  0
  3 31  1  0  0  0  0
  3 32  1  0  0  0  0
  4 33  1  0  0  0  0
  4 34  1  0  0  0  0
  5 35  1  0  0  0  0
  5 36  1  0  0  0  0
  6 37  1  0  0  0  0
  7 38  1  0  0  0  0
  8 39  1  0  0  0  0
  9 40  1  0  0  0  0
 10 41  1  0  0  0  0
 11 42  1  0  0  0  0
 12 43  1  0  0  0  0
 13 44  1  0  0  0  0
 13 45  1  0  0  0  0
 16 46  1  0  0  0  0
 17 47  1  0  0  0  0
 17 48  1  0  0  0  0
 18 49  1  0  0  0  0
 18 50  1  0  0  0  0
 19 51  1  0  0  0  0
 19 52  1  0  0  0  0
 20 53  1  0  0  0  0
 20 54  1  0  0  0  0
 21 55  1  0  0  0  0
 21 56  1  0  0  0  0
 22 57  1  0  0  0  0
 22 58  1  0  0  0  0
 24 59  1  0  0  0  0
M  END
>  <InChIKey>
InChI=1S/C20H34O5/c1-2-3-6-9-15(21)12-13-17-16(18(22)14-19(17)23)10-7-4-5-8-11-20(24)25/h12-13,15-17,19,21,23H,2-11,14H2,1H3,(H,24,25)

>  <CASRN>
745-65-3

> <Outcome>
0

>  <Index>
1572

>  <StandardizerResult>
Clear Stereo (ID: ClearStereo)
Wedge Clean (ID: WedgeClean)
Mesomerize (ID: Mesomerize)
Tautomerize (ID: Tautomerize)
Add Explicit Hydrogens (ID: AddExplicitH)
Neutralize (ID: Neutralize)
Clean 2D (ID: Clean2D)

> <knn Distance>
3.74165749549866

> <CpId>
1572

$$$$
1587
  Mrv1532301301811342D          

 55 56  0  0  0  0            999 V2000
    2.1312   -0.5322    0.0000 C   0  0  0  0  0  0  0  0  0  0  0  0
    1.4528   -0.0628    0.0000 C   0  0  0  0  0  0  0  0  0  0  0  0
    2.1312    0.4066    0.0000 C   0  0  0  0  0  0  0  0  0  0  0  0
    1.2210    0.8641    0.0000 C   0  0  0  0  0  0  0  0  0  0  0  0
    0.5760    0.3497    0.0000 C   0  0  0  0  0  0  0  0  0  0  0  0
    0.5760   -0.4753    0.0000 C   0  0  0  0  0  0  0  0  0  0  0  0
    1.2210   -0.9897    0.0000 C   0  0  0  0  0  0  0  0  0  0  0  0
    1.0375   -1.7940    0.0000 C   0  0  0  0  0  0  0  0  0  0  0  0
    2.0254   -0.8061    0.0000 C   0  0  0  0  0  0  0  0  0  0  0  0
    2.3833   -0.0628    0.0000 N   0  3  0  0  0  0  0  0  0  0  0  0
    3.0283   -0.5772    0.0000 C   0  0  0  0  0  0  0  0  0  0  0  0
    3.0283    0.4516    0.0000 C   0  0  0  0  0  0  0  0  0  0  0  0
    3.7963    0.1502    0.0000 C   0  0  0  0  0  0  0  0  0  0  0  0
    3.9192   -0.6656    0.0000 C   0  0  0  0  0  0  0  0  0  0  0  0
    4.6872   -0.9670    0.0000 N   0  3  0  0  0  0  0  0  0  0  0  0
    5.4552   -1.2684    0.0000 C   0  0  0  0  0  0  0  0  0  0  0  0
    4.3858   -1.7350    0.0000 C   0  0  0  0  0  0  0  0  0  0  0  0
    4.9886   -0.1990    0.0000 C   0  0  0  0  0  0  0  0  0  0  0  0
    2.0254    0.6805    0.0000 C   0  0  0  0  0  0  0  0  0  0  0  0
    1.3159   -0.4061    0.0000 H   0  0  0  0  0  0  0  0  0  0  0  0
    1.3427   -0.7747    0.0000 H   0  0  0  0  0  0  0  0  0  0  0  0
    1.5277   -1.0947    0.0000 H   0  0  0  0  0  0  0  0  0  0  0  0
    1.5277    0.9691    0.0000 H   0  0  0  0  0  0  0  0  0  0  0  0
    1.3427    0.6491    0.0000 H   0  0  0  0  0  0  0  0  0  0  0  0
    1.3159    0.2805    0.0000 H   0  0  0  0  0  0  0  0  0  0  0  0
    0.8244    1.5875    0.0000 H   0  0  0  0  0  0  0  0  0  0  0  0
    0.0616    0.9947    0.0000 H   0  0  0  0  0  0  0  0  0  0  0  0
   -0.2490    0.3497    0.0000 H   0  0  0  0  0  0  0  0  0  0  0  0
   -0.2490   -0.4753    0.0000 H   0  0  0  0  0  0  0  0  0  0  0  0
    0.0616   -1.1203    0.0000 H   0  0  0  0  0  0  0  0  0  0  0  0
    0.2546   -1.5336    0.0000 H   0  0  0  0  0  0  0  0  0  0  0  0
    0.7026   -2.5480    0.0000 H   0  0  0  0  0  0  0  0  0  0  0  0
    1.7556   -2.2001    0.0000 H   0  0  0  0  0  0  0  0  0  0  0  0
    2.3530   -1.5632    0.0000 H   0  0  0  0  0  0  0  0  0  0  0  0
    2.8054   -1.0748    0.0000 H   0  0  0  0  0  0  0  0  0  0  0  0
    3.6281   -0.0107    0.0000 H   0  0  0  0  0  0  0  0  0  0  0  0
    2.9938    0.2471    0.0000 H   0  0  0  0  0  0  0  0  0  0  0  0
    3.4420   -1.2909    0.0000 H   0  0  0  0  0  0  0  0  0  0  0  0
    3.4652    1.1514    0.0000 H   0  0  0  0  0  0  0  0  0  0  0  0
    2.8368    1.2541    0.0000 H   0  0  0  0  0  0  0  0  0  0  0  0
    4.6035    0.3204    0.0000 H   0  0  0  0  0  0  0  0  0  0  0  0
    4.1418    0.8993    0.0000 H   0  0  0  0  0  0  0  0  0  0  0  0
    4.5643   -0.1512    0.0000 H   0  0  0  0  0  0  0  0  0  0  0  0
    4.1413   -1.4602    0.0000 H   0  0  0  0  0  0  0  0  0  0  0  0
    5.1538   -2.0364    0.0000 H   0  0  0  0  0  0  0  0  0  0  0  0
    6.2232   -1.5698    0.0000 H   0  0  0  0  0  0  0  0  0  0  0  0
    5.7566   -0.5004    0.0000 H   0  0  0  0  0  0  0  0  0  0  0  0
    3.5623   -1.7838    0.0000 H   0  0  0  0  0  0  0  0  0  0  0  0
    3.9140   -2.4117    0.0000 H   0  0  0  0  0  0  0  0  0  0  0  0
    4.6249   -2.5246    0.0000 H   0  0  0  0  0  0  0  0  0  0  0  0
    5.7177    0.1870    0.0000 H   0  0  0  0  0  0  0  0  0  0  0  0
    5.1710    0.6055    0.0000 H   0  0  0  0  0  0  0  0  0  0  0  0
    5.3185   -0.9552    0.0000 H   0  0  0  0  0  0  0  0  0  0  0  0
    2.8054    0.9492    0.0000 H   0  0  0  0  0  0  0  0  0  0  0  0
    2.3530    1.4377    0.0000 H   0  0  0  0  0  0  0  0  0  0  0  0
  1  2  1  0  0  0  0
  2  3  1  0  0  0  0
  2  4  1  0  0  0  0
  4  5  1  0  0  0  0
  5  6  1  0  0  0  0
  6  7  1  0  0  0  0
  2  7  1  0  0  0  0
  7  8  1  0  0  0  0
  7  9  1  0  0  0  0
  9 10  1  0  0  0  0
 10 11  1  0  0  0  0
 10 12  1  0  0  0  0
 12 13  1  0  0  0  0
 13 14  1  0  0  0  0
 14 15  1  0  0  0  0
 15 16  1  0  0  0  0
 15 17  1  0  0  0  0
 15 18  1  0  0  0  0
 10 19  1  0  0  0  0
  4 19  1  0  0  0  0
  1 20  1  0  0  0  0
  1 21  1  0  0  0  0
  1 22  1  0  0  0  0
  3 23  1  0  0  0  0
  3 24  1  0  0  0  0
  3 25  1  0  0  0  0
  4 26  1  0  0  0  0
  5 27  1  0  0  0  0
  5 28  1  0  0  0  0
  6 29  1  0  0  0  0
  6 30  1  0  0  0  0
  8 31  1  0  0  0  0
  8 32  1  0  0  0  0
  8 33  1  0  0  0  0
  9 34  1  0  0  0  0
  9 35  1  0  0  0  0
 11 36  1  0  0  0  0
 11 37  1  0  0  0  0
 11 38  1  0  0  0  0
 12 39  1  0  0  0  0
 12 40  1  0  0  0  0
 13 41  1  0  0  0  0
 13 42  1  0  0  0  0
 14 43  1  0  0  0  0
 14 44  1  0  0  0  0
 16 45  1  0  0  0  0
 16 46  1  0  0  0  0
 16 47  1  0  0  0  0
 17 48  1  0  0  0  0
 17 49  1  0  0  0  0
 17 50  1  0  0  0  0
 18 51  1  0  0  0  0
 18 52  1  0  0  0  0
 18 53  1  0  0  0  0
 19 54  1  0  0  0  0
 19 55  1  0  0  0  0
M  CHG  2  10   1  15   1
M  END
>  <InChIKey>
InChI=1S/C17H36N2/c1-16(2)15-9-10-17(16,3)14-19(7,13-15)12-8-11-18(4,5)6/h15H,8-14H2,1-7H3/q+2

>  <CASRN>
2624-50-2

> <Outcome>
0

>  <Index>
1587

>  <StandardizerResult>
Clear Stereo (ID: ClearStereo)
Wedge Clean (ID: WedgeClean)
Mesomerize (ID: Mesomerize)
Tautomerize (ID: Tautomerize)
Add Explicit Hydrogens (ID: AddExplicitH)
Clean 2D (ID: Clean2D)

> <knn Distance>
3.74165749549866

> <CpId>
1587

$$$$
1603
  Mrv1532301301811342D          

 30 31  0  0  0  0            999 V2000
    1.3323   -0.0717    0.0000 C   0  0  0  0  0  0  0  0  0  0  0  0
    2.0468   -0.4842    0.0000 C   0  0  0  0  0  0  0  0  0  0  0  0
    2.7612   -0.0717    0.0000 C   0  0  0  0  0  0  0  0  0  0  0  0
    2.7612    0.7533    0.0000 O   0  0  0  0  0  0  0  0  0  0  0  0
    3.4757   -0.4842    0.0000 O   0  0  0  0  0  0  0  0  0  0  0  0
    2.0468   -1.3092    0.0000 C   0  0  0  0  0  0  0  0  0  0  0  0
    2.7142   -1.7941    0.0000 C   0  0  0  0  0  0  0  0  0  0  0  0
    2.4593   -2.5787    0.0000 C   0  0  0  0  0  0  0  0  0  0  0  0
    1.6343   -2.5787    0.0000 C   0  0  0  0  0  0  0  0  0  0  0  0
    1.3793   -1.7941    0.0000 S   0  0  0  0  0  0  0  0  0  0  0  0
    1.1493   -3.2462    0.0000 C   0  0  0  0  0  0  0  0  0  0  0  0
    1.4849   -3.9998    0.0000 O   0  0  0  0  0  0  0  0  0  0  0  0
    0.3289   -3.1599    0.0000 C   0  0  0  0  0  0  0  0  0  0  0  0
   -0.1561   -3.8274    0.0000 C   0  0  0  0  0  0  0  0  0  0  0  0
   -0.9765   -3.7411    0.0000 C   0  0  0  0  0  0  0  0  0  0  0  0
   -1.3121   -2.9875    0.0000 C   0  0  0  0  0  0  0  0  0  0  0  0
   -0.8272   -2.3200    0.0000 C   0  0  0  0  0  0  0  0  0  0  0  0
   -0.0067   -2.4062    0.0000 C   0  0  0  0  0  0  0  0  0  0  0  0
    1.7448    0.6428    0.0000 H   0  0  0  0  0  0  0  0  0  0  0  0
    0.6178    0.3408    0.0000 H   0  0  0  0  0  0  0  0  0  0  0  0
    0.9198   -0.7861    0.0000 H   0  0  0  0  0  0  0  0  0  0  0  0
    2.0468    0.3408    0.0000 H   0  0  0  0  0  0  0  0  0  0  0  0
    3.1737    1.4678    0.0000 H   0  0  0  0  0  0  0  0  0  0  0  0
    3.4988   -1.5392    0.0000 H   0  0  0  0  0  0  0  0  0  0  0  0
    2.9442   -3.2462    0.0000 H   0  0  0  0  0  0  0  0  0  0  0  0
    0.1795   -4.5810    0.0000 H   0  0  0  0  0  0  0  0  0  0  0  0
   -1.4615   -4.4086    0.0000 H   0  0  0  0  0  0  0  0  0  0  0  0
   -2.1326   -2.9012    0.0000 H   0  0  0  0  0  0  0  0  0  0  0  0
   -1.1627   -1.5663    0.0000 H   0  0  0  0  0  0  0  0  0  0  0  0
    0.4782   -1.7388    0.0000 H   0  0  0  0  0  0  0  0  0  0  0  0
  1  2  1  0  0  0  0
  2  3  1  0  0  0  0
  3  4  1  0  0  0  0
  3  5  2  0  0  0  0
  2  6  1  0  0  0  0
  6  7  4  0  0  0  0
  7  8  4  0  0  0  0
  8  9  4  0  0  0  0
  9 10  4  0  0  0  0
  6 10  4  0  0  0  0
  9 11  1  0  0  0  0
 11 12  2  0  0  0  0
 11 13  1  0  0  0  0
 13 14  4  0  0  0  0
 14 15  4  0  0  0  0
 15 16  4  0  0  0  0
 16 17  4  0  0  0  0
 17 18  4  0  0  0  0
 13 18  4  0  0  0  0
  1 19  1  0  0  0  0
  1 20  1  0  0  0  0
  1 21  1  0  0  0  0
  2 22  1  0  0  0  0
  4 23  1  0  0  0  0
  7 24  1  0  0  0  0
  8 25  1  0  0  0  0
 14 26  1  0  0  0  0
 15 27  1  0  0  0  0
 16 28  1  0  0  0  0
 17 29  1  0  0  0  0
 18 30  1  0  0  0  0
M  END
>  <InChIKey>
InChI=1S/C14H12O3S/c1-9(14(16)17)11-7-8-12(18-11)13(15)10-5-3-2-4-6-10/h2-9H,1H3,(H,16,17)

>  <CASRN>
33005-95-7

> <Outcome>
0

>  <Index>
1603

>  <StandardizerResult>
Dearomatize (ID: Dearomatize)
Clear Stereo (ID: ClearStereo)
Wedge Clean (ID: WedgeClean)
Mesomerize (ID: Mesomerize)
Tautomerize (ID: Tautomerize)
Aromatize (ID: Aromatize)
Add Explicit Hydrogens (ID: AddExplicitH)
Neutralize (ID: Neutralize)
Clean 2D (ID: Clean2D)

> <knn Distance>
3.74165749549866

> <CpId>
1603

$$$$
1718
  Mrv1532301301811342D          

 26 26  0  0  0  0            999 V2000
   -0.8009    2.8980    0.0000 C   0  0  0  0  0  0  0  0  0  0  0  0
   -0.0865    2.4855    0.0000 C   0  0  0  0  0  0  0  0  0  0  0  0
   -0.4990    1.7711    0.0000 C   0  0  0  0  0  0  0  0  0  0  0  0
    0.3260    3.2000    0.0000 N   0  0  0  0  0  0  0  0  0  0  0  0
    0.6280    2.0730    0.0000 C   0  0  0  0  0  0  0  0  0  0  0  0
    0.6280    1.2480    0.0000 C   0  0  0  0  0  0  0  0  0  0  0  0
    1.3425    0.8355    0.0000 C   0  0  0  0  0  0  0  0  0  0  0  0
    1.3425    0.0105    0.0000 C   0  0  0  0  0  0  0  0  0  0  0  0
    0.6280   -0.4020    0.0000 C   0  0  0  0  0  0  0  0  0  0  0  0
   -0.0865    0.0105    0.0000 C   0  0  0  0  0  0  0  0  0  0  0  0
   -0.0865    0.8355    0.0000 C   0  0  0  0  0  0  0  0  0  0  0  0
   -0.8009    1.2480    0.0000 Cl  0  0  0  0  0  0  0  0  0  0  0  0
   -0.3884    3.6125    0.0000 H   0  0  0  0  0  0  0  0  0  0  0  0
   -1.5154    3.3105    0.0000 H   0  0  0  0  0  0  0  0  0  0  0  0
   -1.2134    2.1836    0.0000 H   0  0  0  0  0  0  0  0  0  0  0  0
    0.0313    1.1391    0.0000 H   0  0  0  0  0  0  0  0  0  0  0  0
    0.3135    1.6278    0.0000 H   0  0  0  0  0  0  0  0  0  0  0  0
   -1.2959    1.5575    0.0000 H   0  0  0  0  0  0  0  0  0  0  0  0
    1.1229    2.9865    0.0000 H   0  0  0  0  0  0  0  0  0  0  0  0
    0.9094    3.7834    0.0000 H   0  0  0  0  0  0  0  0  0  0  0  0
    1.4516    2.1210    0.0000 H   0  0  0  0  0  0  0  0  0  0  0  0
    1.0814    2.7623    0.0000 H   0  0  0  0  0  0  0  0  0  0  0  0
    2.0569    1.2480    0.0000 H   0  0  0  0  0  0  0  0  0  0  0  0
    2.0569   -0.4020    0.0000 H   0  0  0  0  0  0  0  0  0  0  0  0
    0.6280   -1.2270    0.0000 H   0  0  0  0  0  0  0  0  0  0  0  0
   -0.8009   -0.4020    0.0000 H   0  0  0  0  0  0  0  0  0  0  0  0
  1  2  1  0  0  0  0
  2  3  1  0  0  0  0
  2  4  1  0  0  0  0
  2  5  1  0  0  0  0
  5  6  1  0  0  0  0
  6  7  4  0  0  0  0
  7  8  4  0  0  0  0
  8  9  4  0  0  0  0
  9 10  4  0  0  0  0
 10 11  4  0  0  0  0
  6 11  4  0  0  0  0
 11 12  1  0  0  0  0
  1 13  1  0  0  0  0
  1 14  1  0  0  0  0
  1 15  1  0  0  0  0
  3 16  1  0  0  0  0
  3 17  1  0  0  0  0
  3 18  1  0  0  0  0
  4 19  1  0  0  0  0
  4 20  1  0  0  0  0
  5 21  1  0  0  0  0
  5 22  1  0  0  0  0
  7 23  1  0  0  0  0
  8 24  1  0  0  0  0
  9 25  1  0  0  0  0
 10 26  1  0  0  0  0
M  END
>  <InChIKey>
InChI=1S/C10H14ClN/c1-10(2,12)7-8-5-3-4-6-9(8)11/h3-6H,7,12H2,1-2H3

>  <CASRN>
10389-73-8

> <Outcome>
0

>  <Index>
1718

>  <StandardizerResult>
Dearomatize (ID: Dearomatize)
Clear Stereo (ID: ClearStereo)
Wedge Clean (ID: WedgeClean)
Mesomerize (ID: Mesomerize)
Tautomerize (ID: Tautomerize)
Aromatize (ID: Aromatize)
Add Explicit Hydrogens (ID: AddExplicitH)
Neutralize (ID: Neutralize)
Clean 2D (ID: Clean2D)

> <knn Distance>
3.74165749549866

> <CpId>
1718

$$$$
1757
  Mrv1532301301811342D          

 52 54  0  0  0  0            999 V2000
   -2.1197   -0.3977    0.0000 C   0  0  0  0  0  0  0  0  0  0  0  0
   -2.1197   -1.2227    0.0000 C   0  0  0  0  0  0  0  0  0  0  0  0
   -2.8342   -1.6352    0.0000 C   0  0  0  0  0  0  0  0  0  0  0  0
   -3.5487   -1.2227    0.0000 C   0  0  0  0  0  0  0  0  0  0  0  0
   -4.2632   -1.6352    0.0000 C   0  0  0  0  0  0  0  0  0  0  0  0
   -4.9776   -1.2227    0.0000 C   0  0  0  0  0  0  0  0  0  0  0  0
   -4.9776   -0.3977    0.0000 C   0  0  0  0  0  0  0  0  0  0  0  0
   -4.2632    0.0148    0.0000 C   0  0  0  0  0  0  0  0  0  0  0  0
   -3.5487   -0.3977    0.0000 C   0  0  0  0  0  0  0  0  0  0  0  0
   -1.4053   -1.6352    0.0000 N   0  0  0  0  0  0  0  0  0  0  0  0
   -0.6908   -1.2227    0.0000 C   0  0  0  0  0  0  0  0  0  0  0  0
    0.0237   -1.6352    0.0000 C   0  0  0  0  0  0  0  0  0  0  0  0
    0.7381   -1.2227    0.0000 C   0  0  0  0  0  0  0  0  0  0  0  0
    1.4526   -1.6352    0.0000 C   0  0  0  0  0  0  0  0  0  0  0  0
    2.1671   -1.2227    0.0000 C   0  0  0  0  0  0  0  0  0  0  0  0
    2.8816   -1.6352    0.0000 C   0  0  0  0  0  0  0  0  0  0  0  0
    2.8816   -2.4602    0.0000 C   0  0  0  0  0  0  0  0  0  0  0  0
    2.1671   -2.8727    0.0000 C   0  0  0  0  0  0  0  0  0  0  0  0
    1.4526   -2.4602    0.0000 C   0  0  0  0  0  0  0  0  0  0  0  0
    0.7381   -0.3977    0.0000 C   0  0  0  0  0  0  0  0  0  0  0  0
    0.0237    0.0148    0.0000 C   0  0  0  0  0  0  0  0  0  0  0  0
    0.0237    0.8398    0.0000 C   0  0  0  0  0  0  0  0  0  0  0  0
    0.7381    1.2523    0.0000 C   0  0  0  0  0  0  0  0  0  0  0  0
    1.4526    0.8398    0.0000 C   0  0  0  0  0  0  0  0  0  0  0  0
    1.4526    0.0148    0.0000 C   0  0  0  0  0  0  0  0  0  0  0  0
   -1.2947   -0.3977    0.0000 H   0  0  0  0  0  0  0  0  0  0  0  0
   -2.1197    0.4273    0.0000 H   0  0  0  0  0  0  0  0  0  0  0  0
   -2.9447   -0.3977    0.0000 H   0  0  0  0  0  0  0  0  0  0  0  0
   -2.8342   -0.8102    0.0000 H   0  0  0  0  0  0  0  0  0  0  0  0
   -3.2045   -2.3724    0.0000 H   0  0  0  0  0  0  0  0  0  0  0  0
   -2.4640   -2.3724    0.0000 H   0  0  0  0  0  0  0  0  0  0  0  0
   -4.2632   -2.4602    0.0000 H   0  0  0  0  0  0  0  0  0  0  0  0
   -5.6921   -1.6352    0.0000 H   0  0  0  0  0  0  0  0  0  0  0  0
   -5.6921    0.0148    0.0000 H   0  0  0  0  0  0  0  0  0  0  0  0
   -4.2632    0.8398    0.0000 H   0  0  0  0  0  0  0  0  0  0  0  0
   -3.3352    0.3992    0.0000 H   0  0  0  0  0  0  0  0  0  0  0  0
   -1.4053   -2.4602    0.0000 H   0  0  0  0  0  0  0  0  0  0  0  0
   -0.3205   -0.4854    0.0000 H   0  0  0  0  0  0  0  0  0  0  0  0
   -1.0611   -0.4854    0.0000 H   0  0  0  0  0  0  0  0  0  0  0  0
   -0.3466   -2.3724    0.0000 H   0  0  0  0  0  0  0  0  0  0  0  0
    0.3939   -2.3724    0.0000 H   0  0  0  0  0  0  0  0  0  0  0  0
    0.7381   -2.0477    0.0000 H   0  0  0  0  0  0  0  0  0  0  0  0
    2.1671   -0.3977    0.0000 H   0  0  0  0  0  0  0  0  0  0  0  0
    3.5960   -1.2227    0.0000 H   0  0  0  0  0  0  0  0  0  0  0  0
    3.5960   -2.8727    0.0000 H   0  0  0  0  0  0  0  0  0  0  0  0
    2.1671   -3.6977    0.0000 H   0  0  0  0  0  0  0  0  0  0  0  0
    1.0401   -3.1746    0.0000 H   0  0  0  0  0  0  0  0  0  0  0  0
   -0.7642    0.2597    0.0000 H   0  0  0  0  0  0  0  0  0  0  0  0
   -0.6908    1.2523    0.0000 H   0  0  0  0  0  0  0  0  0  0  0  0
    0.7381    2.0773    0.0000 H   0  0  0  0  0  0  0  0  0  0  0  0
    2.1671    1.2523    0.0000 H   0  0  0  0  0  0  0  0  0  0  0  0
    1.4526   -0.8102    0.0000 H   0  0  0  0  0  0  0  0  0  0  0  0
  1  2  1  0  0  0  0
  2  3  1  0  0  0  0
  3  4  1  0  0  0  0
  4  5  4  0  0  0  0
  5  6  4  0  0  0  0
  6  7  4  0  0  0  0
  7  8  4  0  0  0  0
  8  9  4  0  0  0  0
  4  9  4  0  0  0  0
  2 10  1  0  0  0  0
 10 11  1  0  0  0  0
 11 12  1  0  0  0  0
 12 13  1  0  0  0  0
 13 14  1  0  0  0  0
 14 15  4  0  0  0  0
 15 16  4  0  0  0  0
 16 17  4  0  0  0  0
 17 18  4  0  0  0  0
 18 19  4  0  0  0  0
 14 19  4  0  0  0  0
 13 20  1  0  0  0  0
 20 21  4  0  0  0  0
 21 22  4  0  0  0  0
 22 23  4  0  0  0  0
 23 24  4  0  0  0  0
 24 25  4  0  0  0  0
 20 25  4  0  0  0  0
  1 26  1  0  0  0  0
  1 27  1  0  0  0  0
  1 28  1  0  0  0  0
  2 29  1  0  0  0  0
  3 30  1  0  0  0  0
  3 31  1  0  0  0  0
  5 32  1  0  0  0  0
  6 33  1  0  0  0  0
  7 34  1  0  0  0  0
  8 35  1  0  0  0  0
  9 36  1  0  0  0  0
 10 37  1  0  0  0  0
 11 38  1  0  0  0  0
 11 39  1  0  0  0  0
 12 40  1  0  0  0  0
 12 41  1  0  0  0  0
 13 42  1  0  0  0  0
 15 43  1  0  0  0  0
 16 44  1  0  0  0  0
 17 45  1  0  0  0  0
 18 46  1  0  0  0  0
 19 47  1  0  0  0  0
 21 48  1  0  0  0  0
 22 49  1  0  0  0  0
 23 50  1  0  0  0  0
 24 51  1  0  0  0  0
 25 52  1  0  0  0  0
M  END
>  <InChIKey>
InChI=1S/C24H27N/c1-20(19-21-11-5-2-6-12-21)25-18-17-24(22-13-7-3-8-14-22)23-15-9-4-10-16-23/h2-16,20,24-25H,17-19H2,1H3

>  <CASRN>
390-64-7

> <Outcome>
0

>  <Index>
1757

>  <StandardizerResult>
Dearomatize (ID: Dearomatize)
Clear Stereo (ID: ClearStereo)
Wedge Clean (ID: WedgeClean)
Mesomerize (ID: Mesomerize)
Tautomerize (ID: Tautomerize)
Aromatize (ID: Aromatize)
Add Explicit Hydrogens (ID: AddExplicitH)
Neutralize (ID: Neutralize)
Clean 2D (ID: Clean2D)

> <knn Distance>
3.74165749549866

> <CpId>
1757

$$$$
1769
  Mrv1532301301811342D          

182182  0  0  0  0            999 V2000
   -2.9139  -14.3315    0.0000 C   0  0  0  0  0  0  0  0  0  0  0  0
   -2.5014  -13.6170    0.0000 C   0  0  0  0  0  0  0  0  0  0  0  0
   -1.6764  -13.6170    0.0000 C   0  0  0  0  0  0  0  0  0  0  0  0
   -1.2639  -12.9026    0.0000 C   0  0  0  0  0  0  0  0  0  0  0  0
   -0.4389  -12.9026    0.0000 C   0  0  0  0  0  0  0  0  0  0  0  0
   -0.0264  -12.1881    0.0000 C   0  0  0  0  0  0  0  0  0  0  0  0
    0.7986  -12.1881    0.0000 C   0  0  0  0  0  0  0  0  0  0  0  0
    1.2111  -11.4736    0.0000 C   0  0  0  0  0  0  0  0  0  0  0  0
    2.0361  -11.4736    0.0000 C   0  0  0  0  0  0  0  0  0  0  0  0
    2.4486  -10.7592    0.0000 C   0  0  0  0  0  0  0  0  0  0  0  0
    3.2736  -10.7592    0.0000 C   0  0  0  0  0  0  0  0  0  0  0  0
    3.6861  -10.0447    0.0000 C   0  0  0  0  0  0  0  0  0  0  0  0
    4.5111  -10.0447    0.0000 C   0  0  0  0  0  0  0  0  0  0  0  0
    4.9236   -9.3302    0.0000 C   0  0  0  0  0  0  0  0  0  0  0  0
    5.7486   -9.3302    0.0000 C   0  0  0  0  0  0  0  0  0  0  0  0
    6.1611   -8.6157    0.0000 C   0  0  0  0  0  0  0  0  0  0  0  0
    6.9861   -8.6157    0.0000 C   0  0  0  0  0  0  0  0  0  0  0  0
    7.3986   -7.9013    0.0000 C   0  0  0  0  0  0  0  0  0  0  0  0
    6.9861   -7.1868    0.0000 O   0  0  0  0  0  0  0  0  0  0  0  0
    8.2236   -7.9013    0.0000 O   0  0  0  0  0  0  0  0  0  0  0  0
    8.6361   -7.1868    0.0000 C   0  0  0  0  0  0  0  0  0  0  0  0
    9.4611   -7.1868    0.0000 C   0  0  0  0  0  0  0  0  0  0  0  0
    9.8736   -7.9013    0.0000 O   0  0  0  0  0  0  0  0  0  0  0  0
   10.6986   -7.9013    0.0000 C   0  0  0  0  0  0  0  0  0  0  0  0
   11.1111   -7.1868    0.0000 O   0  0  0  0  0  0  0  0  0  0  0  0
   11.1111   -8.6157    0.0000 C   0  0  0  0  0  0  0  0  0  0  0  0
   11.9361   -8.6157    0.0000 C   0  0  0  0  0  0  0  0  0  0  0  0
   12.3486   -9.3302    0.0000 C   0  0  0  0  0  0  0  0  0  0  0  0
   13.1736   -9.3302    0.0000 C   0  0  0  0  0  0  0  0  0  0  0  0
   13.5861  -10.0447    0.0000 C   0  0  0  0  0  0  0  0  0  0  0  0
   14.4111  -10.0447    0.0000 C   0  0  0  0  0  0  0  0  0  0  0  0
   14.8236  -10.7592    0.0000 C   0  0  0  0  0  0  0  0  0  0  0  0
   15.6486  -10.7592    0.0000 C   0  0  0  0  0  0  0  0  0  0  0  0
   16.0611  -11.4736    0.0000 C   0  0  0  0  0  0  0  0  0  0  0  0
   16.8861  -11.4736    0.0000 C   0  0  0  0  0  0  0  0  0  0  0  0
   17.2986  -12.1881    0.0000 C   0  0  0  0  0  0  0  0  0  0  0  0
   18.1236  -12.1881    0.0000 C   0  0  0  0  0  0  0  0  0  0  0  0
   18.5361  -12.9026    0.0000 C   0  0  0  0  0  0  0  0  0  0  0  0
   19.3611  -12.9026    0.0000 C   0  0  0  0  0  0  0  0  0  0  0  0
   19.7736  -13.6170    0.0000 C   0  0  0  0  0  0  0  0  0  0  0  0
   20.5986  -13.6170    0.0000 C   0  0  0  0  0  0  0  0  0  0  0  0
   21.0111  -14.3315    0.0000 C   0  0  0  0  0  0  0  0  0  0  0  0
    9.8736   -6.4723    0.0000 C   0  0  0  0  0  0  0  0  0  0  0  0
    9.5380   -5.7187    0.0000 O   0  0  0  0  0  0  0  0  0  0  0  0
   10.1511   -5.1666    0.0000 C   0  0  0  0  0  0  0  0  0  0  0  0
   10.8656   -5.5791    0.0000 C   0  0  0  0  0  0  0  0  0  0  0  0
   11.6193   -5.2436    0.0000 O   0  0  0  0  0  0  0  0  0  0  0  0
   10.6941   -6.3861    0.0000 C   0  0  0  0  0  0  0  0  0  0  0  0
   11.4085   -6.7986    0.0000 O   0  0  0  0  0  0  0  0  0  0  0  0
   11.4085   -7.6236    0.0000 C   0  0  0  0  0  0  0  0  0  0  0  0
   11.5801   -8.4306    0.0000 O   0  0  0  0  0  0  0  0  0  0  0  0
   12.1230   -8.0361    0.0000 C   0  0  0  0  0  0  0  0  0  0  0  0
   12.8375   -7.6236    0.0000 C   0  0  0  0  0  0  0  0  0  0  0  0
   12.8375   -6.7986    0.0000 C   0  0  0  0  0  0  0  0  0  0  0  0
   13.5520   -6.3861    0.0000 C   0  0  0  0  0  0  0  0  0  0  0  0
   13.5520   -5.5611    0.0000 C   0  0  0  0  0  0  0  0  0  0  0  0
   14.2664   -5.1486    0.0000 C   0  0  0  0  0  0  0  0  0  0  0  0
   14.2664   -4.3236    0.0000 C   0  0  0  0  0  0  0  0  0  0  0  0
   14.9809   -3.9111    0.0000 C   0  0  0  0  0  0  0  0  0  0  0  0
   14.9809   -3.0861    0.0000 C   0  0  0  0  0  0  0  0  0  0  0  0
   15.6954   -2.6736    0.0000 C   0  0  0  0  0  0  0  0  0  0  0  0
   15.6954   -1.8486    0.0000 C   0  0  0  0  0  0  0  0  0  0  0  0
   16.4098   -1.4361    0.0000 C   0  0  0  0  0  0  0  0  0  0  0  0
   16.4098   -0.6111    0.0000 C   0  0  0  0  0  0  0  0  0  0  0  0
   17.1243   -0.1986    0.0000 C   0  0  0  0  0  0  0  0  0  0  0  0
   17.1243    0.6264    0.0000 C   0  0  0  0  0  0  0  0  0  0  0  0
   17.8388    1.0389    0.0000 C   0  0  0  0  0  0  0  0  0  0  0  0
   17.8388    1.8639    0.0000 C   0  0  0  0  0  0  0  0  0  0  0  0
   -3.6284  -13.9190    0.0000 H   0  0  0  0  0  0  0  0  0  0  0  0
   -3.3264  -15.0460    0.0000 H   0  0  0  0  0  0  0  0  0  0  0  0
   -2.1994  -14.7440    0.0000 H   0  0  0  0  0  0  0  0  0  0  0  0
   -2.5494  -12.7934    0.0000 H   0  0  0  0  0  0  0  0  0  0  0  0
   -3.1907  -13.1637    0.0000 H   0  0  0  0  0  0  0  0  0  0  0  0
   -1.6284  -14.4406    0.0000 H   0  0  0  0  0  0  0  0  0  0  0  0
   -0.9871  -14.0704    0.0000 H   0  0  0  0  0  0  0  0  0  0  0  0
   -1.3119  -12.0790    0.0000 H   0  0  0  0  0  0  0  0  0  0  0  0
   -1.9532  -12.4492    0.0000 H   0  0  0  0  0  0  0  0  0  0  0  0
   -0.3909  -13.7262    0.0000 H   0  0  0  0  0  0  0  0  0  0  0  0
    0.2504  -13.3559    0.0000 H   0  0  0  0  0  0  0  0  0  0  0  0
   -0.0744  -11.3645    0.0000 H   0  0  0  0  0  0  0  0  0  0  0  0
   -0.7157  -11.7348    0.0000 H   0  0  0  0  0  0  0  0  0  0  0  0
    0.8466  -13.0117    0.0000 H   0  0  0  0  0  0  0  0  0  0  0  0
    1.4879  -12.6414    0.0000 H   0  0  0  0  0  0  0  0  0  0  0  0
    1.1631  -10.6500    0.0000 H   0  0  0  0  0  0  0  0  0  0  0  0
    0.5218  -11.0203    0.0000 H   0  0  0  0  0  0  0  0  0  0  0  0
    2.0841  -12.2972    0.0000 H   0  0  0  0  0  0  0  0  0  0  0  0
    2.7254  -11.9270    0.0000 H   0  0  0  0  0  0  0  0  0  0  0  0
    2.4006   -9.9356    0.0000 H   0  0  0  0  0  0  0  0  0  0  0  0
    1.7593  -10.3058    0.0000 H   0  0  0  0  0  0  0  0  0  0  0  0
    3.3216  -11.5828    0.0000 H   0  0  0  0  0  0  0  0  0  0  0  0
    3.9629  -11.2125    0.0000 H   0  0  0  0  0  0  0  0  0  0  0  0
    3.6381   -9.2211    0.0000 H   0  0  0  0  0  0  0  0  0  0  0  0
    2.9968   -9.5913    0.0000 H   0  0  0  0  0  0  0  0  0  0  0  0
    4.5591  -10.8683    0.0000 H   0  0  0  0  0  0  0  0  0  0  0  0
    5.2004  -10.4980    0.0000 H   0  0  0  0  0  0  0  0  0  0  0  0
    4.8756   -8.5066    0.0000 H   0  0  0  0  0  0  0  0  0  0  0  0
    4.2343   -8.8769    0.0000 H   0  0  0  0  0  0  0  0  0  0  0  0
    5.7966  -10.1538    0.0000 H   0  0  0  0  0  0  0  0  0  0  0  0
    6.4379   -9.7836    0.0000 H   0  0  0  0  0  0  0  0  0  0  0  0
    6.1131   -7.7921    0.0000 H   0  0  0  0  0  0  0  0  0  0  0  0
    5.4718   -8.1624    0.0000 H   0  0  0  0  0  0  0  0  0  0  0  0
    7.0341   -9.4394    0.0000 H   0  0  0  0  0  0  0  0  0  0  0  0
    7.6754   -9.0691    0.0000 H   0  0  0  0  0  0  0  0  0  0  0  0
    8.5881   -6.3632    0.0000 H   0  0  0  0  0  0  0  0  0  0  0  0
    7.9468   -6.7335    0.0000 H   0  0  0  0  0  0  0  0  0  0  0  0
    9.0486   -7.9013    0.0000 H   0  0  0  0  0  0  0  0  0  0  0  0
   10.4218   -9.0691    0.0000 H   0  0  0  0  0  0  0  0  0  0  0  0
   11.0631   -9.4394    0.0000 H   0  0  0  0  0  0  0  0  0  0  0  0
   12.7565   -8.5286    0.0000 H   0  0  0  0  0  0  0  0  0  0  0  0
   11.5236   -9.3302    0.0000 H   0  0  0  0  0  0  0  0  0  0  0  0
   12.0664  -10.1055    0.0000 H   0  0  0  0  0  0  0  0  0  0  0  0
   12.6308  -10.1055    0.0000 H   0  0  0  0  0  0  0  0  0  0  0  0
   13.9985   -9.3423    0.0000 H   0  0  0  0  0  0  0  0  0  0  0  0
   13.6068   -8.6281    0.0000 H   0  0  0  0  0  0  0  0  0  0  0  0
   13.2042  -10.7760    0.0000 H   0  0  0  0  0  0  0  0  0  0  0  0
   14.0136  -10.7503    0.0000 H   0  0  0  0  0  0  0  0  0  0  0  0
   15.2231   -9.8991    0.0000 H   0  0  0  0  0  0  0  0  0  0  0  0
   14.9385   -9.4103    0.0000 H   0  0  0  0  0  0  0  0  0  0  0  0
   14.5362  -11.5325    0.0000 H   0  0  0  0  0  0  0  0  0  0  0  0
   15.1024  -11.5356    0.0000 H   0  0  0  0  0  0  0  0  0  0  0  0
   16.4734  -10.7768    0.0000 H   0  0  0  0  0  0  0  0  0  0  0  0
   16.0913  -10.0630    0.0000 H   0  0  0  0  0  0  0  0  0  0  0  0
   15.6797  -12.2052    0.0000 H   0  0  0  0  0  0  0  0  0  0  0  0
   16.4889  -12.1791    0.0000 H   0  0  0  0  0  0  0  0  0  0  0  0
   17.6979  -11.3269    0.0000 H   0  0  0  0  0  0  0  0  0  0  0  0
   17.4121  -10.8381    0.0000 H   0  0  0  0  0  0  0  0  0  0  0  0
   17.0111  -12.9614    0.0000 H   0  0  0  0  0  0  0  0  0  0  0  0
   17.5774  -12.9646    0.0000 H   0  0  0  0  0  0  0  0  0  0  0  0
   18.9484  -12.2059    0.0000 H   0  0  0  0  0  0  0  0  0  0  0  0
   18.5665  -11.4920    0.0000 H   0  0  0  0  0  0  0  0  0  0  0  0
   18.1547  -13.6341    0.0000 H   0  0  0  0  0  0  0  0  0  0  0  0
   18.9639  -13.6080    0.0000 H   0  0  0  0  0  0  0  0  0  0  0  0
   20.1729  -12.7558    0.0000 H   0  0  0  0  0  0  0  0  0  0  0  0
   19.8871  -12.2670    0.0000 H   0  0  0  0  0  0  0  0  0  0  0  0
   19.4861  -14.3903    0.0000 H   0  0  0  0  0  0  0  0  0  0  0  0
   20.0524  -14.3935    0.0000 H   0  0  0  0  0  0  0  0  0  0  0  0
   21.4234  -13.6348    0.0000 H   0  0  0  0  0  0  0  0  0  0  0  0
   21.0415  -12.9210    0.0000 H   0  0  0  0  0  0  0  0  0  0  0  0
   20.6317  -15.0641    0.0000 H   0  0  0  0  0  0  0  0  0  0  0  0
   21.4427  -15.0346    0.0000 H   0  0  0  0  0  0  0  0  0  0  0  0
   21.8361  -14.3249    0.0000 H   0  0  0  0  0  0  0  0  0  0  0  0
   10.3229   -7.1642    0.0000 H   0  0  0  0  0  0  0  0  0  0  0  0
   10.4602   -4.4017    0.0000 H   0  0  0  0  0  0  0  0  0  0  0  0
    9.6898   -4.4827    0.0000 H   0  0  0  0  0  0  0  0  0  0  0  0
   11.5067   -6.0983    0.0000 H   0  0  0  0  0  0  0  0  0  0  0  0
   12.1129   -4.5825    0.0000 H   0  0  0  0  0  0  0  0  0  0  0  0
   10.1420   -5.7730    0.0000 H   0  0  0  0  0  0  0  0  0  0  0  0
   12.4052   -7.2609    0.0000 H   0  0  0  0  0  0  0  0  0  0  0  0
   11.8408   -7.2609    0.0000 H   0  0  0  0  0  0  0  0  0  0  0  0
   13.5962   -7.9476    0.0000 H   0  0  0  0  0  0  0  0  0  0  0  0
   13.6221   -7.3685    0.0000 H   0  0  0  0  0  0  0  0  0  0  0  0
   12.6021   -6.0079    0.0000 H   0  0  0  0  0  0  0  0  0  0  0  0
   12.1206   -6.3903    0.0000 H   0  0  0  0  0  0  0  0  0  0  0  0
   14.0053   -7.0754    0.0000 H   0  0  0  0  0  0  0  0  0  0  0  0
   14.3756   -6.4341    0.0000 H   0  0  0  0  0  0  0  0  0  0  0  0
   13.0986   -4.8718    0.0000 H   0  0  0  0  0  0  0  0  0  0  0  0
   12.7284   -5.5131    0.0000 H   0  0  0  0  0  0  0  0  0  0  0  0
   14.7198   -5.8379    0.0000 H   0  0  0  0  0  0  0  0  0  0  0  0
   15.0900   -5.1966    0.0000 H   0  0  0  0  0  0  0  0  0  0  0  0
   13.8131   -3.6343    0.0000 H   0  0  0  0  0  0  0  0  0  0  0  0
   13.4428   -4.2756    0.0000 H   0  0  0  0  0  0  0  0  0  0  0  0
   15.4342   -4.6004    0.0000 H   0  0  0  0  0  0  0  0  0  0  0  0
   15.8045   -3.9591    0.0000 H   0  0  0  0  0  0  0  0  0  0  0  0
   14.5276   -2.3968    0.0000 H   0  0  0  0  0  0  0  0  0  0  0  0
   14.1573   -3.0381    0.0000 H   0  0  0  0  0  0  0  0  0  0  0  0
   16.1487   -3.3629    0.0000 H   0  0  0  0  0  0  0  0  0  0  0  0
   16.5190   -2.7216    0.0000 H   0  0  0  0  0  0  0  0  0  0  0  0
   15.2420   -1.1593    0.0000 H   0  0  0  0  0  0  0  0  0  0  0  0
   14.8718   -1.8006    0.0000 H   0  0  0  0  0  0  0  0  0  0  0  0
   16.8632   -2.1254    0.0000 H   0  0  0  0  0  0  0  0  0  0  0  0
   17.2334   -1.4841    0.0000 H   0  0  0  0  0  0  0  0  0  0  0  0
   15.9565    0.0782    0.0000 H   0  0  0  0  0  0  0  0  0  0  0  0
   15.5862   -0.5631    0.0000 H   0  0  0  0  0  0  0  0  0  0  0  0
   17.5777   -0.8879    0.0000 H   0  0  0  0  0  0  0  0  0  0  0  0
   17.9479   -0.2466    0.0000 H   0  0  0  0  0  0  0  0  0  0  0  0
   16.6710    1.3157    0.0000 H   0  0  0  0  0  0  0  0  0  0  0  0
   16.3007    0.6744    0.0000 H   0  0  0  0  0  0  0  0  0  0  0  0
   18.2921    0.3496    0.0000 H   0  0  0  0  0  0  0  0  0  0  0  0
   18.6624    0.9909    0.0000 H   0  0  0  0  0  0  0  0  0  0  0  0
   18.6638    1.8639    0.0000 H   0  0  0  0  0  0  0  0  0  0  0  0
   17.8388    2.6889    0.0000 H   0  0  0  0  0  0  0  0  0  0  0  0
   17.0138    1.8639    0.0000 H   0  0  0  0  0  0  0  0  0  0  0  0
  1  2  1  0  0  0  0
  2  3  1  0  0  0  0
  3  4  1  0  0  0  0
  4  5  1  0  0  0  0
  5  6  1  0  0  0  0
  6  7  1  0  0  0  0
  7  8  1  0  0  0  0
  8  9  1  0  0  0  0
  9 10  1  0  0  0  0
 10 11  1  0  0  0  0
 11 12  1  0  0  0  0
 12 13  1  0  0  0  0
 13 14  1  0  0  0  0
 14 15  1  0  0  0  0
 15 16  1  0  0  0  0
 16 17  1  0  0  0  0
 17 18  1  0  0  0  0
 18 19  2  0  0  0  0
 18 20  1  0  0  0  0
 20 21  1  0  0  0  0
 21 22  1  0  0  0  0
 22 23  1  0  0  0  0
 23 24  1  0  0  0  0
 24 25  2  0  0  0  0
 24 26  1  0  0  0  0
 26 27  1  0  0  0  0
 27 28  1  0  0  0  0
 28 29  1  0  0  0  0
 29 30  1  0  0  0  0
 30 31  1  0  0  0  0
 31 32  1  0  0  0  0
 32 33  1  0  0  0  0
 33 34  1  0  0  0  0
 34 35  1  0  0  0  0
 35 36  1  0  0  0  0
 36 37  1  0  0  0  0
 37 38  1  0  0  0  0
 38 39  1  0  0  0  0
 39 40  1  0  0  0  0
 40 41  1  0  0  0  0
 41 42  1  0  0  0  0
 22 43  1  0  0  0  0
 43 44  1  0  0  0  0
 44 45  1  0  0  0  0
 45 46  1  0  0  0  0
 46 47  1  0  0  0  0
 46 48  1  0  0  0  0
 43 48  1  0  0  0  0
 48 49  1  0  0  0  0
 49 50  1  0  0  0  0
 50 51  2  0  0  0  0
 50 52  1  0  0  0  0
 52 53  1  0  0  0  0
 53 54  1  0  0  0  0
 54 55  1  0  0  0  0
 55 56  1  0  0  0  0
 56 57  1  0  0  0  0
 57 58  1  0  0  0  0
 58 59  1  0  0  0  0
 59 60  1  0  0  0  0
 60 61  1  0  0  0  0
 61 62  1  0  0  0  0
 62 63  1  0  0  0  0
 63 64  1  0  0  0  0
 64 65  1  0  0  0  0
 65 66  1  0  0  0  0
 66 67  1  0  0  0  0
 67 68  1  0  0  0  0
  1 69  1  0  0  0  0
  1 70  1  0  0  0  0
  1 71  1  0  0  0  0
  2 72  1  0  0  0  0
  2 73  1  0  0  0  0
  3 74  1  0  0  0  0
  3 75  1  0  0  0  0
  4 76  1  0  0  0  0
  4 77  1  0  0  0  0
  5 78  1  0  0  0  0
  5 79  1  0  0  0  0
  6 80  1  0  0  0  0
  6 81  1  0  0  0  0
  7 82  1  0  0  0  0
  7 83  1  0  0  0  0
  8 84  1  0  0  0  0
  8 85  1  0  0  0  0
  9 86  1  0  0  0  0
  9 87  1  0  0  0  0
 10 88  1  0  0  0  0
 10 89  1  0  0  0  0
 11 90  1  0  0  0  0
 11 91  1  0  0  0  0
 12 92  1  0  0  0  0
 12 93  1  0  0  0  0
 13 94  1  0  0  0  0
 13 95  1  0  0  0  0
 14 96  1  0  0  0  0
 14 97  1  0  0  0  0
 15 98  1  0  0  0  0
 15 99  1  0  0  0  0
 16100  1  0  0  0  0
 16101  1  0  0  0  0
 17102  1  0  0  0  0
 17103  1  0  0  0  0
 21104  1  0  0  0  0
 21105  1  0  0  0  0
 22106  1  0  0  0  0
 26107  1  0  0  0  0
 26108  1  0  0  0  0
 27109  1  0  0  0  0
 27110  1  0  0  0  0
 28111  1  0  0  0  0
 28112  1  0  0  0  0
 29113  1  0  0  0  0
 29114  1  0  0  0  0
 30115  1  0  0  0  0
 30116  1  0  0  0  0
 31117  1  0  0  0  0
 31118  1  0  0  0  0
 32119  1  0  0  0  0
 32120  1  0  0  0  0
 33121  1  0  0  0  0
 33122  1  0  0  0  0
 34123  1  0  0  0  0
 34124  1  0  0  0  0
 35125  1  0  0  0  0
 35126  1  0  0  0  0
 36127  1  0  0  0  0
 36128  1  0  0  0  0
 37129  1  0  0  0  0
 37130  1  0  0  0  0
 38131  1  0  0  0  0
 38132  1  0  0  0  0
 39133  1  0  0  0  0
 39134  1  0  0  0  0
 40135  1  0  0  0  0
 40136  1  0  0  0  0
 41137  1  0  0  0  0
 41138  1  0  0  0  0
 42139  1  0  0  0  0
 42140  1  0  0  0  0
 42141  1  0  0  0  0
 43142  1  0  0  0  0
 45143  1  0  0  0  0
 45144  1  0  0  0  0
 46145  1  0  0  0  0
 47146  1  0  0  0  0
 48147  1  0  0  0  0
 52148  1  0  0  0  0
 52149  1  0  0  0  0
 53150  1  0  0  0  0
 53151  1  0  0  0  0
 54152  1  0  0  0  0
 54153  1  0  0  0  0
 55154  1  0  0  0  0
 55155  1  0  0  0  0
 56156  1  0  0  0  0
 56157  1  0  0  0  0
 57158  1  0  0  0  0
 57159  1  0  0  0  0
 58160  1  0  0  0  0
 58161  1  0  0  0  0
 59162  1  0  0  0  0
 59163  1  0  0  0  0
 60164  1  0  0  0  0
 60165  1  0  0  0  0
 61166  1  0  0  0  0
 61167  1  0  0  0  0
 62168  1  0  0  0  0
 62169  1  0  0  0  0
 63170  1  0  0  0  0
 63171  1  0  0  0  0
 64172  1  0  0  0  0
 64173  1  0  0  0  0
 65174  1  0  0  0  0
 65175  1  0  0  0  0
 66176  1  0  0  0  0
 66177  1  0  0  0  0
 67178  1  0  0  0  0
 67179  1  0  0  0  0
 68180  1  0  0  0  0
 68181  1  0  0  0  0
 68182  1  0  0  0  0
M  END
>  <InChIKey>
InChI=1S/C60H114O8/c1-4-7-10-13-16-19-22-25-28-31-34-37-40-43-46-49-56(62)65-53-55(67-57(63)50-47-44-41-38-35-32-29-26-23-20-17-14-11-8-5-2)60-59(54(61)52-66-60)68-58(64)51-48-45-42-39-36-33-30-27-24-21-18-15-12-9-6-3/h54-55,59-61H,4-53H2,1-3H3

>  <CASRN>
26658-19-5

> <Outcome>
0

>  <Index>
1769

>  <StandardizerResult>
Clear Stereo (ID: ClearStereo)
Wedge Clean (ID: WedgeClean)
Mesomerize (ID: Mesomerize)
Tautomerize (ID: Tautomerize)
Add Explicit Hydrogens (ID: AddExplicitH)
Neutralize (ID: Neutralize)
Clean 2D (ID: Clean2D)

> <knn Distance>
3.74165749549866

> <CpId>
1769

$$$$
1773
  Mrv1532301301811342D          

 18 18  0  0  0  0            999 V2000
    0.7939    2.0625    0.0000 O   0  0  0  0  0  0  0  0  0  0  0  0
    0.7939    1.2375    0.0000 C   0  0  0  0  0  0  0  0  0  0  0  0
    1.5083    0.8250    0.0000 C   0  0  0  0  0  0  0  0  0  0  0  0
    1.5083   -0.0000    0.0000 C   0  0  0  0  0  0  0  0  0  0  0  0
    0.7939   -0.4125    0.0000 C   0  0  0  0  0  0  0  0  0  0  0  0
    0.7939   -1.2375    0.0000 O   0  0  0  0  0  0  0  0  0  0  0  0
    0.0794   -0.0000    0.0000 C   0  0  0  0  0  0  0  0  0  0  0  0
    0.0794    0.8250    0.0000 C   0  0  0  0  0  0  0  0  0  0  0  0
   -0.6351   -0.4125    0.0000 S   0  0  0  0  0  0  0  0  0  0  0  0
   -1.3496   -0.8250    0.0000 O   0  0  0  0  0  0  0  0  0  0  0  0
   -1.0476    0.3020    0.0000 O   0  0  0  0  0  0  0  0  0  0  0  0
   -0.2226   -1.1270    0.0000 O   0  0  0  0  0  0  0  0  0  0  0  0
    1.5083    2.4750    0.0000 H   0  0  0  0  0  0  0  0  0  0  0  0
    2.2228    1.2375    0.0000 H   0  0  0  0  0  0  0  0  0  0  0  0
    2.2228   -0.4125    0.0000 H   0  0  0  0  0  0  0  0  0  0  0  0
    0.0794   -1.6500    0.0000 H   0  0  0  0  0  0  0  0  0  0  0  0
   -0.6351    1.2375    0.0000 H   0  0  0  0  0  0  0  0  0  0  0  0
   -2.0640   -0.4125    0.0000 H   0  0  0  0  0  0  0  0  0  0  0  0
  1  2  1  0  0  0  0
  2  3  4  0  0  0  0
  3  4  4  0  0  0  0
  4  5  4  0  0  0  0
  5  6  1  0  0  0  0
  5  7  4  0  0  0  0
  7  8  4  0  0  0  0
  2  8  4  0  0  0  0
  7  9  1  0  0  0  0
  9 10  1  0  0  0  0
  9 11  2  0  0  0  0
  9 12  2  0  0  0  0
  1 13  1  0  0  0  0
  3 14  1  0  0  0  0
  4 15  1  0  0  0  0
  6 16  1  0  0  0  0
  8 17  1  0  0  0  0
 10 18  1  0  0  0  0
M  END
>  <InChIKey>
InChI=1S/C6H6O5S/c7-4-1-2-5(8)6(3-4)12(9,10)11/h1-3,7-8H,(H,9,10,11)

>  <CASRN>
88-46-0

> <Outcome>
0

>  <Index>
1773

>  <StandardizerResult>
Dearomatize (ID: Dearomatize)
Clear Stereo (ID: ClearStereo)
Wedge Clean (ID: WedgeClean)
Mesomerize (ID: Mesomerize)
Tautomerize (ID: Tautomerize)
Aromatize (ID: Aromatize)
Add Explicit Hydrogens (ID: AddExplicitH)
Neutralize (ID: Neutralize)
Clean 2D (ID: Clean2D)

> <knn Distance>
3.74165749549866

> <CpId>
1773

$$$$
1859
  Mrv1532301301811342D          

 15 15  0  0  0  0            999 V2000
    0.7145    2.0625    0.0000 N   0  0  0  0  0  0  0  0  0  0  0  0
    0.7145    1.2375    0.0000 C   0  0  0  0  0  0  0  0  0  0  0  0
    1.4289    0.8250    0.0000 N   0  0  0  0  0  0  0  0  0  0  0  0
    1.4289    0.0000    0.0000 C   0  0  0  0  0  0  0  0  0  0  0  0
    2.1434   -0.4125    0.0000 N   0  0  0  0  0  0  0  0  0  0  0  0
    0.7145   -0.4125    0.0000 N   0  0  0  0  0  0  0  0  0  0  0  0
   -0.0000    0.0000    0.0000 C   0  0  0  0  0  0  0  0  0  0  0  0
   -0.7145   -0.4125    0.0000 N   0  0  0  0  0  0  0  0  0  0  0  0
   -0.0000    0.8250    0.0000 N   0  0  0  0  0  0  0  0  0  0  0  0
    1.4289    2.4750    0.0000 H   0  0  0  0  0  0  0  0  0  0  0  0
   -0.0000    2.4750    0.0000 H   0  0  0  0  0  0  0  0  0  0  0  0
    2.1434   -1.2375    0.0000 H   0  0  0  0  0  0  0  0  0  0  0  0
    2.8579    0.0000    0.0000 H   0  0  0  0  0  0  0  0  0  0  0  0
   -1.4289    0.0000    0.0000 H   0  0  0  0  0  0  0  0  0  0  0  0
   -0.7145   -1.2375    0.0000 H   0  0  0  0  0  0  0  0  0  0  0  0
  1  2  1  0  0  0  0
  2  3  4  0  0  0  0
  3  4  4  0  0  0  0
  4  5  1  0  0  0  0
  4  6  4  0  0  0  0
  6  7  4  0  0  0  0
  7  8  1  0  0  0  0
  7  9  4  0  0  0  0
  2  9  4  0  0  0  0
  1 10  1  0  0  0  0
  1 11  1  0  0  0  0
  5 12  1  0  0  0  0
  5 13  1  0  0  0  0
  8 14  1  0  0  0  0
  8 15  1  0  0  0  0
M  END
>  <InChIKey>
InChI=1S/C3H6N6/c4-1-7-2(5)9-3(6)8-1/h(H6,4,5,6,7,8,9)

>  <CASRN>
108-78-1

> <Outcome>
0

>  <Index>
1859

>  <StandardizerResult>
Dearomatize (ID: Dearomatize)
Clear Stereo (ID: ClearStereo)
Wedge Clean (ID: WedgeClean)
Mesomerize (ID: Mesomerize)
Tautomerize (ID: Tautomerize)
Aromatize (ID: Aromatize)
Add Explicit Hydrogens (ID: AddExplicitH)
Neutralize (ID: Neutralize)
Clean 2D (ID: Clean2D)

> <knn Distance>
3.74165749549866

> <CpId>
1859

$$$$
1860
  Mrv1532301301811342D          

 49 50  0  0  0  0            999 V2000
   -0.1637    2.5133    0.0000 C   0  0  0  0  0  0  0  0  0  0  0  0
   -0.1637    1.6883    0.0000 C   0  0  0  0  0  0  0  0  0  0  0  0
    0.5508    1.2758    0.0000 N   0  3  0  0  0  0  0  0  0  0  0  0
    0.1383    0.5613    0.0000 C   0  0  0  0  0  0  0  0  0  0  0  0
    0.9633    1.9902    0.0000 C   0  0  0  0  0  0  0  0  0  0  0  0
    1.2653    0.8633    0.0000 C   0  0  0  0  0  0  0  0  0  0  0  0
    1.9798    1.2758    0.0000 C   0  0  0  0  0  0  0  0  0  0  0  0
    1.2653    0.0383    0.0000 C   0  0  0  0  0  0  0  0  0  0  0  0
    1.9798   -0.3742    0.0000 C   0  0  0  0  0  0  0  0  0  0  0  0
    1.9798   -1.1992    0.0000 C   0  0  0  0  0  0  0  0  0  0  0  0
    2.6942   -1.6117    0.0000 C   0  0  0  0  0  0  0  0  0  0  0  0
    2.6942   -2.4367    0.0000 C   0  0  0  0  0  0  0  0  0  0  0  0
    1.9798   -2.8492    0.0000 C   0  0  0  0  0  0  0  0  0  0  0  0
    1.2653   -2.4367    0.0000 C   0  0  0  0  0  0  0  0  0  0  0  0
    1.2653   -1.6117    0.0000 C   0  0  0  0  0  0  0  0  0  0  0  0
    2.6942    0.0383    0.0000 C   0  0  0  0  0  0  0  0  0  0  0  0
    2.6942    0.8633    0.0000 C   0  0  0  0  0  0  0  0  0  0  0  0
    3.4087    1.2758    0.0000 C   0  0  0  0  0  0  0  0  0  0  0  0
    4.1232    0.8633    0.0000 C   0  0  0  0  0  0  0  0  0  0  0  0
    4.1232    0.0383    0.0000 C   0  0  0  0  0  0  0  0  0  0  0  0
    3.4087   -0.3742    0.0000 C   0  0  0  0  0  0  0  0  0  0  0  0
    0.6613    2.5133    0.0000 H   0  0  0  0  0  0  0  0  0  0  0  0
   -0.1637    3.3383    0.0000 H   0  0  0  0  0  0  0  0  0  0  0  0
   -0.9887    2.5133    0.0000 H   0  0  0  0  0  0  0  0  0  0  0  0
   -0.9873    1.6403    0.0000 H   0  0  0  0  0  0  0  0  0  0  0  0
   -0.6170    0.9990    0.0000 H   0  0  0  0  0  0  0  0  0  0  0  0
   -0.5168    0.0599    0.0000 H   0  0  0  0  0  0  0  0  0  0  0  0
    0.3512   -0.2358    0.0000 H   0  0  0  0  0  0  0  0  0  0  0  0
    0.9562    0.4533    0.0000 H   0  0  0  0  0  0  0  0  0  0  0  0
    1.3758    1.2758    0.0000 H   0  0  0  0  0  0  0  0  0  0  0  0
    1.7883    1.9902    0.0000 H   0  0  0  0  0  0  0  0  0  0  0  0
    1.3758    2.7047    0.0000 H   0  0  0  0  0  0  0  0  0  0  0  0
    1.9798    0.4508    0.0000 H   0  0  0  0  0  0  0  0  0  0  0  0
    2.8030    1.3297    0.0000 H   0  0  0  0  0  0  0  0  0  0  0  0
    2.6343    1.7780    0.0000 H   0  0  0  0  0  0  0  0  0  0  0  0
    2.2449    2.0570    0.0000 H   0  0  0  0  0  0  0  0  0  0  0  0
    0.8669   -0.6842    0.0000 H   0  0  0  0  0  0  0  0  0  0  0  0
    1.4866   -0.7565    0.0000 H   0  0  0  0  0  0  0  0  0  0  0  0
    2.6942   -0.7867    0.0000 H   0  0  0  0  0  0  0  0  0  0  0  0
    3.5192   -1.6117    0.0000 H   0  0  0  0  0  0  0  0  0  0  0  0
    3.4087   -2.8492    0.0000 H   0  0  0  0  0  0  0  0  0  0  0  0
    1.9798   -3.6742    0.0000 H   0  0  0  0  0  0  0  0  0  0  0  0
    0.5508   -2.8492    0.0000 H   0  0  0  0  0  0  0  0  0  0  0  0
    0.4469   -1.5076    0.0000 H   0  0  0  0  0  0  0  0  0  0  0  0
    3.4087    0.4508    0.0000 H   0  0  0  0  0  0  0  0  0  0  0  0
    3.8395    1.9793    0.0000 H   0  0  0  0  0  0  0  0  0  0  0  0
    4.8376    1.2758    0.0000 H   0  0  0  0  0  0  0  0  0  0  0  0
    4.8376   -0.3742    0.0000 H   0  0  0  0  0  0  0  0  0  0  0  0
    3.8212   -1.0887    0.0000 H   0  0  0  0  0  0  0  0  0  0  0  0
  1  2  1  0  0  0  0
  2  3  1  0  0  0  0
  3  4  1  0  0  0  0
  3  5  1  0  0  0  0
  3  6  1  0  0  0  0
  6  7  1  0  0  0  0
  6  8  1  0  0  0  0
  8  9  1  0  0  0  0
  9 10  1  0  0  0  0
 10 11  4  0  0  0  0
 11 12  4  0  0  0  0
 12 13  4  0  0  0  0
 13 14  4  0  0  0  0
 14 15  4  0  0  0  0
 10 15  4  0  0  0  0
  9 16  1  0  0  0  0
 16 17  4  0  0  0  0
 17 18  4  0  0  0  0
 18 19  4  0  0  0  0
 19 20  4  0  0  0  0
 20 21  4  0  0  0  0
 16 21  4  0  0  0  0
  1 22  1  0  0  0  0
  1 23  1  0  0  0  0
  1 24  1  0  0  0  0
  2 25  1  0  0  0  0
  2 26  1  0  0  0  0
  4 27  1  0  0  0  0
  4 28  1  0  0  0  0
  4 29  1  0  0  0  0
  5 30  1  0  0  0  0
  5 31  1  0  0  0  0
  5 32  1  0  0  0  0
  6 33  1  0  0  0  0
  7 34  1  0  0  0  0
  7 35  1  0  0  0  0
  7 36  1  0  0  0  0
  8 37  1  0  0  0  0
  8 38  1  0  0  0  0
  9 39  1  0  0  0  0
 11 40  1  0  0  0  0
 12 41  1  0  0  0  0
 13 42  1  0  0  0  0
 14 43  1  0  0  0  0
 15 44  1  0  0  0  0
 17 45  1  0  0  0  0
 18 46  1  0  0  0  0
 19 47  1  0  0  0  0
 20 48  1  0  0  0  0
 21 49  1  0  0  0  0
M  CHG  1   3   1
M  END
>  <InChIKey>
InChI=1S/C20H28N/c1-5-21(3,4)17(2)16-20(18-12-8-6-9-13-18)19-14-10-7-11-15-19/h6-15,17,20H,5,16H2,1-4H3/q+1

>  <CASRN>
27892-33-7

> <Outcome>
0

>  <Index>
1860

>  <StandardizerResult>
Dearomatize (ID: Dearomatize)
Clear Stereo (ID: ClearStereo)
Wedge Clean (ID: WedgeClean)
Mesomerize (ID: Mesomerize)
Tautomerize (ID: Tautomerize)
Aromatize (ID: Aromatize)
Add Explicit Hydrogens (ID: AddExplicitH)
Clean 2D (ID: Clean2D)

> <knn Distance>
3.74165749549866

> <CpId>
1860

$$$$
1951
  Mrv1532301301811342D          

 23 22  0  0  0  0            999 V2000
   -0.7496   -3.5506    0.0000 O   0  0  0  0  0  0  0  0  0  0  0  0
   -0.0351   -3.9631    0.0000 C   0  0  0  0  0  0  0  0  0  0  0  0
    0.6794   -3.5506    0.0000 C   0  0  0  0  0  0  0  0  0  0  0  0
    0.6794   -2.7256    0.0000 N   0  0  0  0  0  0  0  0  0  0  0  0
   -0.0351   -2.3131    0.0000 C   0  0  0  0  0  0  0  0  0  0  0  0
   -0.0351   -1.4881    0.0000 C   0  0  0  0  0  0  0  0  0  0  0  0
    0.6794   -1.0756    0.0000 O   0  0  0  0  0  0  0  0  0  0  0  0
   -0.7496   -1.0756    0.0000 O   0  0  0  0  0  0  0  0  0  0  0  0
    1.3938   -2.3131    0.0000 C   0  0  0  0  0  0  0  0  0  0  0  0
    1.3938   -1.4881    0.0000 C   0  0  0  0  0  0  0  0  0  0  0  0
    2.1083   -1.0756    0.0000 O   0  0  0  0  0  0  0  0  0  0  0  0
    1.0583   -0.7344    0.0000 O   0  0  0  0  0  0  0  0  0  0  0  0
   -0.7496   -2.7256    0.0000 H   0  0  0  0  0  0  0  0  0  0  0  0
   -0.4054   -4.7003    0.0000 H   0  0  0  0  0  0  0  0  0  0  0  0
    0.3352   -4.7003    0.0000 H   0  0  0  0  0  0  0  0  0  0  0  0
    1.1327   -4.2398    0.0000 H   0  0  0  0  0  0  0  0  0  0  0  0
    1.5030   -3.5985    0.0000 H   0  0  0  0  0  0  0  0  0  0  0  0
   -0.0351   -3.1381    0.0000 H   0  0  0  0  0  0  0  0  0  0  0  0
   -0.7496   -1.9006    0.0000 H   0  0  0  0  0  0  0  0  0  0  0  0
    0.1944   -0.4081    0.0000 H   0  0  0  0  0  0  0  0  0  0  0  0
    1.8472   -3.0023    0.0000 H   0  0  0  0  0  0  0  0  0  0  0  0
    2.2174   -2.3610    0.0000 H   0  0  0  0  0  0  0  0  0  0  0  0
    2.8228   -1.4881    0.0000 H   0  0  0  0  0  0  0  0  0  0  0  0
  1  2  1  0  0  0  0
  2  3  1  0  0  0  0
  3  4  1  0  0  0  0
  4  5  1  0  0  0  0
  5  6  1  0  0  0  0
  6  7  1  0  0  0  0
  6  8  2  0  0  0  0
  4  9  1  0  0  0  0
  9 10  1  0  0  0  0
 10 11  1  0  0  0  0
 10 12  2  0  0  0  0
  1 13  1  0  0  0  0
  2 14  1  0  0  0  0
  2 15  1  0  0  0  0
  3 16  1  0  0  0  0
  3 17  1  0  0  0  0
  5 18  1  0  0  0  0
  5 19  1  0  0  0  0
  7 20  1  0  0  0  0
  9 21  1  0  0  0  0
  9 22  1  0  0  0  0
 11 23  1  0  0  0  0
M  END
>  <InChIKey>
InChI=1S/C6H11NO5/c8-2-1-7(3-5(9)10)4-6(11)12/h8H,1-4H2,(H,9,10)(H,11,12)

>  <UN GHS>
Non-irritant

>  <CASRN>
135-37-5

> <Outcome>
0

>  <Index>
1951

>  <StandardizerResult>
Clear Stereo (ID: ClearStereo)
Wedge Clean (ID: WedgeClean)
Mesomerize (ID: Mesomerize)
Tautomerize (ID: Tautomerize)
Add Explicit Hydrogens (ID: AddExplicitH)
Neutralize (ID: Neutralize)
Clean 2D (ID: Clean2D)

> <knn Distance>
3.74165749549866

> <CpId>
1951

$$$$
2039
  Mrv1532301301811342D          

 51 51  0  0  0  0            999 V2000
   -2.9360   -0.9373    0.0000 C   0  0  0  0  0  0  0  0  0  0  0  0
   -2.9360   -0.1123    0.0000 C   0  0  0  0  0  0  0  0  0  0  0  0
   -2.1110   -0.1123    0.0000 C   0  0  0  0  0  0  0  0  0  0  0  0
   -3.7610   -0.1123    0.0000 C   0  0  0  0  0  0  0  0  0  0  0  0
   -2.9360    0.7127    0.0000 C   0  0  0  0  0  0  0  0  0  0  0  0
   -2.2215    1.1252    0.0000 C   0  0  0  0  0  0  0  0  0  0  0  0
   -1.8090    0.4108    0.0000 C   0  0  0  0  0  0  0  0  0  0  0  0
   -2.6340    1.8397    0.0000 C   0  0  0  0  0  0  0  0  0  0  0  0
   -1.5071    1.5377    0.0000 C   0  0  0  0  0  0  0  0  0  0  0  0
   -1.5071    2.3627    0.0000 C   0  0  0  0  0  0  0  0  0  0  0  0
   -0.7926    2.7752    0.0000 C   0  0  0  0  0  0  0  0  0  0  0  0
   -0.0781    2.3627    0.0000 C   0  0  0  0  0  0  0  0  0  0  0  0
    0.6363    2.7752    0.0000 O   0  0  0  0  0  0  0  0  0  0  0  0
    1.3508    2.3627    0.0000 C   0  0  0  0  0  0  0  0  0  0  0  0
    2.0653    2.7752    0.0000 C   0  0  0  0  0  0  0  0  0  0  0  0
    2.7797    2.3627    0.0000 O   0  0  0  0  0  0  0  0  0  0  0  0
    3.4942    2.7752    0.0000 C   0  0  0  0  0  0  0  0  0  0  0  0
    4.2087    2.3627    0.0000 C   0  0  0  0  0  0  0  0  0  0  0  0
    4.9232    2.7752    0.0000 O   0  0  0  0  0  0  0  0  0  0  0  0
   -0.0781    1.5377    0.0000 C   0  0  0  0  0  0  0  0  0  0  0  0
   -0.7926    1.1252    0.0000 C   0  0  0  0  0  0  0  0  0  0  0  0
   -3.7610   -0.9373    0.0000 H   0  0  0  0  0  0  0  0  0  0  0  0
   -2.9360   -1.7623    0.0000 H   0  0  0  0  0  0  0  0  0  0  0  0
   -2.1110   -0.9373    0.0000 H   0  0  0  0  0  0  0  0  0  0  0  0
   -1.4790   -0.6426    0.0000 H   0  0  0  0  0  0  0  0  0  0  0  0
   -1.2986    0.0310    0.0000 H   0  0  0  0  0  0  0  0  0  0  0  0
   -2.5235    0.6022    0.0000 H   0  0  0  0  0  0  0  0  0  0  0  0
   -3.4453    0.6499    0.0000 H   0  0  0  0  0  0  0  0  0  0  0  0
   -4.3444    0.4711    0.0000 H   0  0  0  0  0  0  0  0  0  0  0  0
   -4.5232   -0.4280    0.0000 H   0  0  0  0  0  0  0  0  0  0  0  0
   -2.8261    1.5304    0.0000 H   0  0  0  0  0  0  0  0  0  0  0  0
   -3.5162    1.2993    0.0000 H   0  0  0  0  0  0  0  0  0  0  0  0
   -0.9848    0.4470    0.0000 H   0  0  0  0  0  0  0  0  0  0  0  0
   -1.1929    0.9593    0.0000 H   0  0  0  0  0  0  0  0  0  0  0  0
   -1.6777    1.2252    0.0000 H   0  0  0  0  0  0  0  0  0  0  0  0
   -1.8355    2.0468    0.0000 H   0  0  0  0  0  0  0  0  0  0  0  0
   -2.6208    2.6646    0.0000 H   0  0  0  0  0  0  0  0  0  0  0  0
   -3.4256    2.0723    0.0000 H   0  0  0  0  0  0  0  0  0  0  0  0
   -2.0029    3.0221    0.0000 H   0  0  0  0  0  0  0  0  0  0  0  0
   -0.7926    3.6002    0.0000 H   0  0  0  0  0  0  0  0  0  0  0  0
    0.9805    1.6255    0.0000 H   0  0  0  0  0  0  0  0  0  0  0  0
    1.7211    1.6255    0.0000 H   0  0  0  0  0  0  0  0  0  0  0  0
    2.4355    3.5125    0.0000 H   0  0  0  0  0  0  0  0  0  0  0  0
    1.6950    3.5125    0.0000 H   0  0  0  0  0  0  0  0  0  0  0  0
    3.8645    3.5125    0.0000 H   0  0  0  0  0  0  0  0  0  0  0  0
    3.1240    3.5125    0.0000 H   0  0  0  0  0  0  0  0  0  0  0  0
    3.8384    1.6255    0.0000 H   0  0  0  0  0  0  0  0  0  0  0  0
    4.5789    1.6255    0.0000 H   0  0  0  0  0  0  0  0  0  0  0  0
    5.6376    2.3627    0.0000 H   0  0  0  0  0  0  0  0  0  0  0  0
    0.6363    1.1252    0.0000 H   0  0  0  0  0  0  0  0  0  0  0  0
   -0.1417    0.6183    0.0000 H   0  0  0  0  0  0  0  0  0  0  0  0
  1  2  1  0  0  0  0
  2  3  1  0  0  0  0
  2  4  1  0  0  0  0
  2  5  1  0  0  0  0
  5  6  1  0  0  0  0
  6  7  1  0  0  0  0
  6  8  1  0  0  0  0
  6  9  1  0  0  0  0
  9 10  4  0  0  0  0
 10 11  4  0  0  0  0
 11 12  4  0  0  0  0
 12 13  1  0  0  0  0
 13 14  1  0  0  0  0
 14 15  1  0  0  0  0
 15 16  1  0  0  0  0
 16 17  1  0  0  0  0
 17 18  1  0  0  0  0
 18 19  1  0  0  0  0
 12 20  4  0  0  0  0
 20 21  4  0  0  0  0
  9 21  4  0  0  0  0
  1 22  1  0  0  0  0
  1 23  1  0  0  0  0
  1 24  1  0  0  0  0
  3 25  1  0  0  0  0
  3 26  1  0  0  0  0
  3 27  1  0  0  0  0
  4 28  1  0  0  0  0
  4 29  1  0  0  0  0
  4 30  1  0  0  0  0
  5 31  1  0  0  0  0
  5 32  1  0  0  0  0
  7 33  1  0  0  0  0
  7 34  1  0  0  0  0
  7 35  1  0  0  0  0
  8 36  1  0  0  0  0
  8 37  1  0  0  0  0
  8 38  1  0  0  0  0
 10 39  1  0  0  0  0
 11 40  1  0  0  0  0
 14 41  1  0  0  0  0
 14 42  1  0  0  0  0
 15 43  1  0  0  0  0
 15 44  1  0  0  0  0
 17 45  1  0  0  0  0
 17 46  1  0  0  0  0
 18 47  1  0  0  0  0
 18 48  1  0  0  0  0
 19 49  1  0  0  0  0
 20 50  1  0  0  0  0
 21 51  1  0  0  0  0
M  END
>  <InChIKey>
InChI=1S/C18H30O3/c1-17(2,3)14-18(4,5)15-6-8-16(9-7-15)21-13-12-20-11-10-19/h6-9,19H,10-14H2,1-5H3

>  <UN GHS>
Non-irritant

>  <CASRN>
9036-19-5

> <Outcome>
0

>  <Index>
2039

>  <StandardizerResult>
Dearomatize (ID: Dearomatize)
Clear Stereo (ID: ClearStereo)
Wedge Clean (ID: WedgeClean)
Mesomerize (ID: Mesomerize)
Tautomerize (ID: Tautomerize)
Aromatize (ID: Aromatize)
Add Explicit Hydrogens (ID: AddExplicitH)
Neutralize (ID: Neutralize)
Clean 2D (ID: Clean2D)

> <knn Distance>
3.74165749549866

> <CpId>
2039

$$$$
2097
  Mrv1532301301811342D          

 69 68  0  0  0  0            999 V2000
    1.5317    7.5676    0.0000 C   0  0  0  0  0  0  0  0  0  0  0  0
    1.6877    6.7575    0.0000 C   0  0  0  0  0  0  0  0  0  0  0  0
    2.4672    6.4875    0.0000 C   0  0  0  0  0  0  0  0  0  0  0  0
    2.6231    5.6773    0.0000 C   0  0  0  0  0  0  0  0  0  0  0  0
    3.4027    5.4073    0.0000 C   0  0  0  0  0  0  0  0  0  0  0  0
    3.5586    4.5972    0.0000 C   0  0  0  0  0  0  0  0  0  0  0  0
    4.3381    4.3271    0.0000 C   0  0  0  0  0  0  0  0  0  0  0  0
    4.4940    3.5170    0.0000 C   0  0  0  0  0  0  0  0  0  0  0  0
    5.2736    3.2469    0.0000 C   0  0  0  0  0  0  0  0  0  0  0  0
    5.4295    2.4368    0.0000 C   0  0  0  0  0  0  0  0  0  0  0  0
    6.2091    2.1667    0.0000 C   0  0  0  0  0  0  0  0  0  0  0  0
    6.8327    2.7068    0.0000 C   0  0  0  0  0  0  0  0  0  0  0  0
    7.6122    2.4368    0.0000 C   0  0  0  0  0  0  0  0  0  0  0  0
    8.2359    2.9769    0.0000 C   0  0  0  0  0  0  0  0  0  0  0  0
    9.0154    2.7068    0.0000 C   0  0  0  0  0  0  0  0  0  0  0  0
    9.6391    3.2469    0.0000 C   0  0  0  0  0  0  0  0  0  0  0  0
   10.4186    2.9769    0.0000 C   0  0  0  0  0  0  0  0  0  0  0  0
   11.0423    3.5170    0.0000 C   0  0  0  0  0  0  0  0  0  0  0  0
   10.8864    4.3271    0.0000 O   0  0  0  0  0  0  0  0  0  0  0  0
   11.8218    3.2469    0.0000 N   0  0  0  0  0  0  0  0  0  0  0  0
   12.4455    3.7870    0.0000 C   0  0  0  0  0  0  0  0  0  0  0  0
   13.2250    3.5170    0.0000 C   0  0  0  0  0  0  0  0  0  0  0  0
   13.8487    4.0571    0.0000 O   0  0  0  0  0  0  0  0  0  0  0  0
   11.9777    2.4368    0.0000 C   0  0  0  0  0  0  0  0  0  0  0  0
   12.7573    2.1667    0.0000 C   0  0  0  0  0  0  0  0  0  0  0  0
   12.9132    1.3566    0.0000 O   0  0  0  0  0  0  0  0  0  0  0  0
    2.3419    7.7236    0.0000 H   0  0  0  0  0  0  0  0  0  0  0  0
    1.3758    8.3778    0.0000 H   0  0  0  0  0  0  0  0  0  0  0  0
    0.7216    7.4117    0.0000 H   0  0  0  0  0  0  0  0  0  0  0  0
    0.8880    6.5548    0.0000 H   0  0  0  0  0  0  0  0  0  0  0  0
    1.3727    5.9950    0.0000 H   0  0  0  0  0  0  0  0  0  0  0  0
    3.2669    6.6902    0.0000 H   0  0  0  0  0  0  0  0  0  0  0  0
    2.7821    7.2500    0.0000 H   0  0  0  0  0  0  0  0  0  0  0  0
    1.8234    5.4746    0.0000 H   0  0  0  0  0  0  0  0  0  0  0  0
    2.3082    4.9148    0.0000 H   0  0  0  0  0  0  0  0  0  0  0  0
    4.2024    5.6100    0.0000 H   0  0  0  0  0  0  0  0  0  0  0  0
    3.7176    6.1698    0.0000 H   0  0  0  0  0  0  0  0  0  0  0  0
    2.7589    4.3944    0.0000 H   0  0  0  0  0  0  0  0  0  0  0  0
    3.2437    3.8346    0.0000 H   0  0  0  0  0  0  0  0  0  0  0  0
    5.1378    4.5299    0.0000 H   0  0  0  0  0  0  0  0  0  0  0  0
    4.6530    5.0896    0.0000 H   0  0  0  0  0  0  0  0  0  0  0  0
    3.6943    3.3142    0.0000 H   0  0  0  0  0  0  0  0  0  0  0  0
    4.1791    2.7544    0.0000 H   0  0  0  0  0  0  0  0  0  0  0  0
    5.8972    3.7870    0.0000 H   0  0  0  0  0  0  0  0  0  0  0  0
    4.8059    1.8967    0.0000 H   0  0  0  0  0  0  0  0  0  0  0  0
    5.9848    1.3728    0.0000 H   0  0  0  0  0  0  0  0  0  0  0  0
    6.7120    1.5128    0.0000 H   0  0  0  0  0  0  0  0  0  0  0  0
    7.0570    3.5008    0.0000 H   0  0  0  0  0  0  0  0  0  0  0  0
    6.3298    3.3608    0.0000 H   0  0  0  0  0  0  0  0  0  0  0  0
    7.3880    1.6429    0.0000 H   0  0  0  0  0  0  0  0  0  0  0  0
    8.1152    1.7828    0.0000 H   0  0  0  0  0  0  0  0  0  0  0  0
    8.4601    3.7708    0.0000 H   0  0  0  0  0  0  0  0  0  0  0  0
    7.7330    3.6309    0.0000 H   0  0  0  0  0  0  0  0  0  0  0  0
    8.7912    1.9129    0.0000 H   0  0  0  0  0  0  0  0  0  0  0  0
    9.5184    2.0528    0.0000 H   0  0  0  0  0  0  0  0  0  0  0  0
    9.8633    4.0409    0.0000 H   0  0  0  0  0  0  0  0  0  0  0  0
    9.1362    3.9009    0.0000 H   0  0  0  0  0  0  0  0  0  0  0  0
   10.1944    2.1829    0.0000 H   0  0  0  0  0  0  0  0  0  0  0  0
   10.9215    2.3229    0.0000 H   0  0  0  0  0  0  0  0  0  0  0  0
   12.6697    4.5810    0.0000 H   0  0  0  0  0  0  0  0  0  0  0  0
   11.9426    4.4410    0.0000 H   0  0  0  0  0  0  0  0  0  0  0  0
   13.0008    2.7230    0.0000 H   0  0  0  0  0  0  0  0  0  0  0  0
   13.7279    2.8630    0.0000 H   0  0  0  0  0  0  0  0  0  0  0  0
   14.6282    3.7870    0.0000 H   0  0  0  0  0  0  0  0  0  0  0  0
   11.1780    2.2340    0.0000 H   0  0  0  0  0  0  0  0  0  0  0  0
   11.6628    1.6743    0.0000 H   0  0  0  0  0  0  0  0  0  0  0  0
   13.5772    2.0752    0.0000 H   0  0  0  0  0  0  0  0  0  0  0  0
   12.1336    1.6267    0.0000 H   0  0  0  0  0  0  0  0  0  0  0  0
   13.4533    0.7330    0.0000 H   0  0  0  0  0  0  0  0  0  0  0  0
  1  2  1  0  0  0  0
  2  3  1  0  0  0  0
  3  4  1  0  0  0  0
  4  5  1  0  0  0  0
  5  6  1  0  0  0  0
  6  7  1  0  0  0  0
  7  8  1  0  0  0  0
  9  8  1  4  0  0  0
  9 10  2  0  0  0  0
 10 11  1  0  0  0  0
 11 12  1  0  0  0  0
 12 13  1  0  0  0  0
 13 14  1  0  0  0  0
 14 15  1  0  0  0  0
 15 16  1  0  0  0  0
 16 17  1  0  0  0  0
 17 18  1  0  0  0  0
 18 19  2  0  0  0  0
 18 20  1  0  0  0  0
 20 21  1  0  0  0  0
 21 22  1  0  0  0  0
 22 23  1  0  0  0  0
 20 24  1  0  0  0  0
 24 25  1  0  0  0  0
 25 26  1  0  0  0  0
  1 27  1  0  0  0  0
  1 28  1  0  0  0  0
  1 29  1  0  0  0  0
  2 30  1  0  0  0  0
  2 31  1  0  0  0  0
  3 32  1  0  0  0  0
  3 33  1  0  0  0  0
  4 34  1  0  0  0  0
  4 35  1  0  0  0  0
  5 36  1  0  0  0  0
  5 37  1  0  0  0  0
  6 38  1  0  0  0  0
  6 39  1  0  0  0  0
  7 40  1  0  0  0  0
  7 41  1  0  0  0  0
  8 42  1  0  0  0  0
  8 43  1  0  0  0  0
  9 44  1  0  0  0  0
 10 45  1  0  0  0  0
 11 46  1  0  0  0  0
 11 47  1  0  0  0  0
 12 48  1  0  0  0  0
 12 49  1  0  0  0  0
 13 50  1  0  0  0  0
 13 51  1  0  0  0  0
 14 52  1  0  0  0  0
 14 53  1  0  0  0  0
 15 54  1  0  0  0  0
 15 55  1  0  0  0  0
 16 56  1  0  0  0  0
 16 57  1  0  0  0  0
 17 58  1  0  0  0  0
 17 59  1  0  0  0  0
 21 60  1  0  0  0  0
 21 61  1  0  0  0  0
 22 62  1  0  0  0  0
 22 63  1  0  0  0  0
 23 64  1  0  0  0  0
 24 65  1  0  0  0  0
 24 66  1  0  0  0  0
 25 67  1  0  0  0  0
 25 68  1  0  0  0  0
 26 69  1  0  0  0  0
M  END
>  <InChIKey>
InChI=1S/C22H43NO3/c1-2-3-4-5-6-7-8-9-10-11-12-13-14-15-16-17-22(26)23(18-20-24)19-21-25/h9-10,24-25H,2-8,11-21H2,1H3

>  <CASRN>
93-83-4

> <Outcome>
0

>  <Index>
2097

>  <StandardizerResult>
Clear Stereo (ID: ClearStereo)
Wedge Clean (ID: WedgeClean)
Mesomerize (ID: Mesomerize)
Tautomerize (ID: Tautomerize)
Add Explicit Hydrogens (ID: AddExplicitH)
Neutralize (ID: Neutralize)
Clean 2D (ID: Clean2D)

> <knn Distance>
3.74165749549866

> <CpId>
2097

$$$$
2149
  Mrv1532301301811342D          

 30 31  0  0  0  0            999 V2000
   -0.7937    6.8552    0.0000 C   0  0  0  0  0  0  0  0  0  0  0  0
   -0.7937    6.0302    0.0000 C   0  0  0  0  0  0  0  0  0  0  0  0
   -1.5081    5.6177    0.0000 C   0  0  0  0  0  0  0  0  0  0  0  0
   -2.2226    6.0302    0.0000 O   0  0  0  0  0  0  0  0  0  0  0  0
   -1.5081    4.7927    0.0000 O   0  0  0  0  0  0  0  0  0  0  0  0
   -0.0792    5.6177    0.0000 C   0  0  0  0  0  0  0  0  0  0  0  0
    0.6353    6.0302    0.0000 C   0  0  0  0  0  0  0  0  0  0  0  0
    1.3497    5.6177    0.0000 C   0  0  0  0  0  0  0  0  0  0  0  0
    1.3497    4.7927    0.0000 C   0  0  0  0  0  0  0  0  0  0  0  0
    0.6353    4.3802    0.0000 C   0  0  0  0  0  0  0  0  0  0  0  0
   -0.0792    4.7927    0.0000 C   0  0  0  0  0  0  0  0  0  0  0  0
    2.0642    4.3802    0.0000 C   0  0  0  0  0  0  0  0  0  0  0  0
    2.7787    4.7927    0.0000 O   0  0  0  0  0  0  0  0  0  0  0  0
    2.0642    3.5552    0.0000 C   0  0  0  0  0  0  0  0  0  0  0  0
    2.7316    3.0703    0.0000 C   0  0  0  0  0  0  0  0  0  0  0  0
    2.4767    2.2857    0.0000 C   0  0  0  0  0  0  0  0  0  0  0  0
    1.6517    2.2857    0.0000 C   0  0  0  0  0  0  0  0  0  0  0  0
    1.3968    3.0703    0.0000 S   0  0  0  0  0  0  0  0  0  0  0  0
    0.0313    6.8552    0.0000 H   0  0  0  0  0  0  0  0  0  0  0  0
   -0.7937    7.6802    0.0000 H   0  0  0  0  0  0  0  0  0  0  0  0
   -1.6187    6.8552    0.0000 H   0  0  0  0  0  0  0  0  0  0  0  0
   -1.5081    6.4427    0.0000 H   0  0  0  0  0  0  0  0  0  0  0  0
   -3.0476    6.0302    0.0000 H   0  0  0  0  0  0  0  0  0  0  0  0
    0.6353    6.8552    0.0000 H   0  0  0  0  0  0  0  0  0  0  0  0
    2.0642    6.0302    0.0000 H   0  0  0  0  0  0  0  0  0  0  0  0
    0.6353    3.5552    0.0000 H   0  0  0  0  0  0  0  0  0  0  0  0
   -0.7937    4.3802    0.0000 H   0  0  0  0  0  0  0  0  0  0  0  0
    3.5163    3.3252    0.0000 H   0  0  0  0  0  0  0  0  0  0  0  0
    2.9616    1.6182    0.0000 H   0  0  0  0  0  0  0  0  0  0  0  0
    1.1668    1.6182    0.0000 H   0  0  0  0  0  0  0  0  0  0  0  0
  1  2  1  0  0  0  0
  2  3  1  0  0  0  0
  3  4  1  0  0  0  0
  3  5  2  0  0  0  0
  2  6  1  0  0  0  0
  6  7  4  0  0  0  0
  7  8  4  0  0  0  0
  8  9  4  0  0  0  0
  9 10  4  0  0  0  0
 10 11  4  0  0  0  0
  6 11  4  0  0  0  0
  9 12  1  0  0  0  0
 12 13  2  0  0  0  0
 12 14  1  0  0  0  0
 14 15  4  0  0  0  0
 15 16  4  0  0  0  0
 16 17  4  0  0  0  0
 17 18  4  0  0  0  0
 14 18  4  0  0  0  0
  1 19  1  0  0  0  0
  1 20  1  0  0  0  0
  1 21  1  0  0  0  0
  2 22  1  0  0  0  0
  4 23  1  0  0  0  0
  7 24  1  0  0  0  0
  8 25  1  0  0  0  0
 10 26  1  0  0  0  0
 11 27  1  0  0  0  0
 15 28  1  0  0  0  0
 16 29  1  0  0  0  0
 17 30  1  0  0  0  0
M  END
>  <InChIKey>
InChI=1S/C14H12O3S/c1-9(14(16)17)10-4-6-11(7-5-10)13(15)12-3-2-8-18-12/h2-9H,1H3,(H,16,17)

>  <CASRN>
40828-46-4

> <Outcome>
0

>  <Index>
2149

>  <StandardizerResult>
Dearomatize (ID: Dearomatize)
Clear Stereo (ID: ClearStereo)
Wedge Clean (ID: WedgeClean)
Mesomerize (ID: Mesomerize)
Tautomerize (ID: Tautomerize)
Aromatize (ID: Aromatize)
Add Explicit Hydrogens (ID: AddExplicitH)
Neutralize (ID: Neutralize)
Clean 2D (ID: Clean2D)

> <knn Distance>
3.74165749549866

> <CpId>
2149

$$$$
2227
  Mrv1532301301811342D          

 15 15  0  0  0  0            999 V2000
   -0.0010    2.4744    0.0000 O   0  0  0  0  0  0  0  0  0  0  0  0
    0.7135    2.0619    0.0000 C   0  0  0  0  0  0  0  0  0  0  0  0
    0.7135    1.2369    0.0000 C   0  0  0  0  0  0  0  0  0  0  0  0
    1.4279    0.8244    0.0000 C   0  0  0  0  0  0  0  0  0  0  0  0
    1.4279   -0.0006    0.0000 C   0  0  0  0  0  0  0  0  0  0  0  0
    0.7135   -0.4131    0.0000 C   0  0  0  0  0  0  0  0  0  0  0  0
   -0.0010   -0.0006    0.0000 N   0  0  0  0  0  0  0  0  0  0  0  0
   -0.0010    0.8244    0.0000 C   0  0  0  0  0  0  0  0  0  0  0  0
   -0.0010    3.2994    0.0000 H   0  0  0  0  0  0  0  0  0  0  0  0
    1.5371    2.1099    0.0000 H   0  0  0  0  0  0  0  0  0  0  0  0
    1.1668    2.7512    0.0000 H   0  0  0  0  0  0  0  0  0  0  0  0
    2.1424    1.2369    0.0000 H   0  0  0  0  0  0  0  0  0  0  0  0
    2.1424   -0.4131    0.0000 H   0  0  0  0  0  0  0  0  0  0  0  0
    0.7135   -1.2381    0.0000 H   0  0  0  0  0  0  0  0  0  0  0  0
   -0.7155    1.2369    0.0000 H   0  0  0  0  0  0  0  0  0  0  0  0
  1  2  1  0  0  0  0
  2  3  1  0  0  0  0
  3  4  4  0  0  0  0
  4  5  4  0  0  0  0
  5  6  4  0  0  0  0
  6  7  4  0  0  0  0
  7  8  4  0  0  0  0
  3  8  4  0  0  0  0
  1  9  1  0  0  0  0
  2 10  1  0  0  0  0
  2 11  1  0  0  0  0
  4 12  1  0  0  0  0
  5 13  1  0  0  0  0
  6 14  1  0  0  0  0
  8 15  1  0  0  0  0
M  END
>  <InChIKey>
InChI=1S/C6H7NO/c8-5-6-2-1-3-7-4-6/h1-4,8H,5H2

>  <CASRN>
100-55-0

> <Outcome>
0

>  <Index>
2227

>  <StandardizerResult>
Dearomatize (ID: Dearomatize)
Clear Stereo (ID: ClearStereo)
Wedge Clean (ID: WedgeClean)
Mesomerize (ID: Mesomerize)
Tautomerize (ID: Tautomerize)
Aromatize (ID: Aromatize)
Add Explicit Hydrogens (ID: AddExplicitH)
Neutralize (ID: Neutralize)
Clean 2D (ID: Clean2D)

> <knn Distance>
3.74165749549866

> <CpId>
2227

$$$$
2251
  Mrv1532301301811342D          

 27 29  0  0  0  0            999 V2000
   -2.6550   -0.6502    0.0000 F   0  0  0  0  0  0  0  0  0  0  0  0
   -1.8300   -0.6502    0.0000 C   0  0  0  0  0  0  0  0  0  0  0  0
   -1.4175    0.0642    0.0000 C   0  0  0  0  0  0  0  0  0  0  0  0
   -0.5925    0.0642    0.0000 C   0  0  0  0  0  0  0  0  0  0  0  0
   -0.1800   -0.6502    0.0000 C   0  0  0  0  0  0  0  0  0  0  0  0
   -0.5925   -1.3647    0.0000 C   0  0  0  0  0  0  0  0  0  0  0  0
   -1.4175   -1.3647    0.0000 C   0  0  0  0  0  0  0  0  0  0  0  0
    0.6450   -0.6502    0.0000 C   0  0  0  0  0  0  0  0  0  0  0  0
    1.1299    0.0172    0.0000 C   0  0  0  0  0  0  0  0  0  0  0  0
    0.8749    0.8018    0.0000 O   0  0  0  0  0  0  0  0  0  0  0  0
    1.9145   -0.2377    0.0000 C   0  0  0  0  0  0  0  0  0  0  0  0
    2.6290    0.1748    0.0000 C   0  0  0  0  0  0  0  0  0  0  0  0
    3.3434   -0.2377    0.0000 C   0  0  0  0  0  0  0  0  0  0  0  0
    3.3434   -1.0627    0.0000 C   0  0  0  0  0  0  0  0  0  0  0  0
    2.6290   -1.4752    0.0000 C   0  0  0  0  0  0  0  0  0  0  0  0
    1.9145   -1.0627    0.0000 C   0  0  0  0  0  0  0  0  0  0  0  0
    1.1299   -1.3177    0.0000 C   0  0  0  0  0  0  0  0  0  0  0  0
    0.8749   -2.1023    0.0000 O   0  0  0  0  0  0  0  0  0  0  0  0
   -1.8300    0.7787    0.0000 H   0  0  0  0  0  0  0  0  0  0  0  0
   -0.1800    0.7787    0.0000 H   0  0  0  0  0  0  0  0  0  0  0  0
   -0.1800   -2.0792    0.0000 H   0  0  0  0  0  0  0  0  0  0  0  0
   -1.8300   -2.0792    0.0000 H   0  0  0  0  0  0  0  0  0  0  0  0
    0.2704   -1.3853    0.0000 H   0  0  0  0  0  0  0  0  0  0  0  0
    2.6290    0.9998    0.0000 H   0  0  0  0  0  0  0  0  0  0  0  0
    4.0579    0.1748    0.0000 H   0  0  0  0  0  0  0  0  0  0  0  0
    4.0579   -1.4752    0.0000 H   0  0  0  0  0  0  0  0  0  0  0  0
    2.6290   -2.3002    0.0000 H   0  0  0  0  0  0  0  0  0  0  0  0
  1  2  1  0  0  0  0
  2  3  4  0  0  0  0
  3  4  4  0  0  0  0
  4  5  4  0  0  0  0
  5  6  4  0  0  0  0
  6  7  4  0  0  0  0
  2  7  4  0  0  0  0
  5  8  1  0  0  0  0
  8  9  1  0  0  0  0
  9 10  2  0  0  0  0
  9 11  1  0  0  0  0
 11 12  4  0  0  0  0
 12 13  4  0  0  0  0
 13 14  4  0  0  0  0
 14 15  4  0  0  0  0
 15 16  4  0  0  0  0
 11 16  4  0  0  0  0
 16 17  1  0  0  0  0
  8 17  1  0  0  0  0
 17 18  2  0  0  0  0
  3 19  1  0  0  0  0
  4 20  1  0  0  0  0
  6 21  1  0  0  0  0
  7 22  1  0  0  0  0
  8 23  1  0  0  0  0
 12 24  1  0  0  0  0
 13 25  1  0  0  0  0
 14 26  1  0  0  0  0
 15 27  1  0  0  0  0
M  END
>  <InChIKey>
InChI=1S/C15H9FO2/c16-10-7-5-9(6-8-10)13-14(17)11-3-1-2-4-12(11)15(13)18/h1-8,13H

>  <CASRN>
957-56-2

> <Outcome>
0

>  <Index>
2251

>  <StandardizerResult>
Dearomatize (ID: Dearomatize)
Clear Stereo (ID: ClearStereo)
Wedge Clean (ID: WedgeClean)
Mesomerize (ID: Mesomerize)
Tautomerize (ID: Tautomerize)
Aromatize (ID: Aromatize)
Add Explicit Hydrogens (ID: AddExplicitH)
Neutralize (ID: Neutralize)
Clean 2D (ID: Clean2D)

> <knn Distance>
3.74165749549866

> <CpId>
2251

$$$$
2362
  Mrv1532301301811342D          

 18 17  0  0  0  0            999 V2000
    3.2762    1.4461    0.0000 C   0  0  0  0  0  0  0  0  0  0  0  0
    2.8637    0.7316    0.0000 O   0  0  0  0  0  0  0  0  0  0  0  0
    2.0387    0.7316    0.0000 P   0  0  0  0  0  0  0  0  0  0  0  0
    2.0387    1.5566    0.0000 O   0  0  0  0  0  0  0  0  0  0  0  0
    2.0387   -0.0934    0.0000 O   0  0  0  0  0  0  0  0  0  0  0  0
    1.3242   -0.5059    0.0000 C   0  0  0  0  0  0  0  0  0  0  0  0
    1.2137    0.7316    0.0000 O   0  0  0  0  0  0  0  0  0  0  0  0
    0.8012    0.0172    0.0000 C   0  0  0  0  0  0  0  0  0  0  0  0
   -0.0238    0.0172    0.0000 C   0  0  0  0  0  0  0  0  0  0  0  0
   -0.4363   -0.6973    0.0000 Cl  0  0  0  0  0  0  0  0  0  0  0  0
   -0.4363    0.7316    0.0000 Cl  0  0  0  0  0  0  0  0  0  0  0  0
    3.9907    1.0336    0.0000 H   0  0  0  0  0  0  0  0  0  0  0  0
    3.6887    2.1606    0.0000 H   0  0  0  0  0  0  0  0  0  0  0  0
    2.5617    1.8586    0.0000 H   0  0  0  0  0  0  0  0  0  0  0  0
    0.5430   -0.7711    0.0000 H   0  0  0  0  0  0  0  0  0  0  0  0
    1.2165   -1.3238    0.0000 H   0  0  0  0  0  0  0  0  0  0  0  0
    2.0102   -0.9642    0.0000 H   0  0  0  0  0  0  0  0  0  0  0  0
    1.6191    0.1248    0.0000 H   0  0  0  0  0  0  0  0  0  0  0  0
  1  2  1  0  0  0  0
  2  3  1  0  0  0  0
  3  4  2  0  0  0  0
  3  5  1  0  0  0  0
  5  6  1  0  0  0  0
  3  7  1  0  0  0  0
  7  8  1  0  0  0  0
  8  9  2  0  0  0  0
  9 10  1  0  0  0  0
  9 11  1  0  0  0  0
  1 12  1  0  0  0  0
  1 13  1  0  0  0  0
  1 14  1  0  0  0  0
  6 15  1  0  0  0  0
  6 16  1  0  0  0  0
  6 17  1  0  0  0  0
  8 18  1  0  0  0  0
M  END
>  <InChIKey>
InChI=1S/C4H7Cl2O4P/c1-8-11(7,9-2)10-3-4(5)6/h3H,1-2H3

>  <CASRN>
62-73-7

> <Outcome>
0

>  <Index>
2362

>  <StandardizerResult>
Clear Stereo (ID: ClearStereo)
Wedge Clean (ID: WedgeClean)
Mesomerize (ID: Mesomerize)
Tautomerize (ID: Tautomerize)
Add Explicit Hydrogens (ID: AddExplicitH)
Neutralize (ID: Neutralize)
Clean 2D (ID: Clean2D)

> <knn Distance>
3.74165749549866

> <CpId>
2362

$$$$
2391
  Mrv1532301301811342D          

 41 43  0  0  0  0            999 V2000
   -0.6416   -0.7171    0.0000 C   0  0  0  0  0  0  0  0  0  0  0  0
   -0.6416   -1.5421    0.0000 C   0  0  0  0  0  0  0  0  0  0  0  0
    0.0729   -1.9546    0.0000 C   0  0  0  0  0  0  0  0  0  0  0  0
    0.0729   -2.7796    0.0000 C   0  0  0  0  0  0  0  0  0  0  0  0
   -0.6416   -3.1921    0.0000 C   0  0  0  0  0  0  0  0  0  0  0  0
   -0.6416   -4.0171    0.0000 O   0  0  0  0  0  0  0  0  0  0  0  0
    0.0729   -4.4296    0.0000 P   0  0  0  0  0  0  0  0  0  0  0  0
   -0.3396   -5.1441    0.0000 O   0  0  0  0  0  0  0  0  0  0  0  0
    0.7873   -4.8421    0.0000 O   0  0  0  0  0  0  0  0  0  0  0  0
    0.7873   -5.6671    0.0000 C   0  0  0  0  0  0  0  0  0  0  0  0
    1.5018   -6.0796    0.0000 C   0  0  0  0  0  0  0  0  0  0  0  0
    1.5018   -6.9046    0.0000 C   0  0  0  0  0  0  0  0  0  0  0  0
    0.7873   -7.3171    0.0000 C   0  0  0  0  0  0  0  0  0  0  0  0
    0.0729   -6.9046    0.0000 C   0  0  0  0  0  0  0  0  0  0  0  0
    0.0729   -6.0796    0.0000 C   0  0  0  0  0  0  0  0  0  0  0  0
    0.4854   -3.7151    0.0000 O   0  0  0  0  0  0  0  0  0  0  0  0
    1.3104   -3.7151    0.0000 C   0  0  0  0  0  0  0  0  0  0  0  0
    1.7229   -3.0006    0.0000 C   0  0  0  0  0  0  0  0  0  0  0  0
    2.5479   -3.0006    0.0000 C   0  0  0  0  0  0  0  0  0  0  0  0
    2.9604   -3.7151    0.0000 C   0  0  0  0  0  0  0  0  0  0  0  0
    2.5479   -4.4296    0.0000 C   0  0  0  0  0  0  0  0  0  0  0  0
    1.7229   -4.4296    0.0000 C   0  0  0  0  0  0  0  0  0  0  0  0
   -1.3561   -2.7796    0.0000 C   0  0  0  0  0  0  0  0  0  0  0  0
   -1.3561   -1.9546    0.0000 C   0  0  0  0  0  0  0  0  0  0  0  0
    0.1834   -0.7171    0.0000 H   0  0  0  0  0  0  0  0  0  0  0  0
   -0.6416    0.1079    0.0000 H   0  0  0  0  0  0  0  0  0  0  0  0
   -1.4666   -0.7171    0.0000 H   0  0  0  0  0  0  0  0  0  0  0  0
    0.7873   -1.5421    0.0000 H   0  0  0  0  0  0  0  0  0  0  0  0
    0.7873   -3.1921    0.0000 H   0  0  0  0  0  0  0  0  0  0  0  0
    2.2163   -5.6671    0.0000 H   0  0  0  0  0  0  0  0  0  0  0  0
    2.2163   -7.3171    0.0000 H   0  0  0  0  0  0  0  0  0  0  0  0
    0.7873   -8.1421    0.0000 H   0  0  0  0  0  0  0  0  0  0  0  0
   -0.6416   -7.3171    0.0000 H   0  0  0  0  0  0  0  0  0  0  0  0
   -0.6416   -5.6671    0.0000 H   0  0  0  0  0  0  0  0  0  0  0  0
    1.6398   -2.1798    0.0000 H   0  0  0  0  0  0  0  0  0  0  0  0
    2.9604   -2.2862    0.0000 H   0  0  0  0  0  0  0  0  0  0  0  0
    3.7854   -3.7151    0.0000 H   0  0  0  0  0  0  0  0  0  0  0  0
    2.9604   -5.1441    0.0000 H   0  0  0  0  0  0  0  0  0  0  0  0
    1.3104   -5.1441    0.0000 H   0  0  0  0  0  0  0  0  0  0  0  0
   -2.0705   -3.1921    0.0000 H   0  0  0  0  0  0  0  0  0  0  0  0
   -2.0705   -1.5421    0.0000 H   0  0  0  0  0  0  0  0  0  0  0  0
  1  2  1  0  0  0  0
  2  3  4  0  0  0  0
  3  4  4  0  0  0  0
  4  5  4  0  0  0  0
  5  6  1  0  0  0  0
  6  7  1  0  0  0  0
  7  8  2  0  0  0  0
  7  9  1  0  0  0  0
  9 10  1  0  0  0  0
 10 11  4  0  0  0  0
 11 12  4  0  0  0  0
 12 13  4  0  0  0  0
 13 14  4  0  0  0  0
 14 15  4  0  0  0  0
 10 15  4  0  0  0  0
  7 16  1  0  0  0  0
 16 17  1  0  0  0  0
 17 18  4  0  0  0  0
 18 19  4  0  0  0  0
 19 20  4  0  0  0  0
 20 21  4  0  0  0  0
 21 22  4  0  0  0  0
 17 22  4  0  0  0  0
  5 23  4  0  0  0  0
 23 24  4  0  0  0  0
  2 24  4  0  0  0  0
  1 25  1  0  0  0  0
  1 26  1  0  0  0  0
  1 27  1  0  0  0  0
  3 28  1  0  0  0  0
  4 29  1  0  0  0  0
 11 30  1  0  0  0  0
 12 31  1  0  0  0  0
 13 32  1  0  0  0  0
 14 33  1  0  0  0  0
 15 34  1  0  0  0  0
 18 35  1  0  0  0  0
 19 36  1  0  0  0  0
 20 37  1  0  0  0  0
 21 38  1  0  0  0  0
 22 39  1  0  0  0  0
 23 40  1  0  0  0  0
 24 41  1  0  0  0  0
M  END
>  <InChIKey>
InChI=1S/C19H17O4P/c1-16-12-14-19(15-13-16)23-24(20,21-17-8-4-2-5-9-17)22-18-10-6-3-7-11-18/h2-15H,1H3

>  <UN GHS>
Non-irritant

>  <CASRN>
26444-49-5

> <Outcome>
0

>  <Index>
2391

>  <StandardizerResult>
Dearomatize (ID: Dearomatize)
Clear Stereo (ID: ClearStereo)
Wedge Clean (ID: WedgeClean)
Mesomerize (ID: Mesomerize)
Tautomerize (ID: Tautomerize)
Aromatize (ID: Aromatize)
Add Explicit Hydrogens (ID: AddExplicitH)
Neutralize (ID: Neutralize)
Clean 2D (ID: Clean2D)

> <knn Distance>
3.74165749549866

> <CpId>
2391

$$$$
2392
  Mrv1532301301811342D          

 63 63  0  0  0  0            999 V2000
   -2.9923   -1.2480    0.0000 C   0  0  0  0  0  0  0  0  0  0  0  0
   -2.1673   -1.2480    0.0000 C   0  0  0  0  0  0  0  0  0  0  0  0
   -1.7548   -1.9625    0.0000 C   0  0  0  0  0  0  0  0  0  0  0  0
   -0.9298   -1.9625    0.0000 C   0  0  0  0  0  0  0  0  0  0  0  0
   -0.5173   -2.6770    0.0000 C   0  0  0  0  0  0  0  0  0  0  0  0
   -0.9298   -3.3914    0.0000 C   0  0  0  0  0  0  0  0  0  0  0  0
    0.3077   -2.6770    0.0000 C   0  0  0  0  0  0  0  0  0  0  0  0
    0.7202   -1.9625    0.0000 C   0  0  0  0  0  0  0  0  0  0  0  0
    1.5452   -1.9625    0.0000 O   0  0  0  0  0  0  0  0  0  0  0  0
    0.3077   -1.2480    0.0000 C   0  0  0  0  0  0  0  0  0  0  0  0
    0.7202   -0.5336    0.0000 C   0  0  0  0  0  0  0  0  0  0  0  0
    0.3077    0.1809    0.0000 C   0  0  0  0  0  0  0  0  0  0  0  0
   -0.5128    0.2671    0.0000 C   0  0  0  0  0  0  0  0  0  0  0  0
   -1.0648   -0.3460    0.0000 O   0  0  0  0  0  0  0  0  0  0  0  0
   -0.6843    1.0741    0.0000 C   0  0  0  0  0  0  0  0  0  0  0  0
    0.0302    1.4866    0.0000 C   0  0  0  0  0  0  0  0  0  0  0  0
    0.1164    2.3071    0.0000 O   0  0  0  0  0  0  0  0  0  0  0  0
    0.6433    0.9346    0.0000 C   0  0  0  0  0  0  0  0  0  0  0  0
    1.4502    1.1061    0.0000 C   0  0  0  0  0  0  0  0  0  0  0  0
    2.0023    0.4930    0.0000 C   0  0  0  0  0  0  0  0  0  0  0  0
    2.8092    0.6645    0.0000 C   0  0  0  0  0  0  0  0  0  0  0  0
    3.3613    0.0514    0.0000 C   0  0  0  0  0  0  0  0  0  0  0  0
    4.1682    0.2230    0.0000 C   0  0  0  0  0  0  0  0  0  0  0  0
    4.7203   -0.3901    0.0000 C   0  0  0  0  0  0  0  0  0  0  0  0
    5.5272   -0.2186    0.0000 C   0  0  0  0  0  0  0  0  0  0  0  0
    6.0793   -0.8317    0.0000 O   0  0  0  0  0  0  0  0  0  0  0  0
    5.7822    0.5660    0.0000 O   0  0  0  0  0  0  0  0  0  0  0  0
   -2.9923   -0.4230    0.0000 H   0  0  0  0  0  0  0  0  0  0  0  0
   -3.8173   -1.2480    0.0000 H   0  0  0  0  0  0  0  0  0  0  0  0
   -2.9923   -2.0730    0.0000 H   0  0  0  0  0  0  0  0  0  0  0  0
   -1.4780   -0.7947    0.0000 H   0  0  0  0  0  0  0  0  0  0  0  0
   -2.1193   -0.4244    0.0000 H   0  0  0  0  0  0  0  0  0  0  0  0
   -2.4441   -2.4159    0.0000 H   0  0  0  0  0  0  0  0  0  0  0  0
   -1.8028   -2.7861    0.0000 H   0  0  0  0  0  0  0  0  0  0  0  0
   -0.2405   -1.5092    0.0000 H   0  0  0  0  0  0  0  0  0  0  0  0
   -0.8818   -1.1389    0.0000 H   0  0  0  0  0  0  0  0  0  0  0  0
   -1.3423   -2.6770    0.0000 H   0  0  0  0  0  0  0  0  0  0  0  0
   -1.7267   -3.6050    0.0000 H   0  0  0  0  0  0  0  0  0  0  0  0
   -0.9298   -4.2164    0.0000 H   0  0  0  0  0  0  0  0  0  0  0  0
   -0.1329   -3.6050    0.0000 H   0  0  0  0  0  0  0  0  0  0  0  0
    0.3557   -3.5006    0.0000 H   0  0  0  0  0  0  0  0  0  0  0  0
    0.9970   -3.1303    0.0000 H   0  0  0  0  0  0  0  0  0  0  0  0
    1.1327   -2.6770    0.0000 H   0  0  0  0  0  0  0  0  0  0  0  0
    2.2597   -1.5500    0.0000 H   0  0  0  0  0  0  0  0  0  0  0  0
   -0.2521   -0.6421    0.0000 H   0  0  0  0  0  0  0  0  0  0  0  0
    1.5452   -0.5336    0.0000 H   0  0  0  0  0  0  0  0  0  0  0  0
    1.1316    0.2241    0.0000 H   0  0  0  0  0  0  0  0  0  0  0  0
   -1.3097    0.4807    0.0000 H   0  0  0  0  0  0  0  0  0  0  0  0
   -1.8684   -0.1594    0.0000 H   0  0  0  0  0  0  0  0  0  0  0  0
   -0.9013    1.8701    0.0000 H   0  0  0  0  0  0  0  0  0  0  0  0
   -1.3858    1.5082    0.0000 H   0  0  0  0  0  0  0  0  0  0  0  0
    0.8568    1.7315    0.0000 H   0  0  0  0  0  0  0  0  0  0  0  0
    2.2120    1.4229    0.0000 H   0  0  0  0  0  0  0  0  0  0  0  0
    1.8258    1.8406    0.0000 H   0  0  0  0  0  0  0  0  0  0  0  0
    1.7949   -0.3055    0.0000 H   0  0  0  0  0  0  0  0  0  0  0  0
    2.5725   -0.1032    0.0000 H   0  0  0  0  0  0  0  0  0  0  0  0
    3.6198    0.8183    0.0000 H   0  0  0  0  0  0  0  0  0  0  0  0
    3.0984    1.4372    0.0000 H   0  0  0  0  0  0  0  0  0  0  0  0
    3.2386   -0.7644    0.0000 H   0  0  0  0  0  0  0  0  0  0  0  0
    3.7941   -0.6509    0.0000 H   0  0  0  0  0  0  0  0  0  0  0  0
    4.7782    0.7785    0.0000 H   0  0  0  0  0  0  0  0  0  0  0  0
    4.9179   -1.1911    0.0000 H   0  0  0  0  0  0  0  0  0  0  0  0
    5.8243   -1.6163    0.0000 H   0  0  0  0  0  0  0  0  0  0  0  0
  1  2  1  0  0  0  0
  2  3  1  0  0  0  0
  3  4  1  0  0  0  0
  4  5  1  0  0  0  0
  5  6  1  0  0  0  0
  5  7  1  0  0  0  0
  7  8  1  0  0  0  0
  8  9  1  0  0  0  0
 10  8  1  4  0  0  0
 10 11  2  0  0  0  0
 11 12  1  0  0  0  0
 12 13  1  0  0  0  0
 13 14  1  0  0  0  0
 13 15  1  0  0  0  0
 15 16  1  0  0  0  0
 16 17  2  0  0  0  0
 16 18  1  0  0  0  0
 12 18  1  0  0  0  0
 18 19  1  0  0  0  0
 19 20  1  0  0  0  0
 20 21  1  0  0  0  0
 21 22  1  0  0  0  0
 23 22  1  4  0  0  0
 23 24  2  0  0  0  0
 24 25  1  0  0  0  0
 25 26  1  0  0  0  0
 25 27  2  0  0  0  0
  1 28  1  0  0  0  0
  1 29  1  0  0  0  0
  1 30  1  0  0  0  0
  2 31  1  0  0  0  0
  2 32  1  0  0  0  0
  3 33  1  0  0  0  0
  3 34  1  0  0  0  0
  4 35  1  0  0  0  0
  4 36  1  0  0  0  0
  5 37  1  0  0  0  0
  6 38  1  0  0  0  0
  6 39  1  0  0  0  0
  6 40  1  0  0  0  0
  7 41  1  0  0  0  0
  7 42  1  0  0  0  0
  8 43  1  0  0  0  0
  9 44  1  0  0  0  0
 10 45  1  0  0  0  0
 11 46  1  0  0  0  0
 12 47  1  0  0  0  0
 13 48  1  0  0  0  0
 14 49  1  0  0  0  0
 15 50  1  0  0  0  0
 15 51  1  0  0  0  0
 18 52  1  0  0  0  0
 19 53  1  0  0  0  0
 19 54  1  0  0  0  0
 20 55  1  0  0  0  0
 20 56  1  0  0  0  0
 21 57  1  0  0  0  0
 21 58  1  0  0  0  0
 22 59  1  0  0  0  0
 22 60  1  0  0  0  0
 23 61  1  0  0  0  0
 24 62  1  0  0  0  0
 26 63  1  0  0  0  0
M  END
>  <InChIKey>
InChI=1S/C22H36O5/c1-3-4-9-16(2)14-17(23)12-13-19-18(20(24)15-21(19)25)10-7-5-6-8-11-22(26)27/h8,11-13,16-19,21,23,25H,3-7,9-10,14-15H2,1-2H3,(H,26,27)

>  <CASRN>
74397-12-9

> <Outcome>
0

>  <Index>
2392

>  <StandardizerResult>
Clear Stereo (ID: ClearStereo)
Wedge Clean (ID: WedgeClean)
Mesomerize (ID: Mesomerize)
Tautomerize (ID: Tautomerize)
Add Explicit Hydrogens (ID: AddExplicitH)
Neutralize (ID: Neutralize)
Clean 2D (ID: Clean2D)

> <knn Distance>
3.74165749549866

> <CpId>
2392

$$$$
2509
  Mrv1532301301811342D          

 39 40  0  0  0  0            999 V2000
    1.3699   -2.4681    0.0000 C   0  0  0  0  0  0  0  0  0  0  0  0
    1.3699   -1.6431    0.0000 C   0  0  0  0  0  0  0  0  0  0  0  0
    0.6554   -1.2306    0.0000 C   0  0  0  0  0  0  0  0  0  0  0  0
    0.6554   -0.4056    0.0000 C   0  0  0  0  0  0  0  0  0  0  0  0
    1.3699    0.0069    0.0000 C   0  0  0  0  0  0  0  0  0  0  0  0
    2.0843   -0.4056    0.0000 C   0  0  0  0  0  0  0  0  0  0  0  0
    2.7988    0.0069    0.0000 C   0  0  0  0  0  0  0  0  0  0  0  0
    3.5133   -0.4056    0.0000 C   0  0  0  0  0  0  0  0  0  0  0  0
    4.2278    0.0069    0.0000 C   0  0  0  0  0  0  0  0  0  0  0  0
    3.5133   -1.2306    0.0000 C   0  0  0  0  0  0  0  0  0  0  0  0
    2.7988   -1.6431    0.0000 C   0  0  0  0  0  0  0  0  0  0  0  0
    2.0843   -1.2306    0.0000 C   0  0  0  0  0  0  0  0  0  0  0  0
    1.3699    0.8319    0.0000 C   0  0  0  0  0  0  0  0  0  0  0  0
    0.6554    1.2444    0.0000 C   0  0  0  0  0  0  0  0  0  0  0  0
    2.0843    1.2444    0.0000 C   0  0  0  0  0  0  0  0  0  0  0  0
    2.0843    2.0694    0.0000 O   0  0  0  0  0  0  0  0  0  0  0  0
    2.7988    0.8319    0.0000 O   0  0  0  0  0  0  0  0  0  0  0  0
    0.5449   -2.4681    0.0000 H   0  0  0  0  0  0  0  0  0  0  0  0
    1.3699   -3.2931    0.0000 H   0  0  0  0  0  0  0  0  0  0  0  0
    2.1949   -2.4681    0.0000 H   0  0  0  0  0  0  0  0  0  0  0  0
    2.0843   -2.0556    0.0000 H   0  0  0  0  0  0  0  0  0  0  0  0
   -0.1682   -1.2786    0.0000 H   0  0  0  0  0  0  0  0  0  0  0  0
    0.2021   -1.9199    0.0000 H   0  0  0  0  0  0  0  0  0  0  0  0
    0.2021    0.2836    0.0000 H   0  0  0  0  0  0  0  0  0  0  0  0
   -0.1682   -0.3577    0.0000 H   0  0  0  0  0  0  0  0  0  0  0  0
    2.0843    0.4194    0.0000 H   0  0  0  0  0  0  0  0  0  0  0  0
    2.7988   -0.8181    0.0000 H   0  0  0  0  0  0  0  0  0  0  0  0
    3.5133    0.4194    0.0000 H   0  0  0  0  0  0  0  0  0  0  0  0
    4.4413   -0.7900    0.0000 H   0  0  0  0  0  0  0  0  0  0  0  0
    5.0528    0.0069    0.0000 H   0  0  0  0  0  0  0  0  0  0  0  0
    4.4413    0.8037    0.0000 H   0  0  0  0  0  0  0  0  0  0  0  0
    3.9666   -1.9199    0.0000 H   0  0  0  0  0  0  0  0  0  0  0  0
    4.3369   -1.2786    0.0000 H   0  0  0  0  0  0  0  0  0  0  0  0
    2.9421   -2.4556    0.0000 H   0  0  0  0  0  0  0  0  0  0  0  0
    3.4308   -2.1734    0.0000 H   0  0  0  0  0  0  0  0  0  0  0  0
    1.3699   -0.8181    0.0000 H   0  0  0  0  0  0  0  0  0  0  0  0
    0.6554    2.0694    0.0000 H   0  0  0  0  0  0  0  0  0  0  0  0
   -0.0591    0.8319    0.0000 H   0  0  0  0  0  0  0  0  0  0  0  0
    2.7988    2.4819    0.0000 H   0  0  0  0  0  0  0  0  0  0  0  0
  1  2  1  0  0  0  0
  2  3  1  0  0  0  0
  3  4  1  0  0  0  0
  4  5  1  0  0  0  0
  5  6  1  0  0  0  0
  6  7  1  0  0  0  0
  7  8  2  0  0  0  0
  8  9  1  0  0  0  0
  8 10  1  0  0  0  0
 10 11  1  0  0  0  0
 11 12  1  0  0  0  0
  2 12  1  0  0  0  0
  6 12  1  0  0  0  0
  5 13  1  0  0  0  0
 13 14  2  0  0  0  0
 13 15  1  0  0  0  0
 15 16  1  0  0  0  0
 15 17  2  0  0  0  0
  1 18  1  0  0  0  0
  1 19  1  0  0  0  0
  1 20  1  0  0  0  0
  2 21  1  0  0  0  0
  3 22  1  0  0  0  0
  3 23  1  0  0  0  0
  4 24  1  0  0  0  0
  4 25  1  0  0  0  0
  5 26  1  0  0  0  0
  6 27  1  0  0  0  0
  7 28  1  0  0  0  0
  9 29  1  0  0  0  0
  9 30  1  0  0  0  0
  9 31  1  0  0  0  0
 10 32  1  0  0  0  0
 10 33  1  0  0  0  0
 11 34  1  0  0  0  0
 11 35  1  0  0  0  0
 12 36  1  0  0  0  0
 14 37  1  0  0  0  0
 14 38  1  0  0  0  0
 16 39  1  0  0  0  0
M  END
>  <InChIKey>
InChI=1S/C15H22O2/c1-9-4-6-12-10(2)5-7-13(14(12)8-9)11(3)15(16)17/h8,10,12-14H,3-7H2,1-2H3,(H,16,17)

>  <CASRN>
80286-58-4

> <Outcome>
0

>  <Index>
2509

>  <StandardizerResult>
Clear Stereo (ID: ClearStereo)
Wedge Clean (ID: WedgeClean)
Mesomerize (ID: Mesomerize)
Tautomerize (ID: Tautomerize)
Add Explicit Hydrogens (ID: AddExplicitH)
Neutralize (ID: Neutralize)
Clean 2D (ID: Clean2D)

> <knn Distance>
3.74165749549866

> <CpId>
2509

$$$$
2557
  Mrv1532301301811342D          

 59 59  0  0  0  0            999 V2000
   -0.6084   -4.7747    0.0000 C   0  0  0  0  0  0  0  0  0  0  0  0
    0.1061   -5.1872    0.0000 C   0  0  0  0  0  0  0  0  0  0  0  0
    0.8206   -4.7747    0.0000 C   0  0  0  0  0  0  0  0  0  0  0  0
    1.5350   -5.1872    0.0000 C   0  0  0  0  0  0  0  0  0  0  0  0
    2.2495   -4.7747    0.0000 C   0  0  0  0  0  0  0  0  0  0  0  0
    2.9640   -5.1872    0.0000 C   0  0  0  0  0  0  0  0  0  0  0  0
    2.9640   -6.0122    0.0000 O   0  0  0  0  0  0  0  0  0  0  0  0
    3.6784   -4.7747    0.0000 C   0  0  0  0  0  0  0  0  0  0  0  0
    4.3929   -5.1872    0.0000 C   0  0  0  0  0  0  0  0  0  0  0  0
    5.1074   -4.7747    0.0000 C   0  0  0  0  0  0  0  0  0  0  0  0
    5.1936   -3.9542    0.0000 C   0  0  0  0  0  0  0  0  0  0  0  0
    4.5805   -3.4022    0.0000 O   0  0  0  0  0  0  0  0  0  0  0  0
    6.0006   -3.7827    0.0000 C   0  0  0  0  0  0  0  0  0  0  0  0
    6.4131   -4.4972    0.0000 C   0  0  0  0  0  0  0  0  0  0  0  0
    7.2336   -4.5834    0.0000 O   0  0  0  0  0  0  0  0  0  0  0  0
    5.8611   -5.1103    0.0000 C   0  0  0  0  0  0  0  0  0  0  0  0
    6.0326   -5.9172    0.0000 C   0  0  0  0  0  0  0  0  0  0  0  0
    6.8172   -6.1722    0.0000 C   0  0  0  0  0  0  0  0  0  0  0  0
    6.9887   -6.9791    0.0000 C   0  0  0  0  0  0  0  0  0  0  0  0
    7.7734   -7.2341    0.0000 C   0  0  0  0  0  0  0  0  0  0  0  0
    7.9449   -8.0411    0.0000 C   0  0  0  0  0  0  0  0  0  0  0  0
    8.7295   -8.2960    0.0000 C   0  0  0  0  0  0  0  0  0  0  0  0
    8.9010   -9.1030    0.0000 C   0  0  0  0  0  0  0  0  0  0  0  0
    9.6857   -9.3579    0.0000 O   0  0  0  0  0  0  0  0  0  0  0  0
    8.2879   -9.6550    0.0000 O   0  0  0  0  0  0  0  0  0  0  0  0
   -0.1959   -4.0602    0.0000 H   0  0  0  0  0  0  0  0  0  0  0  0
   -1.3229   -4.3622    0.0000 H   0  0  0  0  0  0  0  0  0  0  0  0
   -1.0209   -5.4892    0.0000 H   0  0  0  0  0  0  0  0  0  0  0  0
   -0.2642   -5.9245    0.0000 H   0  0  0  0  0  0  0  0  0  0  0  0
    0.4763   -5.9245    0.0000 H   0  0  0  0  0  0  0  0  0  0  0  0
    1.1908   -4.0375    0.0000 H   0  0  0  0  0  0  0  0  0  0  0  0
    0.4503   -4.0375    0.0000 H   0  0  0  0  0  0  0  0  0  0  0  0
    1.1648   -5.9245    0.0000 H   0  0  0  0  0  0  0  0  0  0  0  0
    1.9053   -5.9245    0.0000 H   0  0  0  0  0  0  0  0  0  0  0  0
    2.6198   -4.0375    0.0000 H   0  0  0  0  0  0  0  0  0  0  0  0
    1.8792   -4.0375    0.0000 H   0  0  0  0  0  0  0  0  0  0  0  0
    2.2495   -5.5997    0.0000 H   0  0  0  0  0  0  0  0  0  0  0  0
    3.3765   -6.7267    0.0000 H   0  0  0  0  0  0  0  0  0  0  0  0
    3.6784   -3.9497    0.0000 H   0  0  0  0  0  0  0  0  0  0  0  0
    4.3929   -6.0122    0.0000 H   0  0  0  0  0  0  0  0  0  0  0  0
    5.1506   -5.5986    0.0000 H   0  0  0  0  0  0  0  0  0  0  0  0
    4.4234   -4.2499    0.0000 H   0  0  0  0  0  0  0  0  0  0  0  0
    4.3153   -2.6210    0.0000 H   0  0  0  0  0  0  0  0  0  0  0  0
    6.6507   -3.2748    0.0000 H   0  0  0  0  0  0  0  0  0  0  0  0
    5.9430   -2.9597    0.0000 H   0  0  0  0  0  0  0  0  0  0  0  0
    6.7087   -5.2674    0.0000 H   0  0  0  0  0  0  0  0  0  0  0  0
    7.9916   -4.2577    0.0000 H   0  0  0  0  0  0  0  0  0  0  0  0
    5.6895   -4.3033    0.0000 H   0  0  0  0  0  0  0  0  0  0  0  0
    5.5118   -6.5571    0.0000 H   0  0  0  0  0  0  0  0  0  0  0  0
    6.0509   -6.7420    0.0000 H   0  0  0  0  0  0  0  0  0  0  0  0
    7.6311   -6.0372    0.0000 H   0  0  0  0  0  0  0  0  0  0  0  0
    6.7600   -7.7718    0.0000 H   0  0  0  0  0  0  0  0  0  0  0  0
    8.5690   -7.0159    0.0000 H   0  0  0  0  0  0  0  0  0  0  0  0
    8.0735   -6.4656    0.0000 H   0  0  0  0  0  0  0  0  0  0  0  0
    7.1493   -8.2592    0.0000 H   0  0  0  0  0  0  0  0  0  0  0  0
    7.6448   -8.8095    0.0000 H   0  0  0  0  0  0  0  0  0  0  0  0
    9.5251   -8.0778    0.0000 H   0  0  0  0  0  0  0  0  0  0  0  0
    9.0296   -7.5275    0.0000 H   0  0  0  0  0  0  0  0  0  0  0  0
    9.8572  -10.1649    0.0000 H   0  0  0  0  0  0  0  0  0  0  0  0
  1  2  1  0  0  0  0
  2  3  1  0  0  0  0
  3  4  1  0  0  0  0
  4  5  1  0  0  0  0
  5  6  1  0  0  0  0
  6  7  1  0  0  0  0
  8  6  1  4  0  0  0
  8  9  2  0  0  0  0
  9 10  1  0  0  0  0
 10 11  1  0  0  0  0
 11 12  1  0  0  0  0
 11 13  1  0  0  0  0
 13 14  1  0  0  0  0
 14 15  1  0  0  0  0
 14 16  1  0  0  0  0
 10 16  1  0  0  0  0
 16 17  1  0  0  0  0
 18 17  1  4  0  0  0
 18 19  2  0  0  0  0
 19 20  1  0  0  0  0
 20 21  1  0  0  0  0
 21 22  1  0  0  0  0
 22 23  1  0  0  0  0
 23 24  1  0  0  0  0
 23 25  2  0  0  0  0
  1 26  1  0  0  0  0
  1 27  1  0  0  0  0
  1 28  1  0  0  0  0
  2 29  1  0  0  0  0
  2 30  1  0  0  0  0
  3 31  1  0  0  0  0
  3 32  1  0  0  0  0
  4 33  1  0  0  0  0
  4 34  1  0  0  0  0
  5 35  1  0  0  0  0
  5 36  1  0  0  0  0
  6 37  1  0  0  0  0
  7 38  1  0  0  0  0
  8 39  1  0  0  0  0
  9 40  1  0  0  0  0
 10 41  1  0  0  0  0
 11 42  1  0  0  0  0
 12 43  1  0  0  0  0
 13 44  1  0  0  0  0
 13 45  1  0  0  0  0
 14 46  1  0  0  0  0
 15 47  1  0  0  0  0
 16 48  1  0  0  0  0
 17 49  1  0  0  0  0
 17 50  1  0  0  0  0
 18 51  1  0  0  0  0
 19 52  1  0  0  0  0
 20 53  1  0  0  0  0
 20 54  1  0  0  0  0
 21 55  1  0  0  0  0
 21 56  1  0  0  0  0
 22 57  1  0  0  0  0
 22 58  1  0  0  0  0
 24 59  1  0  0  0  0
M  END
>  <InChIKey>
InChI=1S/C20H34O5/c1-2-3-6-9-15(21)12-13-17-16(18(22)14-19(17)23)10-7-4-5-8-11-20(24)25/h4,7,12-13,15-19,21-23H,2-3,5-6,8-11,14H2,1H3,(H,24,25)

>  <CASRN>
551-11-1

> <Outcome>
0

>  <Index>
2557

>  <StandardizerResult>
Clear Stereo (ID: ClearStereo)
Wedge Clean (ID: WedgeClean)
Mesomerize (ID: Mesomerize)
Tautomerize (ID: Tautomerize)
Add Explicit Hydrogens (ID: AddExplicitH)
Neutralize (ID: Neutralize)
Clean 2D (ID: Clean2D)

> <knn Distance>
3.74165749549866

> <CpId>
2557

$$$$
2578
  Mrv1532301301811342D          

 18 19  0  0  0  0            999 V2000
    1.4289   -2.4750    0.0000 O   0  0  0  0  0  0  0  0  0  0  0  0
    1.4289   -1.6500    0.0000 C   0  0  0  0  0  0  0  0  0  0  0  0
    0.7145   -1.2375    0.0000 C   0  0  0  0  0  0  0  0  0  0  0  0
    0.0000   -1.6500    0.0000 I   0  0  0  0  0  0  0  0  0  0  0  0
    0.7145   -0.4125    0.0000 C   0  0  0  0  0  0  0  0  0  0  0  0
    1.4289   -0.0000    0.0000 C   0  0  0  0  0  0  0  0  0  0  0  0
    1.4289    0.8250    0.0000 Cl  0  0  0  0  0  0  0  0  0  0  0  0
    2.1434   -0.4125    0.0000 C   0  0  0  0  0  0  0  0  0  0  0  0
    2.8579   -0.0000    0.0000 C   0  0  0  0  0  0  0  0  0  0  0  0
    3.5724   -0.4125    0.0000 C   0  0  0  0  0  0  0  0  0  0  0  0
    3.5724   -1.2375    0.0000 C   0  0  0  0  0  0  0  0  0  0  0  0
    2.8579   -1.6500    0.0000 N   0  0  0  0  0  0  0  0  0  0  0  0
    2.1434   -1.2375    0.0000 C   0  0  0  0  0  0  0  0  0  0  0  0
    0.7145   -2.8875    0.0000 H   0  0  0  0  0  0  0  0  0  0  0  0
    0.0000   -0.0000    0.0000 H   0  0  0  0  0  0  0  0  0  0  0  0
    2.8579    0.8250    0.0000 H   0  0  0  0  0  0  0  0  0  0  0  0
    4.2868   -0.0000    0.0000 H   0  0  0  0  0  0  0  0  0  0  0  0
    4.2868   -1.6500    0.0000 H   0  0  0  0  0  0  0  0  0  0  0  0
  1  2  1  0  0  0  0
  2  3  4  0  0  0  0
  3  4  1  0  0  0  0
  3  5  4  0  0  0  0
  5  6  4  0  0  0  0
  6  7  1  0  0  0  0
  6  8  4  0  0  0  0
  8  9  4  0  0  0  0
  9 10  4  0  0  0  0
 10 11  4  0  0  0  0
 11 12  4  0  0  0  0
 12 13  4  0  0  0  0
  2 13  4  0  0  0  0
  8 13  4  0  0  0  0
  1 14  1  0  0  0  0
  5 15  1  0  0  0  0
  9 16  1  0  0  0  0
 10 17  1  0  0  0  0
 11 18  1  0  0  0  0
M  END
>  <InChIKey>
InChI=1S/C9H5ClINO/c10-6-4-7(11)9(13)8-5(6)2-1-3-12-8/h1-4,13H

>  <CASRN>
130-26-7

> <Outcome>
0

>  <Index>
2578

>  <StandardizerResult>
Dearomatize (ID: Dearomatize)
Clear Stereo (ID: ClearStereo)
Wedge Clean (ID: WedgeClean)
Mesomerize (ID: Mesomerize)
Tautomerize (ID: Tautomerize)
Aromatize (ID: Aromatize)
Add Explicit Hydrogens (ID: AddExplicitH)
Neutralize (ID: Neutralize)
Clean 2D (ID: Clean2D)

> <knn Distance>
3.74165749549866

> <CpId>
2578

$$$$
2636
  Mrv1532301301811342D          

 58 57  0  0  0  0            999 V2000
    9.1855   -6.1286    0.0000 C   0  0  0  0  0  0  0  0  0  0  0  0
    9.9000   -5.7161    0.0000 C   0  0  0  0  0  0  0  0  0  0  0  0
   10.6145   -6.1286    0.0000 C   0  0  0  0  0  0  0  0  0  0  0  0
   11.3289   -5.7161    0.0000 C   0  0  0  0  0  0  0  0  0  0  0  0
   12.0434   -6.1286    0.0000 C   0  0  0  0  0  0  0  0  0  0  0  0
   12.7579   -5.7161    0.0000 C   0  0  0  0  0  0  0  0  0  0  0  0
   13.4724   -6.1286    0.0000 C   0  0  0  0  0  0  0  0  0  0  0  0
   14.1868   -5.7161    0.0000 C   0  0  0  0  0  0  0  0  0  0  0  0
   14.9013   -6.1286    0.0000 C   0  0  0  0  0  0  0  0  0  0  0  0
   15.6158   -5.7161    0.0000 C   0  0  0  0  0  0  0  0  0  0  0  0
   16.3302   -6.1286    0.0000 C   0  0  0  0  0  0  0  0  0  0  0  0
   17.0447   -5.7161    0.0000 C   0  0  0  0  0  0  0  0  0  0  0  0
   17.7592   -6.1286    0.0000 C   0  0  0  0  0  0  0  0  0  0  0  0
   18.4737   -5.7161    0.0000 C   0  0  0  0  0  0  0  0  0  0  0  0
   19.1881   -6.1286    0.0000 C   0  0  0  0  0  0  0  0  0  0  0  0
   19.9026   -5.7161    0.0000 C   0  0  0  0  0  0  0  0  0  0  0  0
   20.6171   -6.1286    0.0000 C   0  0  0  0  0  0  0  0  0  0  0  0
   21.3315   -5.7161    0.0000 C   0  0  0  0  0  0  0  0  0  0  0  0
   22.0460   -6.1286    0.0000 N   0  0  0  0  0  0  0  0  0  0  0  0
   22.7605   -5.7161    0.0000 C   0  0  0  0  0  0  0  0  0  0  0  0
   23.4749   -5.3036    0.0000 O   0  0  0  0  0  0  0  0  0  0  0  0
    8.7730   -5.4141    0.0000 H   0  0  0  0  0  0  0  0  0  0  0  0
    8.4711   -6.5411    0.0000 H   0  0  0  0  0  0  0  0  0  0  0  0
    9.5980   -6.8431    0.0000 H   0  0  0  0  0  0  0  0  0  0  0  0
   10.2703   -4.9789    0.0000 H   0  0  0  0  0  0  0  0  0  0  0  0
    9.5297   -4.9789    0.0000 H   0  0  0  0  0  0  0  0  0  0  0  0
   10.2442   -6.8659    0.0000 H   0  0  0  0  0  0  0  0  0  0  0  0
   10.9847   -6.8659    0.0000 H   0  0  0  0  0  0  0  0  0  0  0  0
   11.6992   -4.9789    0.0000 H   0  0  0  0  0  0  0  0  0  0  0  0
   10.9587   -4.9789    0.0000 H   0  0  0  0  0  0  0  0  0  0  0  0
   11.6732   -6.8659    0.0000 H   0  0  0  0  0  0  0  0  0  0  0  0
   12.4137   -6.8659    0.0000 H   0  0  0  0  0  0  0  0  0  0  0  0
   13.1281   -4.9789    0.0000 H   0  0  0  0  0  0  0  0  0  0  0  0
   12.3876   -4.9789    0.0000 H   0  0  0  0  0  0  0  0  0  0  0  0
   13.1021   -6.8659    0.0000 H   0  0  0  0  0  0  0  0  0  0  0  0
   13.8426   -6.8659    0.0000 H   0  0  0  0  0  0  0  0  0  0  0  0
   14.5571   -4.9789    0.0000 H   0  0  0  0  0  0  0  0  0  0  0  0
   13.8166   -4.9789    0.0000 H   0  0  0  0  0  0  0  0  0  0  0  0
   14.5310   -6.8659    0.0000 H   0  0  0  0  0  0  0  0  0  0  0  0
   15.2716   -6.8659    0.0000 H   0  0  0  0  0  0  0  0  0  0  0  0
   15.9860   -4.9789    0.0000 H   0  0  0  0  0  0  0  0  0  0  0  0
   15.2455   -4.9789    0.0000 H   0  0  0  0  0  0  0  0  0  0  0  0
   15.9600   -6.8659    0.0000 H   0  0  0  0  0  0  0  0  0  0  0  0
   16.7005   -6.8659    0.0000 H   0  0  0  0  0  0  0  0  0  0  0  0
   17.4150   -4.9789    0.0000 H   0  0  0  0  0  0  0  0  0  0  0  0
   16.6745   -4.9789    0.0000 H   0  0  0  0  0  0  0  0  0  0  0  0
   17.3889   -6.8659    0.0000 H   0  0  0  0  0  0  0  0  0  0  0  0
   18.1294   -6.8659    0.0000 H   0  0  0  0  0  0  0  0  0  0  0  0
   18.8439   -4.9789    0.0000 H   0  0  0  0  0  0  0  0  0  0  0  0
   18.1034   -4.9789    0.0000 H   0  0  0  0  0  0  0  0  0  0  0  0
   18.8179   -6.8659    0.0000 H   0  0  0  0  0  0  0  0  0  0  0  0
   19.5584   -6.8659    0.0000 H   0  0  0  0  0  0  0  0  0  0  0  0
   20.2729   -4.9789    0.0000 H   0  0  0  0  0  0  0  0  0  0  0  0
   19.5323   -4.9789    0.0000 H   0  0  0  0  0  0  0  0  0  0  0  0
   20.2468   -6.8659    0.0000 H   0  0  0  0  0  0  0  0  0  0  0  0
   20.9873   -6.8659    0.0000 H   0  0  0  0  0  0  0  0  0  0  0  0
   21.7018   -4.9789    0.0000 H   0  0  0  0  0  0  0  0  0  0  0  0
   20.9613   -4.9789    0.0000 H   0  0  0  0  0  0  0  0  0  0  0  0
  1  2  1  0  0  0  0
  2  3  1  0  0  0  0
  3  4  1  0  0  0  0
  4  5  1  0  0  0  0
  5  6  1  0  0  0  0
  6  7  1  0  0  0  0
  7  8  1  0  0  0  0
  8  9  1  0  0  0  0
  9 10  1  0  0  0  0
 10 11  1  0  0  0  0
 11 12  1  0  0  0  0
 12 13  1  0  0  0  0
 13 14  1  0  0  0  0
 14 15  1  0  0  0  0
 15 16  1  0  0  0  0
 16 17  1  0  0  0  0
 17 18  1  0  0  0  0
 18 19  1  0  0  0  0
 19 20  2  0  0  0  0
 20 21  2  0  0  0  0
  1 22  1  0  0  0  0
  1 23  1  0  0  0  0
  1 24  1  0  0  0  0
  2 25  1  0  0  0  0
  2 26  1  0  0  0  0
  3 27  1  0  0  0  0
  3 28  1  0  0  0  0
  4 29  1  0  0  0  0
  4 30  1  0  0  0  0
  5 31  1  0  0  0  0
  5 32  1  0  0  0  0
  6 33  1  0  0  0  0
  6 34  1  0  0  0  0
  7 35  1  0  0  0  0
  7 36  1  0  0  0  0
  8 37  1  0  0  0  0
  8 38  1  0  0  0  0
  9 39  1  0  0  0  0
  9 40  1  0  0  0  0
 10 41  1  0  0  0  0
 10 42  1  0  0  0  0
 11 43  1  0  0  0  0
 11 44  1  0  0  0  0
 12 45  1  0  0  0  0
 12 46  1  0  0  0  0
 13 47  1  0  0  0  0
 13 48  1  0  0  0  0
 14 49  1  0  0  0  0
 14 50  1  0  0  0  0
 15 51  1  0  0  0  0
 15 52  1  0  0  0  0
 16 53  1  0  0  0  0
 16 54  1  0  0  0  0
 17 55  1  0  0  0  0
 17 56  1  0  0  0  0
 18 57  1  0  0  0  0
 18 58  1  0  0  0  0
M  END
>  <InChIKey>
InChI=1S/C19H37NO/c1-2-3-4-5-6-7-8-9-10-11-12-13-14-15-16-17-18-20-19-21/h2-18H2,1H3

>  <UN GHS>
Non-irritant

>  <CASRN>
112-96-9

> <Outcome>
0

>  <Index>
2636

>  <StandardizerResult>
Clear Stereo (ID: ClearStereo)
Wedge Clean (ID: WedgeClean)
Mesomerize (ID: Mesomerize)
Tautomerize (ID: Tautomerize)
Add Explicit Hydrogens (ID: AddExplicitH)
Neutralize (ID: Neutralize)
Clean 2D (ID: Clean2D)

> <knn Distance>
3.74165749549866

> <CpId>
2636

$$$$
2641
  Mrv1532301301811342D          

 45 46  0  0  0  0            999 V2000
    2.8420    0.0275    0.0000 C   0  0  0  0  0  0  0  0  0  0  0  0
    3.5565   -0.3850    0.0000 N   0  0  0  0  0  0  0  0  0  0  0  0
    3.5565   -1.2100    0.0000 C   0  0  0  0  0  0  0  0  0  0  0  0
    4.2710   -1.6225    0.0000 N   0  0  0  0  0  0  0  0  0  0  0  0
    4.2710   -2.4475    0.0000 C   0  0  0  0  0  0  0  0  0  0  0  0
    4.9854   -2.8600    0.0000 C   0  0  0  0  0  0  0  0  0  0  0  0
    4.9854   -3.6850    0.0000 C   0  0  0  0  0  0  0  0  0  0  0  0
    4.2710   -4.0975    0.0000 C   0  0  0  0  0  0  0  0  0  0  0  0
    4.2710   -4.9225    0.0000 C   0  0  0  0  0  0  0  0  0  0  0  0
    3.5565   -3.6850    0.0000 C   0  0  0  0  0  0  0  0  0  0  0  0
    3.5565   -2.8600    0.0000 C   0  0  0  0  0  0  0  0  0  0  0  0
    2.8420   -2.4475    0.0000 C   0  0  0  0  0  0  0  0  0  0  0  0
    4.2710    0.0275    0.0000 C   0  0  0  0  0  0  0  0  0  0  0  0
    4.2710    0.8525    0.0000 N   0  0  0  0  0  0  0  0  0  0  0  0
    4.9854    1.2650    0.0000 C   0  0  0  0  0  0  0  0  0  0  0  0
    4.9854    2.0900    0.0000 C   0  0  0  0  0  0  0  0  0  0  0  0
    5.6999    2.5025    0.0000 C   0  0  0  0  0  0  0  0  0  0  0  0
    6.4144    2.0900    0.0000 C   0  0  0  0  0  0  0  0  0  0  0  0
    7.1288    2.5025    0.0000 C   0  0  0  0  0  0  0  0  0  0  0  0
    6.4144    1.2650    0.0000 C   0  0  0  0  0  0  0  0  0  0  0  0
    5.6999    0.8525    0.0000 C   0  0  0  0  0  0  0  0  0  0  0  0
    5.6999    0.0275    0.0000 C   0  0  0  0  0  0  0  0  0  0  0  0
    3.2545    0.7420    0.0000 H   0  0  0  0  0  0  0  0  0  0  0  0
    2.1275    0.4400    0.0000 H   0  0  0  0  0  0  0  0  0  0  0  0
    2.4295   -0.6870    0.0000 H   0  0  0  0  0  0  0  0  0  0  0  0
    2.8420   -1.6225    0.0000 H   0  0  0  0  0  0  0  0  0  0  0  0
    5.6999   -2.4475    0.0000 H   0  0  0  0  0  0  0  0  0  0  0  0
    5.6999   -4.0975    0.0000 H   0  0  0  0  0  0  0  0  0  0  0  0
    3.4460   -4.9225    0.0000 H   0  0  0  0  0  0  0  0  0  0  0  0
    4.2710   -5.7475    0.0000 H   0  0  0  0  0  0  0  0  0  0  0  0
    5.0960   -4.9225    0.0000 H   0  0  0  0  0  0  0  0  0  0  0  0
    2.8420   -4.0975    0.0000 H   0  0  0  0  0  0  0  0  0  0  0  0
    2.1275   -2.0350    0.0000 H   0  0  0  0  0  0  0  0  0  0  0  0
    2.1275   -2.8600    0.0000 H   0  0  0  0  0  0  0  0  0  0  0  0
    2.8420   -3.2725    0.0000 H   0  0  0  0  0  0  0  0  0  0  0  0
    4.9854   -0.3850    0.0000 H   0  0  0  0  0  0  0  0  0  0  0  0
    4.2710    2.5025    0.0000 H   0  0  0  0  0  0  0  0  0  0  0  0
    5.6999    3.3275    0.0000 H   0  0  0  0  0  0  0  0  0  0  0  0
    7.5413    1.7880    0.0000 H   0  0  0  0  0  0  0  0  0  0  0  0
    7.8433    2.9150    0.0000 H   0  0  0  0  0  0  0  0  0  0  0  0
    6.7163    3.2170    0.0000 H   0  0  0  0  0  0  0  0  0  0  0  0
    7.1288    0.8525    0.0000 H   0  0  0  0  0  0  0  0  0  0  0  0
    5.6999   -0.7975    0.0000 H   0  0  0  0  0  0  0  0  0  0  0  0
    6.4144   -0.3850    0.0000 H   0  0  0  0  0  0  0  0  0  0  0  0
    6.4144    0.4400    0.0000 H   0  0  0  0  0  0  0  0  0  0  0  0
  1  2  1  0  0  0  0
  3  2  1  4  0  0  0
  3  4  2  0  0  0  0
  4  5  1  0  0  0  0
  5  6  4  0  0  0  0
  6  7  4  0  0  0  0
  7  8  4  0  0  0  0
  8  9  1  0  0  0  0
  8 10  4  0  0  0  0
 10 11  4  0  0  0  0
  5 11  4  0  0  0  0
 11 12  1  0  0  0  0
 13  2  1  4  0  0  0
 13 14  2  0  0  0  0
 14 15  1  0  0  0  0
 15 16  4  0  0  0  0
 16 17  4  0  0  0  0
 17 18  4  0  0  0  0
 18 19  1  0  0  0  0
 18 20  4  0  0  0  0
 20 21  4  0  0  0  0
 15 21  4  0  0  0  0
 21 22  1  0  0  0  0
  1 23  1  0  0  0  0
  1 24  1  0  0  0  0
  1 25  1  0  0  0  0
  3 26  1  0  0  0  0
  6 27  1  0  0  0  0
  7 28  1  0  0  0  0
  9 29  1  0  0  0  0
  9 30  1  0  0  0  0
  9 31  1  0  0  0  0
 10 32  1  0  0  0  0
 12 33  1  0  0  0  0
 12 34  1  0  0  0  0
 12 35  1  0  0  0  0
 13 36  1  0  0  0  0
 16 37  1  0  0  0  0
 17 38  1  0  0  0  0
 19 39  1  0  0  0  0
 19 40  1  0  0  0  0
 19 41  1  0  0  0  0
 20 42  1  0  0  0  0
 22 43  1  0  0  0  0
 22 44  1  0  0  0  0
 22 45  1  0  0  0  0
M  END
>  <InChIKey>
InChI=1S/C19H23N3/c1-14-6-8-18(16(3)10-14)20-12-22(5)13-21-19-9-7-15(2)11-17(19)4/h6-13H,1-5H3

>  <UN GHS>
Non-irritant

>  <CASRN>
33089-61-1

> <Outcome>
0

>  <Index>
2641

>  <StandardizerResult>
Dearomatize (ID: Dearomatize)
Clear Stereo (ID: ClearStereo)
Wedge Clean (ID: WedgeClean)
Mesomerize (ID: Mesomerize)
Tautomerize (ID: Tautomerize)
Aromatize (ID: Aromatize)
Add Explicit Hydrogens (ID: AddExplicitH)
Neutralize (ID: Neutralize)
Clean 2D (ID: Clean2D)

> <knn Distance>
3.74165749549866

> <CpId>
2641

$$$$
2757
  Mrv1532301301811342D          

 29 29  0  0  0  0            999 V2000
   -0.7920    3.8018    0.0000 C   0  0  0  0  0  0  0  0  0  0  0  0
   -0.7920    2.9768    0.0000 N   0  0  0  0  0  0  0  0  0  0  0  0
   -0.0776    2.5643    0.0000 C   0  0  0  0  0  0  0  0  0  0  0  0
   -0.4901    1.8499    0.0000 C   0  0  0  0  0  0  0  0  0  0  0  0
    0.3349    3.2788    0.0000 C   0  0  0  0  0  0  0  0  0  0  0  0
    0.6369    2.1518    0.0000 C   0  0  0  0  0  0  0  0  0  0  0  0
    0.6369    1.3268    0.0000 C   0  0  0  0  0  0  0  0  0  0  0  0
    1.3514    0.9143    0.0000 C   0  0  0  0  0  0  0  0  0  0  0  0
    1.3514    0.0893    0.0000 C   0  0  0  0  0  0  0  0  0  0  0  0
    0.6369   -0.3232    0.0000 C   0  0  0  0  0  0  0  0  0  0  0  0
   -0.0776    0.0893    0.0000 C   0  0  0  0  0  0  0  0  0  0  0  0
   -0.0776    0.9143    0.0000 C   0  0  0  0  0  0  0  0  0  0  0  0
    0.0330    3.8018    0.0000 H   0  0  0  0  0  0  0  0  0  0  0  0
   -0.7920    4.6268    0.0000 H   0  0  0  0  0  0  0  0  0  0  0  0
   -1.6170    3.8018    0.0000 H   0  0  0  0  0  0  0  0  0  0  0  0
   -1.5065    2.5643    0.0000 H   0  0  0  0  0  0  0  0  0  0  0  0
   -1.2045    2.2624    0.0000 H   0  0  0  0  0  0  0  0  0  0  0  0
   -0.9026    1.1354    0.0000 H   0  0  0  0  0  0  0  0  0  0  0  0
    0.2244    1.4374    0.0000 H   0  0  0  0  0  0  0  0  0  0  0  0
    0.7474    2.5643    0.0000 H   0  0  0  0  0  0  0  0  0  0  0  0
    1.1599    3.2788    0.0000 H   0  0  0  0  0  0  0  0  0  0  0  0
    0.7474    3.9933    0.0000 H   0  0  0  0  0  0  0  0  0  0  0  0
    1.3127    1.6786    0.0000 H   0  0  0  0  0  0  0  0  0  0  0  0
    1.4122    2.4340    0.0000 H   0  0  0  0  0  0  0  0  0  0  0  0
    2.1761    0.9352    0.0000 H   0  0  0  0  0  0  0  0  0  0  0  0
    2.0659   -0.3232    0.0000 H   0  0  0  0  0  0  0  0  0  0  0  0
    0.6369   -1.1482    0.0000 H   0  0  0  0  0  0  0  0  0  0  0  0
   -0.7920   -0.3232    0.0000 H   0  0  0  0  0  0  0  0  0  0  0  0
    0.6369    0.5018    0.0000 H   0  0  0  0  0  0  0  0  0  0  0  0
  1  2  1  0  0  0  0
  2  3  1  0  0  0  0
  3  4  1  0  0  0  0
  3  5  1  0  0  0  0
  3  6  1  0  0  0  0
  6  7  1  0  0  0  0
  7  8  4  0  0  0  0
  8  9  4  0  0  0  0
  9 10  4  0  0  0  0
 10 11  4  0  0  0  0
 11 12  4  0  0  0  0
  7 12  4  0  0  0  0
  1 13  1  0  0  0  0
  1 14  1  0  0  0  0
  1 15  1  0  0  0  0
  2 16  1  0  0  0  0
  4 17  1  0  0  0  0
  4 18  1  0  0  0  0
  4 19  1  0  0  0  0
  5 20  1  0  0  0  0
  5 21  1  0  0  0  0
  5 22  1  0  0  0  0
  6 23  1  0  0  0  0
  6 24  1  0  0  0  0
  8 25  1  0  0  0  0
  9 26  1  0  0  0  0
 10 27  1  0  0  0  0
 11 28  1  0  0  0  0
 12 29  1  0  0  0  0
M  END
>  <InChIKey>
InChI=1S/C11H17N/c1-11(2,12-3)9-10-7-5-4-6-8-10/h4-8,12H,9H2,1-3H3

>  <CASRN>
100-92-5

> <Outcome>
0

>  <Index>
2757

>  <StandardizerResult>
Dearomatize (ID: Dearomatize)
Clear Stereo (ID: ClearStereo)
Wedge Clean (ID: WedgeClean)
Mesomerize (ID: Mesomerize)
Tautomerize (ID: Tautomerize)
Aromatize (ID: Aromatize)
Add Explicit Hydrogens (ID: AddExplicitH)
Neutralize (ID: Neutralize)
Clean 2D (ID: Clean2D)

> <knn Distance>
3.74165749549866

> <CpId>
2757

$$$$
2835
  Mrv1532301301811342D          

 34 34  0  0  0  0            999 V2000
   -0.7162    2.0587    0.0000 C   0  0  0  0  0  0  0  0  0  0  0  0
   -0.0017    2.4712    0.0000 C   0  0  0  0  0  0  0  0  0  0  0  0
   -0.0017    3.2962    0.0000 N   0  0  0  0  0  0  0  0  0  0  0  0
   -0.7162    3.7087    0.0000 C   0  0  0  0  0  0  0  0  0  0  0  0
   -1.4307    4.1212    0.0000 C   0  0  0  0  0  0  0  0  0  0  0  0
   -1.1287    2.9942    0.0000 C   0  0  0  0  0  0  0  0  0  0  0  0
   -0.3037    4.4231    0.0000 C   0  0  0  0  0  0  0  0  0  0  0  0
    0.7127    2.0587    0.0000 C   0  0  0  0  0  0  0  0  0  0  0  0
    1.4272    2.4712    0.0000 O   0  0  0  0  0  0  0  0  0  0  0  0
    0.7127    1.2337    0.0000 C   0  0  0  0  0  0  0  0  0  0  0  0
    1.4272    0.8212    0.0000 C   0  0  0  0  0  0  0  0  0  0  0  0
    1.4272   -0.0038    0.0000 C   0  0  0  0  0  0  0  0  0  0  0  0
    0.7127   -0.4163    0.0000 C   0  0  0  0  0  0  0  0  0  0  0  0
   -0.0017   -0.0038    0.0000 C   0  0  0  0  0  0  0  0  0  0  0  0
   -0.7162   -0.4163    0.0000 Cl  0  0  0  0  0  0  0  0  0  0  0  0
   -0.0017    0.8212    0.0000 C   0  0  0  0  0  0  0  0  0  0  0  0
   -1.1287    2.7731    0.0000 H   0  0  0  0  0  0  0  0  0  0  0  0
   -1.4307    1.6462    0.0000 H   0  0  0  0  0  0  0  0  0  0  0  0
   -0.3037    1.3442    0.0000 H   0  0  0  0  0  0  0  0  0  0  0  0
   -0.7162    2.8837    0.0000 H   0  0  0  0  0  0  0  0  0  0  0  0
    0.7127    3.7087    0.0000 H   0  0  0  0  0  0  0  0  0  0  0  0
   -1.0182    4.8356    0.0000 H   0  0  0  0  0  0  0  0  0  0  0  0
   -2.1452    4.5337    0.0000 H   0  0  0  0  0  0  0  0  0  0  0  0
   -1.8432    3.4067    0.0000 H   0  0  0  0  0  0  0  0  0  0  0  0
   -1.9412    2.8509    0.0000 H   0  0  0  0  0  0  0  0  0  0  0  0
   -1.6590    2.3622    0.0000 H   0  0  0  0  0  0  0  0  0  0  0  0
   -1.3422    3.7911    0.0000 H   0  0  0  0  0  0  0  0  0  0  0  0
    0.1985    3.7686    0.0000 H   0  0  0  0  0  0  0  0  0  0  0  0
    0.4932    4.6367    0.0000 H   0  0  0  0  0  0  0  0  0  0  0  0
   -0.1960    5.2411    0.0000 H   0  0  0  0  0  0  0  0  0  0  0  0
    2.1417    1.2337    0.0000 H   0  0  0  0  0  0  0  0  0  0  0  0
    2.1417   -0.4163    0.0000 H   0  0  0  0  0  0  0  0  0  0  0  0
    0.7127   -1.2413    0.0000 H   0  0  0  0  0  0  0  0  0  0  0  0
   -0.7986    0.6076    0.0000 H   0  0  0  0  0  0  0  0  0  0  0  0
  1  2  1  0  0  0  0
  2  3  1  0  0  0  0
  3  4  1  0  0  0  0
  4  5  1  0  0  0  0
  4  6  1  0  0  0  0
  4  7  1  0  0  0  0
  2  8  1  0  0  0  0
  8  9  2  0  0  0  0
  8 10  1  0  0  0  0
 10 11  4  0  0  0  0
 11 12  4  0  0  0  0
 12 13  4  0  0  0  0
 13 14  4  0  0  0  0
 14 15  1  0  0  0  0
 14 16  4  0  0  0  0
 10 16  4  0  0  0  0
  1 17  1  0  0  0  0
  1 18  1  0  0  0  0
  1 19  1  0  0  0  0
  2 20  1  0  0  0  0
  3 21  1  0  0  0  0
  5 22  1  0  0  0  0
  5 23  1  0  0  0  0
  5 24  1  0  0  0  0
  6 25  1  0  0  0  0
  6 26  1  0  0  0  0
  6 27  1  0  0  0  0
  7 28  1  0  0  0  0
  7 29  1  0  0  0  0
  7 30  1  0  0  0  0
 11 31  1  0  0  0  0
 12 32  1  0  0  0  0
 13 33  1  0  0  0  0
 16 34  1  0  0  0  0
M  END
>  <InChIKey>
InChI=1S/C13H18ClNO/c1-9(15-13(2,3)4)12(16)10-6-5-7-11(14)8-10/h5-9,15H,1-4H3

>  <CASRN>
34911-55-2

> <Outcome>
0

>  <Index>
2835

>  <StandardizerResult>
Dearomatize (ID: Dearomatize)
Clear Stereo (ID: ClearStereo)
Wedge Clean (ID: WedgeClean)
Mesomerize (ID: Mesomerize)
Tautomerize (ID: Tautomerize)
Aromatize (ID: Aromatize)
Add Explicit Hydrogens (ID: AddExplicitH)
Neutralize (ID: Neutralize)
Clean 2D (ID: Clean2D)

> <knn Distance>
3.74165749549866

> <CpId>
2835

$$$$
2851
  Mrv1532301301811342D          

 20 20  0  0  0  0            999 V2000
    0.6496    2.1873    0.0000 O   0  0  0  0  0  0  0  0  0  0  0  0
    0.6496    1.3623    0.0000 C   0  0  0  0  0  0  0  0  0  0  0  0
    1.3641    0.9498    0.0000 C   0  0  0  0  0  0  0  0  0  0  0  0
    1.3641    0.1248    0.0000 O   0  0  0  0  0  0  0  0  0  0  0  0
    0.6496   -0.2877    0.0000 C   0  0  0  0  0  0  0  0  0  0  0  0
    0.6496   -1.1127    0.0000 O   0  0  0  0  0  0  0  0  0  0  0  0
   -0.0649    0.1248    0.0000 C   0  0  0  0  0  0  0  0  0  0  0  0
   -0.7794   -0.2877    0.0000 O   0  0  0  0  0  0  0  0  0  0  0  0
   -0.0649    0.9498    0.0000 C   0  0  0  0  0  0  0  0  0  0  0  0
   -0.7794    1.3623    0.0000 O   0  0  0  0  0  0  0  0  0  0  0  0
    1.3641    2.5998    0.0000 H   0  0  0  0  0  0  0  0  0  0  0  0
   -0.0649    1.7748    0.0000 H   0  0  0  0  0  0  0  0  0  0  0  0
    2.1877    0.9978    0.0000 H   0  0  0  0  0  0  0  0  0  0  0  0
    1.8174    1.6391    0.0000 H   0  0  0  0  0  0  0  0  0  0  0  0
   -0.0649   -0.7002    0.0000 H   0  0  0  0  0  0  0  0  0  0  0  0
    1.0621   -1.8271    0.0000 H   0  0  0  0  0  0  0  0  0  0  0  0
   -0.7794    0.5373    0.0000 H   0  0  0  0  0  0  0  0  0  0  0  0
   -1.4938   -0.7002    0.0000 H   0  0  0  0  0  0  0  0  0  0  0  0
    0.6496    0.5373    0.0000 H   0  0  0  0  0  0  0  0  0  0  0  0
   -1.4938    1.7748    0.0000 H   0  0  0  0  0  0  0  0  0  0  0  0
  1  2  1  0  0  0  0
  2  3  1  0  0  0  0
  3  4  1  0  0  0  0
  4  5  1  0  0  0  0
  5  6  1  0  0  0  0
  5  7  1  0  0  0  0
  7  8  1  0  0  0  0
  7  9  1  0  0  0  0
  2  9  1  0  0  0  0
  9 10  1  0  0  0  0
  1 11  1  0  0  0  0
  2 12  1  0  0  0  0
  3 13  1  0  0  0  0
  3 14  1  0  0  0  0
  5 15  1  0  0  0  0
  6 16  1  0  0  0  0
  7 17  1  0  0  0  0
  8 18  1  0  0  0  0
  9 19  1  0  0  0  0
 10 20  1  0  0  0  0
M  END
>  <InChIKey>
InChI=1S/C5H10O5/c6-2-1-10-5(9)4(8)3(2)7/h2-9H,1H2

>  <CASRN>
58-86-6

> <Outcome>
0

>  <Index>
2851

>  <StandardizerResult>
Clear Stereo (ID: ClearStereo)
Wedge Clean (ID: WedgeClean)
Mesomerize (ID: Mesomerize)
Tautomerize (ID: Tautomerize)
Add Explicit Hydrogens (ID: AddExplicitH)
Neutralize (ID: Neutralize)
Clean 2D (ID: Clean2D)

> <knn Distance>
3.74165749549866

> <CpId>
2851

$$$$
2904
  Mrv1532301301811342D          

114114  0  0  0  0            999 V2000
   -3.0858  -11.5986    0.0000 C   0  0  0  0  0  0  0  0  0  0  0  0
   -2.3287  -11.9264    0.0000 C   0  0  0  0  0  0  0  0  0  0  0  0
   -1.6663  -11.4347    0.0000 C   0  0  0  0  0  0  0  0  0  0  0  0
   -0.9092  -11.7625    0.0000 C   0  0  0  0  0  0  0  0  0  0  0  0
   -0.2468  -11.2708    0.0000 C   0  0  0  0  0  0  0  0  0  0  0  0
    0.5103  -11.5986    0.0000 C   0  0  0  0  0  0  0  0  0  0  0  0
    1.1727  -11.1069    0.0000 C   0  0  0  0  0  0  0  0  0  0  0  0
    1.9298  -11.4347    0.0000 C   0  0  0  0  0  0  0  0  0  0  0  0
    2.5922  -10.9430    0.0000 C   0  0  0  0  0  0  0  0  0  0  0  0
    3.3493  -11.2708    0.0000 C   0  0  0  0  0  0  0  0  0  0  0  0
    4.0117  -10.7790    0.0000 C   0  0  0  0  0  0  0  0  0  0  0  0
    4.7688  -11.1069    0.0000 C   0  0  0  0  0  0  0  0  0  0  0  0
    5.4313  -10.6151    0.0000 C   0  0  0  0  0  0  0  0  0  0  0  0
    6.1883  -10.9430    0.0000 C   0  0  0  0  0  0  0  0  0  0  0  0
    6.8508  -10.4512    0.0000 C   0  0  0  0  0  0  0  0  0  0  0  0
    7.6078  -10.7790    0.0000 C   0  0  0  0  0  0  0  0  0  0  0  0
    7.7025  -11.5986    0.0000 O   0  0  0  0  0  0  0  0  0  0  0  0
    8.2703  -10.2873    0.0000 O   0  0  0  0  0  0  0  0  0  0  0  0
    9.0273  -10.6151    0.0000 C   0  0  0  0  0  0  0  0  0  0  0  0
    9.1220  -11.4347    0.0000 C   0  0  0  0  0  0  0  0  0  0  0  0
    8.4595  -11.9264    0.0000 O   0  0  0  0  0  0  0  0  0  0  0  0
    9.6898  -10.1234    0.0000 C   0  0  0  0  0  0  0  0  0  0  0  0
    9.6813   -9.2984    0.0000 O   0  0  0  0  0  0  0  0  0  0  0  0
   10.4633   -9.0355    0.0000 C   0  0  0  0  0  0  0  0  0  0  0  0
   10.7102   -8.2483    0.0000 O   0  0  0  0  0  0  0  0  0  0  0  0
   10.9550   -9.6979    0.0000 C   0  0  0  0  0  0  0  0  0  0  0  0
   11.7800   -9.6895    0.0000 O   0  0  0  0  0  0  0  0  0  0  0  0
   10.4770  -10.3703    0.0000 C   0  0  0  0  0  0  0  0  0  0  0  0
   10.7399  -11.1523    0.0000 O   0  0  0  0  0  0  0  0  0  0  0  0
   11.5486  -11.3155    0.0000 C   0  0  0  0  0  0  0  0  0  0  0  0
   11.8116  -12.0975    0.0000 O   0  0  0  0  0  0  0  0  0  0  0  0
   12.0943  -10.6968    0.0000 C   0  0  0  0  0  0  0  0  0  0  0  0
   12.9030  -10.8600    0.0000 C   0  0  0  0  0  0  0  0  0  0  0  0
   13.4488  -10.2413    0.0000 C   0  0  0  0  0  0  0  0  0  0  0  0
   14.2574  -10.4046    0.0000 C   0  0  0  0  0  0  0  0  0  0  0  0
   14.8032   -9.7859    0.0000 C   0  0  0  0  0  0  0  0  0  0  0  0
   15.6119   -9.9491    0.0000 C   0  0  0  0  0  0  0  0  0  0  0  0
   16.1576   -9.3304    0.0000 C   0  0  0  0  0  0  0  0  0  0  0  0
   16.9663   -9.4937    0.0000 C   0  0  0  0  0  0  0  0  0  0  0  0
   17.5120   -8.8749    0.0000 C   0  0  0  0  0  0  0  0  0  0  0  0
   18.3207   -9.0382    0.0000 C   0  0  0  0  0  0  0  0  0  0  0  0
   18.8664   -8.4195    0.0000 C   0  0  0  0  0  0  0  0  0  0  0  0
   19.6751   -8.5827    0.0000 C   0  0  0  0  0  0  0  0  0  0  0  0
   20.2208   -7.9640    0.0000 C   0  0  0  0  0  0  0  0  0  0  0  0
   21.0295   -8.1273    0.0000 C   0  0  0  0  0  0  0  0  0  0  0  0
   21.5752   -7.5086    0.0000 C   0  0  0  0  0  0  0  0  0  0  0  0
   -2.7580  -10.8415    0.0000 H   0  0  0  0  0  0  0  0  0  0  0  0
   -3.8429  -11.2708    0.0000 H   0  0  0  0  0  0  0  0  0  0  0  0
   -3.4136  -12.3557    0.0000 H   0  0  0  0  0  0  0  0  0  0  0  0
   -2.6120  -12.7013    0.0000 H   0  0  0  0  0  0  0  0  0  0  0  0
   -1.8763  -12.6163    0.0000 H   0  0  0  0  0  0  0  0  0  0  0  0
   -1.3830  -10.6598    0.0000 H   0  0  0  0  0  0  0  0  0  0  0  0
   -2.1187  -10.7448    0.0000 H   0  0  0  0  0  0  0  0  0  0  0  0
   -1.1925  -12.5374    0.0000 H   0  0  0  0  0  0  0  0  0  0  0  0
   -0.4568  -12.4524    0.0000 H   0  0  0  0  0  0  0  0  0  0  0  0
    0.0365  -10.4959    0.0000 H   0  0  0  0  0  0  0  0  0  0  0  0
   -0.6992  -10.5809    0.0000 H   0  0  0  0  0  0  0  0  0  0  0  0
    0.2270  -12.3734    0.0000 H   0  0  0  0  0  0  0  0  0  0  0  0
    0.9627  -12.2885    0.0000 H   0  0  0  0  0  0  0  0  0  0  0  0
    1.4560  -10.3320    0.0000 H   0  0  0  0  0  0  0  0  0  0  0  0
    0.7203  -10.4170    0.0000 H   0  0  0  0  0  0  0  0  0  0  0  0
    1.6466  -12.2095    0.0000 H   0  0  0  0  0  0  0  0  0  0  0  0
    2.3822  -12.1246    0.0000 H   0  0  0  0  0  0  0  0  0  0  0  0
    2.8755  -10.1681    0.0000 H   0  0  0  0  0  0  0  0  0  0  0  0
    2.1399  -10.2530    0.0000 H   0  0  0  0  0  0  0  0  0  0  0  0
    3.0661  -12.0456    0.0000 H   0  0  0  0  0  0  0  0  0  0  0  0
    3.8017  -11.9607    0.0000 H   0  0  0  0  0  0  0  0  0  0  0  0
    4.2950  -10.0042    0.0000 H   0  0  0  0  0  0  0  0  0  0  0  0
    3.5594  -10.0891    0.0000 H   0  0  0  0  0  0  0  0  0  0  0  0
    4.4856  -11.8817    0.0000 H   0  0  0  0  0  0  0  0  0  0  0  0
    5.2212  -11.7968    0.0000 H   0  0  0  0  0  0  0  0  0  0  0  0
    5.7145   -9.8403    0.0000 H   0  0  0  0  0  0  0  0  0  0  0  0
    4.9789   -9.9252    0.0000 H   0  0  0  0  0  0  0  0  0  0  0  0
    5.9051  -11.7178    0.0000 H   0  0  0  0  0  0  0  0  0  0  0  0
    6.6407  -11.6329    0.0000 H   0  0  0  0  0  0  0  0  0  0  0  0
    7.1340   -9.6764    0.0000 H   0  0  0  0  0  0  0  0  0  0  0  0
    6.3984   -9.7613    0.0000 H   0  0  0  0  0  0  0  0  0  0  0  0
    8.3649  -11.1069    0.0000 H   0  0  0  0  0  0  0  0  0  0  0  0
    9.6514  -12.0674    0.0000 H   0  0  0  0  0  0  0  0  0  0  0  0
    9.9457  -11.3879    0.0000 H   0  0  0  0  0  0  0  0  0  0  0  0
    8.5542  -12.7460    0.0000 H   0  0  0  0  0  0  0  0  0  0  0  0
    9.8272  -10.9369    0.0000 H   0  0  0  0  0  0  0  0  0  0  0  0
   11.2931  -10.4910    0.0000 H   0  0  0  0  0  0  0  0  0  0  0  0
   12.6508  -10.0877    0.0000 H   0  0  0  0  0  0  0  0  0  0  0  0
   11.8588   -9.9061    0.0000 H   0  0  0  0  0  0  0  0  0  0  0  0
   12.7871  -11.6769    0.0000 H   0  0  0  0  0  0  0  0  0  0  0  0
   13.4890  -11.4408    0.0000 H   0  0  0  0  0  0  0  0  0  0  0  0
   13.8763   -9.5358    0.0000 H   0  0  0  0  0  0  0  0  0  0  0  0
   13.3211   -9.4263    0.0000 H   0  0  0  0  0  0  0  0  0  0  0  0
   14.1415  -11.2214    0.0000 H   0  0  0  0  0  0  0  0  0  0  0  0
   14.8434  -10.9854    0.0000 H   0  0  0  0  0  0  0  0  0  0  0  0
   15.3620   -9.1790    0.0000 H   0  0  0  0  0  0  0  0  0  0  0  0
   14.5740   -8.9933    0.0000 H   0  0  0  0  0  0  0  0  0  0  0  0
   15.4959  -10.7659    0.0000 H   0  0  0  0  0  0  0  0  0  0  0  0
   16.1978  -10.5299    0.0000 H   0  0  0  0  0  0  0  0  0  0  0  0
   16.5845   -8.6245    0.0000 H   0  0  0  0  0  0  0  0  0  0  0  0
   16.0289   -8.5155    0.0000 H   0  0  0  0  0  0  0  0  0  0  0  0
   16.8503  -10.3105    0.0000 H   0  0  0  0  0  0  0  0  0  0  0  0
   17.5522  -10.0744    0.0000 H   0  0  0  0  0  0  0  0  0  0  0  0
   18.0709   -8.2681    0.0000 H   0  0  0  0  0  0  0  0  0  0  0  0
   17.2829   -8.0824    0.0000 H   0  0  0  0  0  0  0  0  0  0  0  0
   18.2047   -9.8550    0.0000 H   0  0  0  0  0  0  0  0  0  0  0  0
   18.9066   -9.6190    0.0000 H   0  0  0  0  0  0  0  0  0  0  0  0
   19.2933   -7.7135    0.0000 H   0  0  0  0  0  0  0  0  0  0  0  0
   18.7377   -7.6046    0.0000 H   0  0  0  0  0  0  0  0  0  0  0  0
   19.5591   -9.3996    0.0000 H   0  0  0  0  0  0  0  0  0  0  0  0
   20.2610   -9.1635    0.0000 H   0  0  0  0  0  0  0  0  0  0  0  0
   20.7797   -7.3572    0.0000 H   0  0  0  0  0  0  0  0  0  0  0  0
   19.9918   -7.1715    0.0000 H   0  0  0  0  0  0  0  0  0  0  0  0
   20.9135   -8.9441    0.0000 H   0  0  0  0  0  0  0  0  0  0  0  0
   21.6154   -8.7081    0.0000 H   0  0  0  0  0  0  0  0  0  0  0  0
   22.0335   -8.1946    0.0000 H   0  0  0  0  0  0  0  0  0  0  0  0
   22.3557   -7.2412    0.0000 H   0  0  0  0  0  0  0  0  0  0  0  0
   21.5167   -6.6856    0.0000 H   0  0  0  0  0  0  0  0  0  0  0  0
  1  2  1  0  0  0  0
  2  3  1  0  0  0  0
  3  4  1  0  0  0  0
  4  5  1  0  0  0  0
  5  6  1  0  0  0  0
  6  7  1  0  0  0  0
  7  8  1  0  0  0  0
  8  9  1  0  0  0  0
  9 10  1  0  0  0  0
 10 11  1  0  0  0  0
 11 12  1  0  0  0  0
 12 13  1  0  0  0  0
 13 14  1  0  0  0  0
 14 15  1  0  0  0  0
 15 16  1  0  0  0  0
 16 17  2  0  0  0  0
 16 18  1  0  0  0  0
 18 19  1  0  0  0  0
 19 20  1  0  0  0  0
 20 21  1  0  0  0  0
 19 22  1  0  0  0  0
 22 23  1  0  0  0  0
 23 24  1  0  0  0  0
 24 25  2  0  0  0  0
 24 26  1  0  0  0  0
 26 27  2  0  0  0  0
 26 28  1  0  0  0  0
 22 28  1  0  0  0  0
 28 29  1  0  0  0  0
 29 30  1  0  0  0  0
 30 31  2  0  0  0  0
 30 32  1  0  0  0  0
 32 33  1  0  0  0  0
 33 34  1  0  0  0  0
 34 35  1  0  0  0  0
 35 36  1  0  0  0  0
 36 37  1  0  0  0  0
 37 38  1  0  0  0  0
 38 39  1  0  0  0  0
 39 40  1  0  0  0  0
 40 41  1  0  0  0  0
 41 42  1  0  0  0  0
 42 43  1  0  0  0  0
 43 44  1  0  0  0  0
 44 45  1  0  0  0  0
 45 46  1  0  0  0  0
  1 47  1  0  0  0  0
  1 48  1  0  0  0  0
  1 49  1  0  0  0  0
  2 50  1  0  0  0  0
  2 51  1  0  0  0  0
  3 52  1  0  0  0  0
  3 53  1  0  0  0  0
  4 54  1  0  0  0  0
  4 55  1  0  0  0  0
  5 56  1  0  0  0  0
  5 57  1  0  0  0  0
  6 58  1  0  0  0  0
  6 59  1  0  0  0  0
  7 60  1  0  0  0  0
  7 61  1  0  0  0  0
  8 62  1  0  0  0  0
  8 63  1  0  0  0  0
  9 64  1  0  0  0  0
  9 65  1  0  0  0  0
 10 66  1  0  0  0  0
 10 67  1  0  0  0  0
 11 68  1  0  0  0  0
 11 69  1  0  0  0  0
 12 70  1  0  0  0  0
 12 71  1  0  0  0  0
 13 72  1  0  0  0  0
 13 73  1  0  0  0  0
 14 74  1  0  0  0  0
 14 75  1  0  0  0  0
 15 76  1  0  0  0  0
 15 77  1  0  0  0  0
 19 78  1  0  0  0  0
 20 79  1  0  0  0  0
 20 80  1  0  0  0  0
 21 81  1  0  0  0  0
 22 82  1  0  0  0  0
 28 83  1  0  0  0  0
 32 84  1  0  0  0  0
 32 85  1  0  0  0  0
 33 86  1  0  0  0  0
 33 87  1  0  0  0  0
 34 88  1  0  0  0  0
 34 89  1  0  0  0  0
 35 90  1  0  0  0  0
 35 91  1  0  0  0  0
 36 92  1  0  0  0  0
 36 93  1  0  0  0  0
 37 94  1  0  0  0  0
 37 95  1  0  0  0  0
 38 96  1  0  0  0  0
 38 97  1  0  0  0  0
 39 98  1  0  0  0  0
 39 99  1  0  0  0  0
 40100  1  0  0  0  0
 40101  1  0  0  0  0
 41102  1  0  0  0  0
 41103  1  0  0  0  0
 42104  1  0  0  0  0
 42105  1  0  0  0  0
 43106  1  0  0  0  0
 43107  1  0  0  0  0
 44108  1  0  0  0  0
 44109  1  0  0  0  0
 45110  1  0  0  0  0
 45111  1  0  0  0  0
 46112  1  0  0  0  0
 46113  1  0  0  0  0
 46114  1  0  0  0  0
M  END
>  <InChIKey>
InChI=1S/C38H68O8/c1-3-5-7-9-11-13-15-17-19-21-23-25-27-29-33(40)44-32(31-39)36-37(35(42)38(43)46-36)45-34(41)30-28-26-24-22-20-18-16-14-12-10-8-6-4-2/h32,36-37,39H,3-31H2,1-2H3

>  <CASRN>
28474-90-0

> <Outcome>
0

>  <Index>
2904

>  <StandardizerResult>
Clear Stereo (ID: ClearStereo)
Wedge Clean (ID: WedgeClean)
Mesomerize (ID: Mesomerize)
Tautomerize (ID: Tautomerize)
Add Explicit Hydrogens (ID: AddExplicitH)
Neutralize (ID: Neutralize)
Clean 2D (ID: Clean2D)

> <knn Distance>
3.74165749549866

> <CpId>
2904

$$$$
2911
  Mrv1532301301811342D          

 34 36  0  0  0  0            999 V2000
    0.0555   -3.0149    0.0000 C   0  0  0  0  0  0  0  0  0  0  0  0
    0.7699   -2.6024    0.0000 C   0  0  0  0  0  0  0  0  0  0  0  0
    1.4844   -3.0149    0.0000 N   0  0  0  0  0  0  0  0  0  0  0  0
    0.7699   -1.7774    0.0000 C   0  0  0  0  0  0  0  0  0  0  0  0
    0.0345   -2.1511    0.0000 C   0  0  0  0  0  0  0  0  0  0  0  0
    0.4839   -1.3608    0.0000 C   0  0  0  0  0  0  0  0  0  0  0  0
    1.2194   -1.7345    0.0000 C   0  0  0  0  0  0  0  0  0  0  0  0
    1.9550   -1.3608    0.0000 C   0  0  0  0  0  0  0  0  0  0  0  0
    1.9550   -0.6134    0.0000 C   0  0  0  0  0  0  0  0  0  0  0  0
    1.2194   -0.2397    0.0000 C   0  0  0  0  0  0  0  0  0  0  0  0
    0.4839   -0.6134    0.0000 C   0  0  0  0  0  0  0  0  0  0  0  0
    0.7699   -1.0300    0.0000 C   0  0  0  0  0  0  0  0  0  0  0  0
    1.5055   -2.1511    0.0000 C   0  0  0  0  0  0  0  0  0  0  0  0
   -0.7452   -2.8160    0.0000 H   0  0  0  0  0  0  0  0  0  0  0  0
   -0.3483   -3.7344    0.0000 H   0  0  0  0  0  0  0  0  0  0  0  0
    0.6424   -3.5947    0.0000 H   0  0  0  0  0  0  0  0  0  0  0  0
    0.7700   -3.4274    0.0000 H   0  0  0  0  0  0  0  0  0  0  0  0
    1.9312   -3.7084    0.0000 H   0  0  0  0  0  0  0  0  0  0  0  0
    2.3072   -3.0751    0.0000 H   0  0  0  0  0  0  0  0  0  0  0  0
   -0.6195   -1.6482    0.0000 H   0  0  0  0  0  0  0  0  0  0  0  0
   -0.7796   -2.2849    0.0000 H   0  0  0  0  0  0  0  0  0  0  0  0
   -0.3137   -1.1499    0.0000 H   0  0  0  0  0  0  0  0  0  0  0  0
    1.6467   -1.0288    0.0000 H   0  0  0  0  0  0  0  0  0  0  0  0
    1.2097   -0.9096    0.0000 H   0  0  0  0  0  0  0  0  0  0  0  0
    2.7526   -1.5718    0.0000 H   0  0  0  0  0  0  0  0  0  0  0  0
    2.7774   -0.5483    0.0000 H   0  0  0  0  0  0  0  0  0  0  0  0
    2.3855    0.0903    0.0000 H   0  0  0  0  0  0  0  0  0  0  0  0
    1.2194    0.5853    0.0000 H   0  0  0  0  0  0  0  0  0  0  0  0
    0.3455    0.1999    0.0000 H   0  0  0  0  0  0  0  0  0  0  0  0
   -0.1591   -0.0965    0.0000 H   0  0  0  0  0  0  0  0  0  0  0  0
    1.4214   -0.5239    0.0000 H   0  0  0  0  0  0  0  0  0  0  0  0
   -0.0538   -0.9841    0.0000 H   0  0  0  0  0  0  0  0  0  0  0  0
    2.1299   -2.6903    0.0000 H   0  0  0  0  0  0  0  0  0  0  0  0
    2.3185   -2.0110    0.0000 H   0  0  0  0  0  0  0  0  0  0  0  0
  1  2  1  0  0  0  0
  2  3  1  0  0  0  0
  2  4  1  0  0  0  0
  4  5  1  0  0  0  0
  5  6  1  0  0  0  0
  8 13  1  0  0  0  0
  7  8  1  0  0  0  0
  4 13  1  0  0  0  0
  6  7  1  0  0  0  0
 10 11  1  0  0  0  0
  9 10  1  0  0  0  0
 10 12  1  0  0  0  0
  6 11  1  0  0  0  0
  4 12  1  0  0  0  0
  8  9  1  0  0  0  0
  1 14  1  0  0  0  0
  1 15  1  0  0  0  0
  1 16  1  0  0  0  0
  2 17  1  0  0  0  0
  3 18  1  0  0  0  0
  3 19  1  0  0  0  0
  5 20  1  0  0  0  0
  5 21  1  0  0  0  0
  6 22  1  0  0  0  0
  7 23  1  0  0  0  0
  7 24  1  0  0  0  0
  8 25  1  0  0  0  0
  9 26  1  0  0  0  0
  9 27  1  0  0  0  0
 10 28  1  0  0  0  0
 11 29  1  0  0  0  0
 11 30  1  0  0  0  0
 12 31  1  0  0  0  0
 12 32  1  0  0  0  0
 13 33  1  0  0  0  0
 13 34  1  0  0  0  0
M  END
>  <InChIKey>
InChI=1S/C12H21N/c1-8(13)12-5-9-2-10(6-12)4-11(3-9)7-12/h8-11H,2-7,13H2,1H3

>  <CASRN>
13392-28-4

> <Outcome>
0

>  <Index>
2911

>  <StandardizerResult>
Clear Stereo (ID: ClearStereo)
Wedge Clean (ID: WedgeClean)
Mesomerize (ID: Mesomerize)
Tautomerize (ID: Tautomerize)
Add Explicit Hydrogens (ID: AddExplicitH)
Neutralize (ID: Neutralize)
Clean 2D (ID: Clean2D)

> <knn Distance>
3.74165749549866

> <CpId>
2911

$$$$
2950
  Mrv1532301301811342D          

 48 49  0  0  0  0            999 V2000
   -0.7544    1.3058    0.0000 C   0  0  0  0  0  0  0  0  0  0  0  0
   -0.0399    0.8933    0.0000 C   0  0  0  0  0  0  0  0  0  0  0  0
   -0.0399    0.0683    0.0000 C   0  0  0  0  0  0  0  0  0  0  0  0
   -0.7544   -0.3442    0.0000 C   0  0  0  0  0  0  0  0  0  0  0  0
   -0.7544   -1.1692    0.0000 C   0  0  0  0  0  0  0  0  0  0  0  0
   -0.0399   -1.5817    0.0000 C   0  0  0  0  0  0  0  0  0  0  0  0
   -0.0399   -2.4067    0.0000 C   0  0  0  0  0  0  0  0  0  0  0  0
   -0.7544   -2.8192    0.0000 C   0  0  0  0  0  0  0  0  0  0  0  0
   -1.4689   -2.4067    0.0000 C   0  0  0  0  0  0  0  0  0  0  0  0
   -1.4689   -1.5817    0.0000 C   0  0  0  0  0  0  0  0  0  0  0  0
   -1.4689    0.0683    0.0000 C   0  0  0  0  0  0  0  0  0  0  0  0
   -2.1833   -0.3442    0.0000 C   0  0  0  0  0  0  0  0  0  0  0  0
   -2.8978    0.0683    0.0000 C   0  0  0  0  0  0  0  0  0  0  0  0
   -2.8978    0.8933    0.0000 C   0  0  0  0  0  0  0  0  0  0  0  0
   -2.1833    1.3058    0.0000 C   0  0  0  0  0  0  0  0  0  0  0  0
   -1.4689    0.8933    0.0000 C   0  0  0  0  0  0  0  0  0  0  0  0
    0.6745    1.3058    0.0000 N   0  0  0  0  0  0  0  0  0  0  0  0
    0.6745    2.1308    0.0000 C   0  0  0  0  0  0  0  0  0  0  0  0
    0.6745    2.9558    0.0000 C   0  0  0  0  0  0  0  0  0  0  0  0
    1.4995    2.1308    0.0000 C   0  0  0  0  0  0  0  0  0  0  0  0
   -0.1505    2.1308    0.0000 C   0  0  0  0  0  0  0  0  0  0  0  0
   -0.0399    1.7183    0.0000 H   0  0  0  0  0  0  0  0  0  0  0  0
   -0.7544    2.1308    0.0000 H   0  0  0  0  0  0  0  0  0  0  0  0
   -1.4689    1.7183    0.0000 H   0  0  0  0  0  0  0  0  0  0  0  0
   -0.7544    0.4808    0.0000 H   0  0  0  0  0  0  0  0  0  0  0  0
    0.4134   -0.6210    0.0000 H   0  0  0  0  0  0  0  0  0  0  0  0
    0.7837    0.0203    0.0000 H   0  0  0  0  0  0  0  0  0  0  0  0
   -0.0399   -0.7567    0.0000 H   0  0  0  0  0  0  0  0  0  0  0  0
    0.7851   -1.5817    0.0000 H   0  0  0  0  0  0  0  0  0  0  0  0
    0.6745   -2.8192    0.0000 H   0  0  0  0  0  0  0  0  0  0  0  0
   -0.7544   -3.6442    0.0000 H   0  0  0  0  0  0  0  0  0  0  0  0
   -2.1833   -2.8192    0.0000 H   0  0  0  0  0  0  0  0  0  0  0  0
   -2.1833   -1.1692    0.0000 H   0  0  0  0  0  0  0  0  0  0  0  0
   -1.4689   -0.7567    0.0000 H   0  0  0  0  0  0  0  0  0  0  0  0
   -3.6123   -0.3442    0.0000 H   0  0  0  0  0  0  0  0  0  0  0  0
   -3.6123    1.3058    0.0000 H   0  0  0  0  0  0  0  0  0  0  0  0
   -2.5958    2.0203    0.0000 H   0  0  0  0  0  0  0  0  0  0  0  0
   -2.1833    0.4808    0.0000 H   0  0  0  0  0  0  0  0  0  0  0  0
    1.3890    0.8933    0.0000 H   0  0  0  0  0  0  0  0  0  0  0  0
    1.4995    2.9558    0.0000 H   0  0  0  0  0  0  0  0  0  0  0  0
    0.6745    3.7808    0.0000 H   0  0  0  0  0  0  0  0  0  0  0  0
   -0.1505    2.9558    0.0000 H   0  0  0  0  0  0  0  0  0  0  0  0
    1.1838    1.3686    0.0000 H   0  0  0  0  0  0  0  0  0  0  0  0
    2.0829    1.5475    0.0000 H   0  0  0  0  0  0  0  0  0  0  0  0
    2.2617    2.4465    0.0000 H   0  0  0  0  0  0  0  0  0  0  0  0
   -0.6527    1.4763    0.0000 H   0  0  0  0  0  0  0  0  0  0  0  0
   -0.7338    2.7142    0.0000 H   0  0  0  0  0  0  0  0  0  0  0  0
    0.4329    2.7142    0.0000 H   0  0  0  0  0  0  0  0  0  0  0  0
  1  2  1  0  0  0  0
  2  3  1  0  0  0  0
  3  4  1  0  0  0  0
  4  5  1  0  0  0  0
  5  6  4  0  0  0  0
  6  7  4  0  0  0  0
  7  8  4  0  0  0  0
  8  9  4  0  0  0  0
  9 10  4  0  0  0  0
  5 10  4  0  0  0  0
  4 11  1  0  0  0  0
 11 12  4  0  0  0  0
 12 13  4  0  0  0  0
 13 14  4  0  0  0  0
 14 15  4  0  0  0  0
 15 16  4  0  0  0  0
 11 16  4  0  0  0  0
  2 17  1  0  0  0  0
 17 18  1  0  0  0  0
 18 19  1  0  0  0  0
 18 20  1  0  0  0  0
 18 21  1  0  0  0  0
  1 22  1  0  0  0  0
  1 23  1  0  0  0  0
  1 24  1  0  0  0  0
  2 25  1  0  0  0  0
  3 26  1  0  0  0  0
  3 27  1  0  0  0  0
  4 28  1  0  0  0  0
  6 29  1  0  0  0  0
  7 30  1  0  0  0  0
  8 31  1  0  0  0  0
  9 32  1  0  0  0  0
 10 33  1  0  0  0  0
 12 34  1  0  0  0  0
 13 35  1  0  0  0  0
 14 36  1  0  0  0  0
 15 37  1  0  0  0  0
 16 38  1  0  0  0  0
 17 39  1  0  0  0  0
 19 40  1  0  0  0  0
 19 41  1  0  0  0  0
 19 42  1  0  0  0  0
 20 43  1  0  0  0  0
 20 44  1  0  0  0  0
 20 45  1  0  0  0  0
 21 46  1  0  0  0  0
 21 47  1  0  0  0  0
 21 48  1  0  0  0  0
M  END
>  <InChIKey>
InChI=1S/C20H27N/c1-16(21-20(2,3)4)15-19(17-11-7-5-8-12-17)18-13-9-6-10-14-18/h5-14,16,19,21H,15H2,1-4H3

>  <CASRN>
15793-40-5

> <Outcome>
0

>  <Index>
2950

>  <StandardizerResult>
Dearomatize (ID: Dearomatize)
Clear Stereo (ID: ClearStereo)
Wedge Clean (ID: WedgeClean)
Mesomerize (ID: Mesomerize)
Tautomerize (ID: Tautomerize)
Aromatize (ID: Aromatize)
Add Explicit Hydrogens (ID: AddExplicitH)
Neutralize (ID: Neutralize)
Clean 2D (ID: Clean2D)

> <knn Distance>
3.74165749549866

> <CpId>
2950

$$$$
2967
  Mrv1532301301811342D          

 65 69  0  0  0  0            999 V2000
    3.5438   -3.3196    0.0000 C   0  0  0  0  0  0  0  0  0  0  0  0
    3.9036   -2.5773    0.0000 C   0  0  0  0  0  0  0  0  0  0  0  0
    4.4355   -3.2080    0.0000 C   0  0  0  0  0  0  0  0  0  0  0  0
    5.2476   -3.0628    0.0000 C   0  0  0  0  0  0  0  0  0  0  0  0
    5.5279   -2.2868    0.0000 C   0  0  0  0  0  0  0  0  0  0  0  0
    4.9960   -1.6561    0.0000 C   0  0  0  0  0  0  0  0  0  0  0  0
    5.2763   -0.8802    0.0000 C   0  0  0  0  0  0  0  0  0  0  0  0
    6.0885   -0.7350    0.0000 C   0  0  0  0  0  0  0  0  0  0  0  0
    6.6203   -1.3657    0.0000 C   0  0  0  0  0  0  0  0  0  0  0  0
    7.4324   -1.2205    0.0000 C   0  0  0  0  0  0  0  0  0  0  0  0
    7.9642   -1.8512    0.0000 C   0  0  0  0  0  0  0  0  0  0  0  0
    8.7763   -1.7060    0.0000 O   0  0  0  0  0  0  0  0  0  0  0  0
    7.6839   -2.6271    0.0000 C   0  0  0  0  0  0  0  0  0  0  0  0
    6.8718   -2.7723    0.0000 C   0  0  0  0  0  0  0  0  0  0  0  0
    6.3400   -2.1416    0.0000 C   0  0  0  0  0  0  0  0  0  0  0  0
    4.1839   -1.8013    0.0000 C   0  0  0  0  0  0  0  0  0  0  0  0
    3.5326   -1.2950    0.0000 C   0  0  0  0  0  0  0  0  0  0  0  0
    2.8498   -1.7580    0.0000 C   0  0  0  0  0  0  0  0  0  0  0  0
    3.0791   -2.5505    0.0000 C   0  0  0  0  0  0  0  0  0  0  0  0
    2.5727   -3.2018    0.0000 O   0  0  0  0  0  0  0  0  0  0  0  0
    2.8836   -3.9660    0.0000 C   0  0  0  0  0  0  0  0  0  0  0  0
    3.7008   -4.0788    0.0000 O   0  0  0  0  0  0  0  0  0  0  0  0
    2.3772   -4.6173    0.0000 C   0  0  0  0  0  0  0  0  0  0  0  0
    2.6881   -5.3815    0.0000 C   0  0  0  0  0  0  0  0  0  0  0  0
    2.1818   -6.0328    0.0000 C   0  0  0  0  0  0  0  0  0  0  0  0
    2.4111   -6.8253    0.0000 C   0  0  0  0  0  0  0  0  0  0  0  0
    1.7283   -7.2883    0.0000 C   0  0  0  0  0  0  0  0  0  0  0  0
    1.0769   -6.7819    0.0000 C   0  0  0  0  0  0  0  0  0  0  0  0
    1.3572   -6.0060    0.0000 C   0  0  0  0  0  0  0  0  0  0  0  0
    2.7927   -2.9783    0.0000 H   0  0  0  0  0  0  0  0  0  0  0  0
    2.7312   -3.4626    0.0000 H   0  0  0  0  0  0  0  0  0  0  0  0
    4.2147   -3.7997    0.0000 H   0  0  0  0  0  0  0  0  0  0  0  0
    4.9640   -3.8414    0.0000 H   0  0  0  0  0  0  0  0  0  0  0  0
    4.7157   -2.4321    0.0000 H   0  0  0  0  0  0  0  0  0  0  0  0
    5.8800   -3.5925    0.0000 H   0  0  0  0  0  0  0  0  0  0  0  0
    6.0726   -3.0616    0.0000 H   0  0  0  0  0  0  0  0  0  0  0  0
    5.8082   -1.5109    0.0000 H   0  0  0  0  0  0  0  0  0  0  0  0
    4.4642   -1.0254    0.0000 H   0  0  0  0  0  0  0  0  0  0  0  0
    5.4177   -0.0674    0.0000 H   0  0  0  0  0  0  0  0  0  0  0  0
    4.8621   -0.1667    0.0000 H   0  0  0  0  0  0  0  0  0  0  0  0
    6.8529   -0.4248    0.0000 H   0  0  0  0  0  0  0  0  0  0  0  0
    6.4605    0.0013    0.0000 H   0  0  0  0  0  0  0  0  0  0  0  0
    7.7127   -0.4446    0.0000 H   0  0  0  0  0  0  0  0  0  0  0  0
    9.3082   -2.3367    0.0000 H   0  0  0  0  0  0  0  0  0  0  0  0
    8.2157   -3.2578    0.0000 H   0  0  0  0  0  0  0  0  0  0  0  0
    7.0856   -3.5692    0.0000 H   0  0  0  0  0  0  0  0  0  0  0  0
    3.3914   -2.0307    0.0000 H   0  0  0  0  0  0  0  0  0  0  0  0
    3.4874   -0.4712    0.0000 H   0  0  0  0  0  0  0  0  0  0  0  0
    2.9279   -0.7338    0.0000 H   0  0  0  0  0  0  0  0  0  0  0  0
    2.2962   -1.1462    0.0000 H   0  0  0  0  0  0  0  0  0  0  0  0
    2.0331   -1.8748    0.0000 H   0  0  0  0  0  0  0  0  0  0  0  0
    2.2688   -2.3950    0.0000 H   0  0  0  0  0  0  0  0  0  0  0  0
    1.6976   -4.1497    0.0000 H   0  0  0  0  0  0  0  0  0  0  0  0
    1.5963   -4.8832    0.0000 H   0  0  0  0  0  0  0  0  0  0  0  0
    3.3678   -5.8491    0.0000 H   0  0  0  0  0  0  0  0  0  0  0  0
    3.4691   -5.1156    0.0000 H   0  0  0  0  0  0  0  0  0  0  0  0
    1.8313   -5.2860    0.0000 H   0  0  0  0  0  0  0  0  0  0  0  0
    2.9646   -7.4371    0.0000 H   0  0  0  0  0  0  0  0  0  0  0  0
    3.2278   -6.7085    0.0000 H   0  0  0  0  0  0  0  0  0  0  0  0
    1.3175   -8.0037    0.0000 H   0  0  0  0  0  0  0  0  0  0  0  0
    2.0917   -8.0289    0.0000 H   0  0  0  0  0  0  0  0  0  0  0  0
    0.2695   -6.6123    0.0000 H   0  0  0  0  0  0  0  0  0  0  0  0
    0.4848   -7.3565    0.0000 H   0  0  0  0  0  0  0  0  0  0  0  0
    0.8064   -5.3918    0.0000 H   0  0  0  0  0  0  0  0  0  0  0  0
    0.5355   -5.9325    0.0000 H   0  0  0  0  0  0  0  0  0  0  0  0
  1  2  1  0  0  0  0
  2  3  1  0  0  0  0
  3  4  1  0  0  0  0
  4  5  1  0  0  0  0
  5  6  1  0  0  0  0
  6  7  1  0  0  0  0
  7  8  1  0  0  0  0
  8  9  1  0  0  0  0
  9 10  4  0  0  0  0
 10 11  4  0  0  0  0
 11 12  1  0  0  0  0
 11 13  4  0  0  0  0
 13 14  4  0  0  0  0
 14 15  4  0  0  0  0
  5 15  1  0  0  0  0
  9 15  4  0  0  0  0
  6 16  1  0  0  0  0
  2 16  1  0  0  0  0
 16 17  1  0  0  0  0
 17 18  1  0  0  0  0
 18 19  1  0  0  0  0
  2 19  1  0  0  0  0
 19 20  1  0  0  0  0
 20 21  1  0  0  0  0
 21 22  2  0  0  0  0
 21 23  1  0  0  0  0
 23 24  1  0  0  0  0
 24 25  1  0  0  0  0
 25 26  1  0  0  0  0
 26 27  1  0  0  0  0
 27 28  1  0  0  0  0
 28 29  1  0  0  0  0
 25 29  1  0  0  0  0
  1 30  1  0  0  0  0
  1 31  1  0  0  0  0
  1 32  1  0  0  0  0
  3 33  1  0  0  0  0
  3 34  1  0  0  0  0
  4 35  1  0  0  0  0
  4 36  1  0  0  0  0
  5 37  1  0  0  0  0
  6 38  1  0  0  0  0
  7 39  1  0  0  0  0
  7 40  1  0  0  0  0
  8 41  1  0  0  0  0
  8 42  1  0  0  0  0
 10 43  1  0  0  0  0
 12 44  1  0  0  0  0
 13 45  1  0  0  0  0
 14 46  1  0  0  0  0
 16 47  1  0  0  0  0
 17 48  1  0  0  0  0
 17 49  1  0  0  0  0
 18 50  1  0  0  0  0
 18 51  1  0  0  0  0
 19 52  1  0  0  0  0
 23 53  1  0  0  0  0
 23 54  1  0  0  0  0
 24 55  1  0  0  0  0
 24 56  1  0  0  0  0
 25 57  1  0  0  0  0
 26 58  1  0  0  0  0
 26 59  1  0  0  0  0
 27 60  1  0  0  0  0
 27 61  1  0  0  0  0
 28 62  1  0  0  0  0
 28 63  1  0  0  0  0
 29 64  1  0  0  0  0
 29 65  1  0  0  0  0
M  END
>  <InChIKey>
InChI=1S/C26H36O3/c1-26-15-14-21-20-10-8-19(27)16-18(20)7-9-22(21)23(26)11-12-24(26)29-25(28)13-6-17-4-2-3-5-17/h8,10,16-17,21-24,27H,2-7,9,11-15H2,1H3

>  <CASRN>
313-06-4

> <Outcome>
0

>  <Index>
2967

>  <StandardizerResult>
Dearomatize (ID: Dearomatize)
Clear Stereo (ID: ClearStereo)
Wedge Clean (ID: WedgeClean)
Mesomerize (ID: Mesomerize)
Tautomerize (ID: Tautomerize)
Aromatize (ID: Aromatize)
Add Explicit Hydrogens (ID: AddExplicitH)
Neutralize (ID: Neutralize)
Clean 2D (ID: Clean2D)

> <knn Distance>
3.74165749549866

> <CpId>
2967

$$$$
3103
  Mrv1532301301811342D          

 40 41  0  0  0  0            999 V2000
    1.3990    0.0064    0.0000 C   0  0  0  0  0  0  0  0  0  0  0  0
    2.1134   -0.4061    0.0000 N   0  0  0  0  0  0  0  0  0  0  0  0
    2.8279    0.0064    0.0000 C   0  0  0  0  0  0  0  0  0  0  0  0
    2.1134   -1.2311    0.0000 C   0  0  0  0  0  0  0  0  0  0  0  0
    2.8279   -1.6436    0.0000 C   0  0  0  0  0  0  0  0  0  0  0  0
    2.8279   -2.4686    0.0000 C   0  0  0  0  0  0  0  0  0  0  0  0
    2.1134   -2.8811    0.0000 C   0  0  0  0  0  0  0  0  0  0  0  0
    1.3990   -2.4686    0.0000 C   0  0  0  0  0  0  0  0  0  0  0  0
    1.3990   -1.6436    0.0000 C   0  0  0  0  0  0  0  0  0  0  0  0
    2.1134   -3.7061    0.0000 C   0  0  0  0  0  0  0  0  0  0  0  0
    2.8279   -4.1186    0.0000 O   0  0  0  0  0  0  0  0  0  0  0  0
    1.3990   -4.1186    0.0000 C   0  0  0  0  0  0  0  0  0  0  0  0
    1.3990   -4.9436    0.0000 C   0  0  0  0  0  0  0  0  0  0  0  0
    0.6845   -5.3561    0.0000 C   0  0  0  0  0  0  0  0  0  0  0  0
   -0.0300   -4.9436    0.0000 C   0  0  0  0  0  0  0  0  0  0  0  0
   -0.0300   -4.1186    0.0000 C   0  0  0  0  0  0  0  0  0  0  0  0
    0.6845   -3.7061    0.0000 C   0  0  0  0  0  0  0  0  0  0  0  0
   -0.7445   -5.3561    0.0000 N   0  0  0  0  0  0  0  0  0  0  0  0
   -0.7445   -6.1811    0.0000 C   0  0  0  0  0  0  0  0  0  0  0  0
   -1.4589   -4.9436    0.0000 C   0  0  0  0  0  0  0  0  0  0  0  0
    1.8115    0.7208    0.0000 H   0  0  0  0  0  0  0  0  0  0  0  0
    0.6845    0.4189    0.0000 H   0  0  0  0  0  0  0  0  0  0  0  0
    0.9865   -0.7081    0.0000 H   0  0  0  0  0  0  0  0  0  0  0  0
    3.2404   -0.7081    0.0000 H   0  0  0  0  0  0  0  0  0  0  0  0
    3.5424    0.4189    0.0000 H   0  0  0  0  0  0  0  0  0  0  0  0
    2.4154    0.7208    0.0000 H   0  0  0  0  0  0  0  0  0  0  0  0
    3.5424   -1.2311    0.0000 H   0  0  0  0  0  0  0  0  0  0  0  0
    3.5424   -2.8811    0.0000 H   0  0  0  0  0  0  0  0  0  0  0  0
    0.6845   -2.8811    0.0000 H   0  0  0  0  0  0  0  0  0  0  0  0
    0.6845   -1.2311    0.0000 H   0  0  0  0  0  0  0  0  0  0  0  0
    2.1134   -5.3561    0.0000 H   0  0  0  0  0  0  0  0  0  0  0  0
    0.6845   -6.1811    0.0000 H   0  0  0  0  0  0  0  0  0  0  0  0
   -0.7445   -3.7061    0.0000 H   0  0  0  0  0  0  0  0  0  0  0  0
    1.3990   -3.2936    0.0000 H   0  0  0  0  0  0  0  0  0  0  0  0
   -1.5695   -6.1811    0.0000 H   0  0  0  0  0  0  0  0  0  0  0  0
   -0.7445   -7.0061    0.0000 H   0  0  0  0  0  0  0  0  0  0  0  0
    0.0805   -6.1811    0.0000 H   0  0  0  0  0  0  0  0  0  0  0  0
   -1.0464   -4.2292    0.0000 H   0  0  0  0  0  0  0  0  0  0  0  0
   -2.1734   -4.5311    0.0000 H   0  0  0  0  0  0  0  0  0  0  0  0
   -1.8714   -5.6581    0.0000 H   0  0  0  0  0  0  0  0  0  0  0  0
  1  2  1  0  0  0  0
  2  3  1  0  0  0  0
  2  4  1  0  0  0  0
  4  5  4  0  0  0  0
  5  6  4  0  0  0  0
  6  7  4  0  0  0  0
  7  8  4  0  0  0  0
  8  9  4  0  0  0  0
  4  9  4  0  0  0  0
  7 10  1  0  0  0  0
 10 11  2  0  0  0  0
 10 12  1  0  0  0  0
 12 13  4  0  0  0  0
 13 14  4  0  0  0  0
 14 15  4  0  0  0  0
 15 16  4  0  0  0  0
 16 17  4  0  0  0  0
 12 17  4  0  0  0  0
 15 18  1  0  0  0  0
 18 19  1  0  0  0  0
 18 20  1  0  0  0  0
  1 21  1  0  0  0  0
  1 22  1  0  0  0  0
  1 23  1  0  0  0  0
  3 24  1  0  0  0  0
  3 25  1  0  0  0  0
  3 26  1  0  0  0  0
  5 27  1  0  0  0  0
  6 28  1  0  0  0  0
  8 29  1  0  0  0  0
  9 30  1  0  0  0  0
 13 31  1  0  0  0  0
 14 32  1  0  0  0  0
 16 33  1  0  0  0  0
 17 34  1  0  0  0  0
 19 35  1  0  0  0  0
 19 36  1  0  0  0  0
 19 37  1  0  0  0  0
 20 38  1  0  0  0  0
 20 39  1  0  0  0  0
 20 40  1  0  0  0  0
M  END
>  <InChIKey>
InChI=1S/C17H20N2O/c1-18(2)15-9-5-13(6-10-15)17(20)14-7-11-16(12-8-14)19(3)4/h5-12H,1-4H3

>  <CASRN>
90-94-8

> <Outcome>
0

>  <Index>
3103

>  <StandardizerResult>
Dearomatize (ID: Dearomatize)
Clear Stereo (ID: ClearStereo)
Wedge Clean (ID: WedgeClean)
Mesomerize (ID: Mesomerize)
Tautomerize (ID: Tautomerize)
Aromatize (ID: Aromatize)
Add Explicit Hydrogens (ID: AddExplicitH)
Neutralize (ID: Neutralize)
Clean 2D (ID: Clean2D)

> <knn Distance>
3.74165749549866

> <CpId>
3103

$$$$
3253
  Mrv1532301301811342D          

 31 33  0  0  0  0            999 V2000
    2.1434   -2.9407    0.0000 O   0  0  0  0  0  0  0  0  0  0  0  0
    1.4289   -2.5282    0.0000 C   0  0  0  0  0  0  0  0  0  0  0  0
    0.7145   -2.9407    0.0000 O   0  0  0  0  0  0  0  0  0  0  0  0
    1.4289   -1.7032    0.0000 C   0  0  0  0  0  0  0  0  0  0  0  0
    0.7145   -1.2907    0.0000 C   0  0  0  0  0  0  0  0  0  0  0  0
    0.0000   -1.7032    0.0000 O   0  0  0  0  0  0  0  0  0  0  0  0
    0.7145   -0.4657    0.0000 C   0  0  0  0  0  0  0  0  0  0  0  0
    1.4289   -0.0532    0.0000 N   0  0  0  0  0  0  0  0  0  0  0  0
    2.1434   -0.4657    0.0000 C   0  0  0  0  0  0  0  0  0  0  0  0
    2.8579   -0.0532    0.0000 C   0  0  0  0  0  0  0  0  0  0  0  0
    3.5724   -0.4657    0.0000 C   0  0  0  0  0  0  0  0  0  0  0  0
    3.5724   -1.2907    0.0000 C   0  0  0  0  0  0  0  0  0  0  0  0
    2.8579   -1.7032    0.0000 C   0  0  0  0  0  0  0  0  0  0  0  0
    2.1434   -1.2907    0.0000 C   0  0  0  0  0  0  0  0  0  0  0  0
    0.0000   -0.0532    0.0000 C   0  0  0  0  0  0  0  0  0  0  0  0
   -0.7145   -0.4657    0.0000 C   0  0  0  0  0  0  0  0  0  0  0  0
   -1.4289   -0.0532    0.0000 C   0  0  0  0  0  0  0  0  0  0  0  0
   -1.4289    0.7718    0.0000 C   0  0  0  0  0  0  0  0  0  0  0  0
   -0.7145    1.1843    0.0000 C   0  0  0  0  0  0  0  0  0  0  0  0
    0.0000    0.7718    0.0000 C   0  0  0  0  0  0  0  0  0  0  0  0
    2.1434   -3.7657    0.0000 H   0  0  0  0  0  0  0  0  0  0  0  0
   -0.7145   -1.2907    0.0000 H   0  0  0  0  0  0  0  0  0  0  0  0
    2.8579    0.7718    0.0000 H   0  0  0  0  0  0  0  0  0  0  0  0
    4.2868   -0.0532    0.0000 H   0  0  0  0  0  0  0  0  0  0  0  0
    4.2868   -1.7032    0.0000 H   0  0  0  0  0  0  0  0  0  0  0  0
    2.8579   -2.5282    0.0000 H   0  0  0  0  0  0  0  0  0  0  0  0
    0.0000   -0.8782    0.0000 H   0  0  0  0  0  0  0  0  0  0  0  0
   -2.1434   -0.4657    0.0000 H   0  0  0  0  0  0  0  0  0  0  0  0
   -2.1434    1.1843    0.0000 H   0  0  0  0  0  0  0  0  0  0  0  0
   -0.7145    2.0093    0.0000 H   0  0  0  0  0  0  0  0  0  0  0  0
    0.7145    1.1843    0.0000 H   0  0  0  0  0  0  0  0  0  0  0  0
  1  2  1  0  0  0  0
  2  3  2  0  0  0  0
  2  4  1  0  0  0  0
  4  5  4  0  0  0  0
  5  6  1  0  0  0  0
  5  7  4  0  0  0  0
  7  8  4  0  0  0  0
  8  9  4  0  0  0  0
  9 10  4  0  0  0  0
 10 11  4  0  0  0  0
 11 12  4  0  0  0  0
 12 13  4  0  0  0  0
 13 14  4  0  0  0  0
  4 14  4  0  0  0  0
  9 14  4  0  0  0  0
  7 15  1  0  0  0  0
 15 16  4  0  0  0  0
 16 17  4  0  0  0  0
 17 18  4  0  0  0  0
 18 19  4  0  0  0  0
 19 20  4  0  0  0  0
 15 20  4  0  0  0  0
  1 21  1  0  0  0  0
  6 22  1  0  0  0  0
 10 23  1  0  0  0  0
 11 24  1  0  0  0  0
 12 25  1  0  0  0  0
 13 26  1  0  0  0  0
 16 27  1  0  0  0  0
 17 28  1  0  0  0  0
 18 29  1  0  0  0  0
 19 30  1  0  0  0  0
 20 31  1  0  0  0  0
M  END
>  <InChIKey>
InChI=1S/C16H11NO3/c18-15-13(16(19)20)11-8-4-5-9-12(11)17-14(15)10-6-2-1-3-7-10/h1-9,18H,(H,19,20)

>  <UN GHS>
Non-irritant

>  <CASRN>
485-89-2

> <Outcome>
0

>  <Index>
3253

>  <StandardizerResult>
Dearomatize (ID: Dearomatize)
Clear Stereo (ID: ClearStereo)
Wedge Clean (ID: WedgeClean)
Mesomerize (ID: Mesomerize)
Tautomerize (ID: Tautomerize)
Aromatize (ID: Aromatize)
Add Explicit Hydrogens (ID: AddExplicitH)
Neutralize (ID: Neutralize)
Clean 2D (ID: Clean2D)

> <knn Distance>
3.74165749549866

> <CpId>
3253

$$$$
3269
  Mrv1532301301811342D          

 57 57  0  0  0  0            999 V2000
   -0.6265   -4.7644    0.0000 C   0  0  0  0  0  0  0  0  0  0  0  0
    0.0880   -5.1769    0.0000 C   0  0  0  0  0  0  0  0  0  0  0  0
    0.8025   -4.7644    0.0000 C   0  0  0  0  0  0  0  0  0  0  0  0
    1.5169   -5.1769    0.0000 C   0  0  0  0  0  0  0  0  0  0  0  0
    2.2314   -4.7644    0.0000 C   0  0  0  0  0  0  0  0  0  0  0  0
    2.9459   -5.1769    0.0000 C   0  0  0  0  0  0  0  0  0  0  0  0
    2.9459   -6.0019    0.0000 O   0  0  0  0  0  0  0  0  0  0  0  0
    3.6604   -4.7644    0.0000 C   0  0  0  0  0  0  0  0  0  0  0  0
    4.3748   -5.1769    0.0000 C   0  0  0  0  0  0  0  0  0  0  0  0
    5.0893   -4.7644    0.0000 C   0  0  0  0  0  0  0  0  0  0  0  0
    5.1755   -3.9440    0.0000 C   0  0  0  0  0  0  0  0  0  0  0  0
    4.5624   -3.3919    0.0000 O   0  0  0  0  0  0  0  0  0  0  0  0
    5.9825   -3.7724    0.0000 C   0  0  0  0  0  0  0  0  0  0  0  0
    6.3950   -4.4869    0.0000 C   0  0  0  0  0  0  0  0  0  0  0  0
    7.2155   -4.5731    0.0000 O   0  0  0  0  0  0  0  0  0  0  0  0
    5.8430   -5.1000    0.0000 C   0  0  0  0  0  0  0  0  0  0  0  0
    6.0145   -5.9070    0.0000 C   0  0  0  0  0  0  0  0  0  0  0  0
    6.7991   -6.1619    0.0000 C   0  0  0  0  0  0  0  0  0  0  0  0
    6.9706   -6.9689    0.0000 C   0  0  0  0  0  0  0  0  0  0  0  0
    7.7553   -7.2238    0.0000 C   0  0  0  0  0  0  0  0  0  0  0  0
    7.9268   -8.0308    0.0000 C   0  0  0  0  0  0  0  0  0  0  0  0
    8.7114   -8.2857    0.0000 C   0  0  0  0  0  0  0  0  0  0  0  0
    8.8829   -9.0927    0.0000 C   0  0  0  0  0  0  0  0  0  0  0  0
    9.6676   -9.3476    0.0000 O   0  0  0  0  0  0  0  0  0  0  0  0
    8.2698   -9.6447    0.0000 O   0  0  0  0  0  0  0  0  0  0  0  0
   -0.2140   -4.0500    0.0000 H   0  0  0  0  0  0  0  0  0  0  0  0
   -1.3409   -4.3519    0.0000 H   0  0  0  0  0  0  0  0  0  0  0  0
   -1.0390   -5.4789    0.0000 H   0  0  0  0  0  0  0  0  0  0  0  0
   -0.2823   -5.9142    0.0000 H   0  0  0  0  0  0  0  0  0  0  0  0
    0.4583   -5.9142    0.0000 H   0  0  0  0  0  0  0  0  0  0  0  0
    1.1727   -4.0272    0.0000 H   0  0  0  0  0  0  0  0  0  0  0  0
    0.4322   -4.0272    0.0000 H   0  0  0  0  0  0  0  0  0  0  0  0
    1.1467   -5.9142    0.0000 H   0  0  0  0  0  0  0  0  0  0  0  0
    1.8872   -5.9142    0.0000 H   0  0  0  0  0  0  0  0  0  0  0  0
    2.6017   -4.0272    0.0000 H   0  0  0  0  0  0  0  0  0  0  0  0
    1.8612   -4.0272    0.0000 H   0  0  0  0  0  0  0  0  0  0  0  0
    2.2314   -5.5894    0.0000 H   0  0  0  0  0  0  0  0  0  0  0  0
    3.3584   -6.7164    0.0000 H   0  0  0  0  0  0  0  0  0  0  0  0
    3.6604   -3.9394    0.0000 H   0  0  0  0  0  0  0  0  0  0  0  0
    4.3748   -6.0019    0.0000 H   0  0  0  0  0  0  0  0  0  0  0  0
    5.1325   -5.5883    0.0000 H   0  0  0  0  0  0  0  0  0  0  0  0
    4.4053   -4.2396    0.0000 H   0  0  0  0  0  0  0  0  0  0  0  0
    4.2972   -2.6107    0.0000 H   0  0  0  0  0  0  0  0  0  0  0  0
    6.6326   -3.2645    0.0000 H   0  0  0  0  0  0  0  0  0  0  0  0
    5.9250   -2.9494    0.0000 H   0  0  0  0  0  0  0  0  0  0  0  0
    6.6399   -5.3135    0.0000 H   0  0  0  0  0  0  0  0  0  0  0  0
    5.4938   -6.5468    0.0000 H   0  0  0  0  0  0  0  0  0  0  0  0
    6.0329   -6.7318    0.0000 H   0  0  0  0  0  0  0  0  0  0  0  0
    7.6081   -6.0000    0.0000 H   0  0  0  0  0  0  0  0  0  0  0  0
    6.7419   -7.7615    0.0000 H   0  0  0  0  0  0  0  0  0  0  0  0
    8.5509   -7.0057    0.0000 H   0  0  0  0  0  0  0  0  0  0  0  0
    8.0554   -6.4553    0.0000 H   0  0  0  0  0  0  0  0  0  0  0  0
    7.1312   -8.2489    0.0000 H   0  0  0  0  0  0  0  0  0  0  0  0
    7.6267   -8.7993    0.0000 H   0  0  0  0  0  0  0  0  0  0  0  0
    9.5070   -8.0676    0.0000 H   0  0  0  0  0  0  0  0  0  0  0  0
    9.0115   -7.5173    0.0000 H   0  0  0  0  0  0  0  0  0  0  0  0
    9.8391  -10.1546    0.0000 H   0  0  0  0  0  0  0  0  0  0  0  0
  1  2  1  0  0  0  0
  2  3  1  0  0  0  0
  3  4  1  0  0  0  0
  4  5  1  0  0  0  0
  5  6  1  0  0  0  0
  6  7  1  0  0  0  0
  8  6  1  4  0  0  0
  8  9  2  0  0  0  0
  9 10  1  0  0  0  0
 10 11  1  0  0  0  0
 11 12  1  0  0  0  0
 11 13  1  0  0  0  0
 13 14  1  0  0  0  0
 14 15  2  0  0  0  0
 14 16  1  0  0  0  0
 10 16  1  0  0  0  0
 16 17  1  0  0  0  0
 18 17  1  4  0  0  0
 18 19  2  0  0  0  0
 19 20  1  0  0  0  0
 20 21  1  0  0  0  0
 21 22  1  0  0  0  0
 22 23  1  0  0  0  0
 23 24  1  0  0  0  0
 23 25  2  0  0  0  0
  1 26  1  0  0  0  0
  1 27  1  0  0  0  0
  1 28  1  0  0  0  0
  2 29  1  0  0  0  0
  2 30  1  0  0  0  0
  3 31  1  0  0  0  0
  3 32  1  0  0  0  0
  4 33  1  0  0  0  0
  4 34  1  0  0  0  0
  5 35  1  0  0  0  0
  5 36  1  0  0  0  0
  6 37  1  0  0  0  0
  7 38  1  0  0  0  0
  8 39  1  0  0  0  0
  9 40  1  0  0  0  0
 10 41  1  0  0  0  0
 11 42  1  0  0  0  0
 12 43  1  0  0  0  0
 13 44  1  0  0  0  0
 13 45  1  0  0  0  0
 16 46  1  0  0  0  0
 17 47  1  0  0  0  0
 17 48  1  0  0  0  0
 18 49  1  0  0  0  0
 19 50  1  0  0  0  0
 20 51  1  0  0  0  0
 20 52  1  0  0  0  0
 21 53  1  0  0  0  0
 21 54  1  0  0  0  0
 22 55  1  0  0  0  0
 22 56  1  0  0  0  0
 24 57  1  0  0  0  0
M  END
>  <InChIKey>
InChI=1S/C20H32O5/c1-2-3-6-9-15(21)12-13-17-16(18(22)14-19(17)23)10-7-4-5-8-11-20(24)25/h4,7,12-13,15-17,19,21,23H,2-3,5-6,8-11,14H2,1H3,(H,24,25)

>  <CASRN>
363-24-6

> <Outcome>
0

>  <Index>
3269

>  <StandardizerResult>
Clear Stereo (ID: ClearStereo)
Wedge Clean (ID: WedgeClean)
Mesomerize (ID: Mesomerize)
Tautomerize (ID: Tautomerize)
Add Explicit Hydrogens (ID: AddExplicitH)
Neutralize (ID: Neutralize)
Clean 2D (ID: Clean2D)

> <knn Distance>
3.74165749549866

> <CpId>
3269

$$$$
3318
  Mrv1532301301811342D          

 60 60  0  0  0  0            999 V2000
   -2.9968   -2.9116    0.0000 C   0  0  0  0  0  0  0  0  0  0  0  0
   -2.8253   -2.1046    0.0000 C   0  0  0  0  0  0  0  0  0  0  0  0
   -2.0406   -1.8496    0.0000 C   0  0  0  0  0  0  0  0  0  0  0  0
   -1.8691   -1.0427    0.0000 C   0  0  0  0  0  0  0  0  0  0  0  0
   -1.0845   -0.7877    0.0000 C   0  0  0  0  0  0  0  0  0  0  0  0
   -0.9130    0.0192    0.0000 C   0  0  0  0  0  0  0  0  0  0  0  0
   -0.1060   -0.1523    0.0000 C   0  0  0  0  0  0  0  0  0  0  0  0
   -1.7199    0.1908    0.0000 O   0  0  0  0  0  0  0  0  0  0  0  0
   -0.7414    0.8262    0.0000 C   0  0  0  0  0  0  0  0  0  0  0  0
    0.0432    1.0811    0.0000 C   0  0  0  0  0  0  0  0  0  0  0  0
    0.2147    1.8881    0.0000 C   0  0  0  0  0  0  0  0  0  0  0  0
   -0.3373    2.5012    0.0000 C   0  0  0  0  0  0  0  0  0  0  0  0
   -1.1578    2.4150    0.0000 O   0  0  0  0  0  0  0  0  0  0  0  0
    0.0752    3.2157    0.0000 C   0  0  0  0  0  0  0  0  0  0  0  0
    0.8822    3.0442    0.0000 C   0  0  0  0  0  0  0  0  0  0  0  0
    1.4953    3.5962    0.0000 O   0  0  0  0  0  0  0  0  0  0  0  0
    0.9684    2.2237    0.0000 C   0  0  0  0  0  0  0  0  0  0  0  0
    1.6829    1.8112    0.0000 C   0  0  0  0  0  0  0  0  0  0  0  0
    2.3973    2.2237    0.0000 C   0  0  0  0  0  0  0  0  0  0  0  0
    3.1118    1.8112    0.0000 C   0  0  0  0  0  0  0  0  0  0  0  0
    3.8263    2.2237    0.0000 C   0  0  0  0  0  0  0  0  0  0  0  0
    4.5407    1.8112    0.0000 C   0  0  0  0  0  0  0  0  0  0  0  0
    5.2552    2.2237    0.0000 C   0  0  0  0  0  0  0  0  0  0  0  0
    5.9697    1.8112    0.0000 C   0  0  0  0  0  0  0  0  0  0  0  0
    6.6842    2.2237    0.0000 O   0  0  0  0  0  0  0  0  0  0  0  0
    5.9697    0.9862    0.0000 O   0  0  0  0  0  0  0  0  0  0  0  0
   -3.8038   -2.7400    0.0000 H   0  0  0  0  0  0  0  0  0  0  0  0
   -3.1683   -3.7185    0.0000 H   0  0  0  0  0  0  0  0  0  0  0  0
   -2.1898   -3.0831    0.0000 H   0  0  0  0  0  0  0  0  0  0  0  0
   -3.1254   -1.3361    0.0000 H   0  0  0  0  0  0  0  0  0  0  0  0
   -3.6209   -1.8864    0.0000 H   0  0  0  0  0  0  0  0  0  0  0  0
   -1.7405   -2.6181    0.0000 H   0  0  0  0  0  0  0  0  0  0  0  0
   -1.2450   -2.0678    0.0000 H   0  0  0  0  0  0  0  0  0  0  0  0
   -2.1692   -0.2742    0.0000 H   0  0  0  0  0  0  0  0  0  0  0  0
   -2.6647   -0.8245    0.0000 H   0  0  0  0  0  0  0  0  0  0  0  0
   -0.7844   -1.5562    0.0000 H   0  0  0  0  0  0  0  0  0  0  0  0
   -0.2889   -1.0059    0.0000 H   0  0  0  0  0  0  0  0  0  0  0  0
    0.5734   -0.6204    0.0000 H   0  0  0  0  0  0  0  0  0  0  0  0
    0.5863    0.2965    0.0000 H   0  0  0  0  0  0  0  0  0  0  0  0
   -0.2560    0.6590    0.0000 H   0  0  0  0  0  0  0  0  0  0  0  0
   -1.9610    0.9798    0.0000 H   0  0  0  0  0  0  0  0  0  0  0  0
   -1.3545    1.3782    0.0000 H   0  0  0  0  0  0  0  0  0  0  0  0
    0.8521    1.2434    0.0000 H   0  0  0  0  0  0  0  0  0  0  0  0
   -0.5822    1.6746    0.0000 H   0  0  0  0  0  0  0  0  0  0  0  0
   -0.7866    3.1931    0.0000 H   0  0  0  0  0  0  0  0  0  0  0  0
   -1.9780    2.3261    0.0000 H   0  0  0  0  0  0  0  0  0  0  0  0
    0.4465    3.9524    0.0000 H   0  0  0  0  0  0  0  0  0  0  0  0
   -0.1557    4.0077    0.0000 H   0  0  0  0  0  0  0  0  0  0  0  0
    0.9252    1.3998    0.0000 H   0  0  0  0  0  0  0  0  0  0  0  0
    1.8131    0.9965    0.0000 H   0  0  0  0  0  0  0  0  0  0  0  0
    2.3094    1.2745    0.0000 H   0  0  0  0  0  0  0  0  0  0  0  0
    2.3973    3.0487    0.0000 H   0  0  0  0  0  0  0  0  0  0  0  0
    3.5476    1.1107    0.0000 H   0  0  0  0  0  0  0  0  0  0  0  0
    4.1965    2.9609    0.0000 H   0  0  0  0  0  0  0  0  0  0  0  0
    3.4560    2.9609    0.0000 H   0  0  0  0  0  0  0  0  0  0  0  0
    4.1705    1.0739    0.0000 H   0  0  0  0  0  0  0  0  0  0  0  0
    4.9110    1.0739    0.0000 H   0  0  0  0  0  0  0  0  0  0  0  0
    5.6255    2.9609    0.0000 H   0  0  0  0  0  0  0  0  0  0  0  0
    4.8850    2.9609    0.0000 H   0  0  0  0  0  0  0  0  0  0  0  0
    7.3986    1.8112    0.0000 H   0  0  0  0  0  0  0  0  0  0  0  0
  1  2  1  0  0  0  0
  2  3  1  0  0  0  0
  3  4  1  0  0  0  0
  4  5  1  0  0  0  0
  5  6  1  0  0  0  0
  6  7  1  0  0  0  0
  6  8  1  0  0  0  0
  9  6  1  4  0  0  0
  9 10  2  0  0  0  0
 10 11  1  0  0  0  0
 11 12  1  0  0  0  0
 12 13  1  0  0  0  0
 12 14  1  0  0  0  0
 14 15  1  0  0  0  0
 15 16  2  0  0  0  0
 15 17  1  0  0  0  0
 11 17  1  0  0  0  0
 17 18  1  0  0  0  0
 19 18  1  4  0  0  0
 19 20  2  0  0  0  0
 20 21  1  0  0  0  0
 21 22  1  0  0  0  0
 22 23  1  0  0  0  0
 23 24  1  0  0  0  0
 24 25  1  0  0  0  0
 24 26  2  0  0  0  0
  1 27  1  0  0  0  0
  1 28  1  0  0  0  0
  1 29  1  0  0  0  0
  2 30  1  0  0  0  0
  2 31  1  0  0  0  0
  3 32  1  0  0  0  0
  3 33  1  0  0  0  0
  4 34  1  0  0  0  0
  4 35  1  0  0  0  0
  5 36  1  0  0  0  0
  5 37  1  0  0  0  0
  7 38  1  0  0  0  0
  7 39  1  0  0  0  0
  7 40  1  0  0  0  0
  8 41  1  0  0  0  0
  9 42  1  0  0  0  0
 10 43  1  0  0  0  0
 11 44  1  0  0  0  0
 12 45  1  0  0  0  0
 13 46  1  0  0  0  0
 14 47  1  0  0  0  0
 14 48  1  0  0  0  0
 17 49  1  0  0  0  0
 18 50  1  0  0  0  0
 18 51  1  0  0  0  0
 19 52  1  0  0  0  0
 20 53  1  0  0  0  0
 21 54  1  0  0  0  0
 21 55  1  0  0  0  0
 22 56  1  0  0  0  0
 22 57  1  0  0  0  0
 23 58  1  0  0  0  0
 23 59  1  0  0  0  0
 25 60  1  0  0  0  0
M  END
>  <InChIKey>
InChI=1S/C21H34O5/c1-3-4-9-13-21(2,26)14-12-17-16(18(22)15-19(17)23)10-7-5-6-8-11-20(24)25/h5,7,12,14,16-17,19,23,26H,3-4,6,8-11,13,15H2,1-2H3,(H,24,25)

>  <CASRN>
55028-70-1

> <Outcome>
0

>  <Index>
3318

>  <StandardizerResult>
Clear Stereo (ID: ClearStereo)
Wedge Clean (ID: WedgeClean)
Mesomerize (ID: Mesomerize)
Tautomerize (ID: Tautomerize)
Add Explicit Hydrogens (ID: AddExplicitH)
Neutralize (ID: Neutralize)
Clean 2D (ID: Clean2D)

> <knn Distance>
3.74165749549866

> <CpId>
3318

$$$$
3347
  Mrv1532301301811342D          

 20 19  0  0  0  0            999 V2000
   -0.1914    0.7145    0.0000 C   0  0  0  0  0  0  0  0  0  0  0  0
    0.5230    1.1270    0.0000 N   0  0  0  0  0  0  0  0  0  0  0  0
    0.5230    1.9520    0.0000 C   0  0  0  0  0  0  0  0  0  0  0  0
    1.2375    0.7145    0.0000 C   0  0  0  0  0  0  0  0  0  0  0  0
    1.2375   -0.1105    0.0000 N   0  0  0  0  0  0  0  0  0  0  0  0
    1.9520    1.1270    0.0000 N   0  0  0  0  0  0  0  0  0  0  0  0
    2.6664    0.7145    0.0000 C   0  0  0  0  0  0  0  0  0  0  0  0
    3.3809    1.1270    0.0000 N   0  0  0  0  0  0  0  0  0  0  0  0
    2.6664   -0.1105    0.0000 N   0  0  0  0  0  0  0  0  0  0  0  0
   -0.6039    1.4290    0.0000 H   0  0  0  0  0  0  0  0  0  0  0  0
   -0.9059    0.3020    0.0000 H   0  0  0  0  0  0  0  0  0  0  0  0
    0.2211    0.0000    0.0000 H   0  0  0  0  0  0  0  0  0  0  0  0
    1.3480    1.9520    0.0000 H   0  0  0  0  0  0  0  0  0  0  0  0
    0.5230    2.7770    0.0000 H   0  0  0  0  0  0  0  0  0  0  0  0
   -0.3020    1.9520    0.0000 H   0  0  0  0  0  0  0  0  0  0  0  0
    0.5230   -0.5230    0.0000 H   0  0  0  0  0  0  0  0  0  0  0  0
    1.9520    1.9520    0.0000 H   0  0  0  0  0  0  0  0  0  0  0  0
    4.0954    0.7145    0.0000 H   0  0  0  0  0  0  0  0  0  0  0  0
    3.3809    1.9520    0.0000 H   0  0  0  0  0  0  0  0  0  0  0  0
    1.9520   -0.5230    0.0000 H   0  0  0  0  0  0  0  0  0  0  0  0
  1  2  1  0  0  0  0
  2  3  1  0  0  0  0
  2  4  1  0  0  0  0
  4  5  2  0  0  0  0
  4  6  1  0  0  0  0
  6  7  1  0  0  0  0
  7  8  1  0  0  0  0
  7  9  2  0  0  0  0
  1 10  1  0  0  0  0
  1 11  1  0  0  0  0
  1 12  1  0  0  0  0
  3 13  1  0  0  0  0
  3 14  1  0  0  0  0
  3 15  1  0  0  0  0
  5 16  1  0  0  0  0
  6 17  1  0  0  0  0
  8 18  1  0  0  0  0
  8 19  1  0  0  0  0
  9 20  1  0  0  0  0
M  END
>  <InChIKey>
InChI=1S/C4H11N5/c1-9(2)4(7)8-3(5)6/h1-2H3,(H5,5,6,7,8)

>  <UN GHS>
Non-irritant

>  <CASRN>
657-24-9

> <Outcome>
0

>  <Index>
3347

>  <StandardizerResult>
Clear Stereo (ID: ClearStereo)
Wedge Clean (ID: WedgeClean)
Mesomerize (ID: Mesomerize)
Tautomerize (ID: Tautomerize)
Add Explicit Hydrogens (ID: AddExplicitH)
Neutralize (ID: Neutralize)
Clean 2D (ID: Clean2D)

> <knn Distance>
3.74165749549866

> <CpId>
3347

$$$$
3355
  Mrv1532301301811342D          

 47 47  0  0  0  0            999 V2000
    2.8379   -6.6007    0.0000 C   0  0  0  0  0  0  0  0  0  0  0  0
    3.5524   -6.1882    0.0000 C   0  0  0  0  0  0  0  0  0  0  0  0
    4.2669   -6.6007    0.0000 C   0  0  0  0  0  0  0  0  0  0  0  0
    4.9813   -6.1882    0.0000 C   0  0  0  0  0  0  0  0  0  0  0  0
    5.6958   -6.6007    0.0000 C   0  0  0  0  0  0  0  0  0  0  0  0
    5.6958   -7.4257    0.0000 C   0  0  0  0  0  0  0  0  0  0  0  0
    6.4103   -7.8382    0.0000 C   0  0  0  0  0  0  0  0  0  0  0  0
    6.4103   -6.1882    0.0000 C   0  0  0  0  0  0  0  0  0  0  0  0
    7.1247   -6.6007    0.0000 O   0  0  0  0  0  0  0  0  0  0  0  0
    7.8392   -6.1882    0.0000 C   0  0  0  0  0  0  0  0  0  0  0  0
    7.8392   -5.3632    0.0000 O   0  0  0  0  0  0  0  0  0  0  0  0
    8.5537   -6.6007    0.0000 C   0  0  0  0  0  0  0  0  0  0  0  0
    9.2682   -6.1882    0.0000 C   0  0  0  0  0  0  0  0  0  0  0  0
    9.9826   -6.6007    0.0000 C   0  0  0  0  0  0  0  0  0  0  0  0
   10.6971   -6.1882    0.0000 C   0  0  0  0  0  0  0  0  0  0  0  0
   11.4116   -6.6007    0.0000 C   0  0  0  0  0  0  0  0  0  0  0  0
   11.4116   -7.4257    0.0000 C   0  0  0  0  0  0  0  0  0  0  0  0
   12.1260   -7.8382    0.0000 O   0  0  0  0  0  0  0  0  0  0  0  0
   12.8405   -7.4257    0.0000 C   0  0  0  0  0  0  0  0  0  0  0  0
   10.6971   -7.8382    0.0000 C   0  0  0  0  0  0  0  0  0  0  0  0
    9.9826   -7.4257    0.0000 C   0  0  0  0  0  0  0  0  0  0  0  0
    2.4254   -5.8862    0.0000 H   0  0  0  0  0  0  0  0  0  0  0  0
    2.1234   -7.0132    0.0000 H   0  0  0  0  0  0  0  0  0  0  0  0
    3.2504   -7.3152    0.0000 H   0  0  0  0  0  0  0  0  0  0  0  0
    3.9226   -5.4510    0.0000 H   0  0  0  0  0  0  0  0  0  0  0  0
    3.1821   -5.4510    0.0000 H   0  0  0  0  0  0  0  0  0  0  0  0
    3.8966   -7.3380    0.0000 H   0  0  0  0  0  0  0  0  0  0  0  0
    4.6371   -7.3380    0.0000 H   0  0  0  0  0  0  0  0  0  0  0  0
    5.3516   -5.4510    0.0000 H   0  0  0  0  0  0  0  0  0  0  0  0
    4.6111   -5.4510    0.0000 H   0  0  0  0  0  0  0  0  0  0  0  0
    4.9813   -7.0132    0.0000 H   0  0  0  0  0  0  0  0  0  0  0  0
    5.0638   -7.9560    0.0000 H   0  0  0  0  0  0  0  0  0  0  0  0
    5.5525   -8.2382    0.0000 H   0  0  0  0  0  0  0  0  0  0  0  0
    6.5712   -8.6474    0.0000 H   0  0  0  0  0  0  0  0  0  0  0  0
    7.2345   -7.8742    0.0000 H   0  0  0  0  0  0  0  0  0  0  0  0
    6.6411   -7.0462    0.0000 H   0  0  0  0  0  0  0  0  0  0  0  0
    6.7805   -5.4510    0.0000 H   0  0  0  0  0  0  0  0  0  0  0  0
    6.0400   -5.4510    0.0000 H   0  0  0  0  0  0  0  0  0  0  0  0
    8.5537   -7.4257    0.0000 H   0  0  0  0  0  0  0  0  0  0  0  0
    9.2682   -5.3632    0.0000 H   0  0  0  0  0  0  0  0  0  0  0  0
   10.6971   -5.3632    0.0000 H   0  0  0  0  0  0  0  0  0  0  0  0
   12.1260   -6.1882    0.0000 H   0  0  0  0  0  0  0  0  0  0  0  0
   13.2530   -8.1402    0.0000 H   0  0  0  0  0  0  0  0  0  0  0  0
   13.5550   -7.0132    0.0000 H   0  0  0  0  0  0  0  0  0  0  0  0
   12.4280   -6.7112    0.0000 H   0  0  0  0  0  0  0  0  0  0  0  0
   10.6971   -8.6632    0.0000 H   0  0  0  0  0  0  0  0  0  0  0  0
    9.2682   -7.8382    0.0000 H   0  0  0  0  0  0  0  0  0  0  0  0
  1  2  1  0  0  0  0
  2  3  1  0  0  0  0
  3  4  1  0  0  0  0
  4  5  1  0  0  0  0
  5  6  1  0  0  0  0
  6  7  1  0  0  0  0
  5  8  1  0  0  0  0
  8  9  1  0  0  0  0
  9 10  1  0  0  0  0
 10 11  2  0  0  0  0
 12 10  1  4  0  0  0
 12 13  2  0  0  0  0
 13 14  1  0  0  0  0
 14 15  4  0  0  0  0
 15 16  4  0  0  0  0
 16 17  4  0  0  0  0
 17 18  1  0  0  0  0
 18 19  1  0  0  0  0
 17 20  4  0  0  0  0
 20 21  4  0  0  0  0
 14 21  4  0  0  0  0
  1 22  1  0  0  0  0
  1 23  1  0  0  0  0
  1 24  1  0  0  0  0
  2 25  1  0  0  0  0
  2 26  1  0  0  0  0
  3 27  1  0  0  0  0
  3 28  1  0  0  0  0
  4 29  1  0  0  0  0
  4 30  1  0  0  0  0
  5 31  1  0  0  0  0
  6 32  1  0  0  0  0
  6 33  1  0  0  0  0
  7 34  1  0  0  0  0
  7 35  1  0  0  0  0
  7 36  1  0  0  0  0
  8 37  1  0  0  0  0
  8 38  1  0  0  0  0
 12 39  1  0  0  0  0
 13 40  1  0  0  0  0
 15 41  1  0  0  0  0
 16 42  1  0  0  0  0
 19 43  1  0  0  0  0
 19 44  1  0  0  0  0
 19 45  1  0  0  0  0
 20 46  1  0  0  0  0
 21 47  1  0  0  0  0
M  END
>  <InChIKey>
InChI=1S/C18H26O3/c1-4-6-7-15(5-2)14-21-18(19)13-10-16-8-11-17(20-3)12-9-16/h8-13,15H,4-7,14H2,1-3H3

>  <CASRN>
5466-77-3

> <Outcome>
0

>  <Index>
3355

>  <StandardizerResult>
Dearomatize (ID: Dearomatize)
Clear Stereo (ID: ClearStereo)
Wedge Clean (ID: WedgeClean)
Mesomerize (ID: Mesomerize)
Tautomerize (ID: Tautomerize)
Aromatize (ID: Aromatize)
Add Explicit Hydrogens (ID: AddExplicitH)
Neutralize (ID: Neutralize)
Clean 2D (ID: Clean2D)

> <knn Distance>
3.74165749549866

> <CpId>
3355

$$$$
3414
  Mrv1532301301811342D          

 47 49  0  0  0  0            999 V2000
   -0.6291   -0.6726    0.0000 C   0  0  0  0  0  0  0  0  0  0  0  0
   -0.6291   -1.4976    0.0000 C   0  0  0  0  0  0  0  0  0  0  0  0
    0.0854   -1.9101    0.0000 C   0  0  0  0  0  0  0  0  0  0  0  0
    0.0854   -2.7351    0.0000 C   0  0  0  0  0  0  0  0  0  0  0  0
   -0.6291   -3.1476    0.0000 C   0  0  0  0  0  0  0  0  0  0  0  0
   -1.3435   -2.7351    0.0000 C   0  0  0  0  0  0  0  0  0  0  0  0
   -1.3435   -1.9101    0.0000 C   0  0  0  0  0  0  0  0  0  0  0  0
   -2.0580   -1.4976    0.0000 O   0  0  0  0  0  0  0  0  0  0  0  0
   -2.7725   -1.9101    0.0000 P   0  0  0  0  0  0  0  0  0  0  0  0
   -3.1850   -1.1957    0.0000 O   0  0  0  0  0  0  0  0  0  0  0  0
   -3.4869   -2.3226    0.0000 O   0  0  0  0  0  0  0  0  0  0  0  0
   -4.2014   -1.9101    0.0000 C   0  0  0  0  0  0  0  0  0  0  0  0
   -4.9159   -2.3226    0.0000 C   0  0  0  0  0  0  0  0  0  0  0  0
   -5.6303   -1.9101    0.0000 C   0  0  0  0  0  0  0  0  0  0  0  0
   -5.6303   -1.0851    0.0000 C   0  0  0  0  0  0  0  0  0  0  0  0
   -4.9159   -0.6726    0.0000 C   0  0  0  0  0  0  0  0  0  0  0  0
   -4.2014   -1.0851    0.0000 C   0  0  0  0  0  0  0  0  0  0  0  0
   -3.4869   -0.6726    0.0000 C   0  0  0  0  0  0  0  0  0  0  0  0
   -2.3600   -2.6246    0.0000 O   0  0  0  0  0  0  0  0  0  0  0  0
   -2.7725   -3.3391    0.0000 C   0  0  0  0  0  0  0  0  0  0  0  0
   -2.3600   -4.0536    0.0000 C   0  0  0  0  0  0  0  0  0  0  0  0
   -2.7725   -4.7680    0.0000 C   0  0  0  0  0  0  0  0  0  0  0  0
   -3.5975   -4.7680    0.0000 C   0  0  0  0  0  0  0  0  0  0  0  0
   -4.0100   -4.0536    0.0000 C   0  0  0  0  0  0  0  0  0  0  0  0
   -3.5975   -3.3391    0.0000 C   0  0  0  0  0  0  0  0  0  0  0  0
   -4.0100   -2.6246    0.0000 C   0  0  0  0  0  0  0  0  0  0  0  0
    0.1959   -0.6726    0.0000 H   0  0  0  0  0  0  0  0  0  0  0  0
   -0.6291    0.1524    0.0000 H   0  0  0  0  0  0  0  0  0  0  0  0
   -1.4541   -0.6726    0.0000 H   0  0  0  0  0  0  0  0  0  0  0  0
    0.7999   -1.4976    0.0000 H   0  0  0  0  0  0  0  0  0  0  0  0
    0.7999   -3.1476    0.0000 H   0  0  0  0  0  0  0  0  0  0  0  0
   -0.6291   -3.9726    0.0000 H   0  0  0  0  0  0  0  0  0  0  0  0
   -2.0580   -3.1476    0.0000 H   0  0  0  0  0  0  0  0  0  0  0  0
   -5.2543   -3.0750    0.0000 H   0  0  0  0  0  0  0  0  0  0  0  0
   -6.3448   -2.3226    0.0000 H   0  0  0  0  0  0  0  0  0  0  0  0
   -6.3448   -0.6726    0.0000 H   0  0  0  0  0  0  0  0  0  0  0  0
   -4.9159    0.1524    0.0000 H   0  0  0  0  0  0  0  0  0  0  0  0
   -2.6690   -0.5650    0.0000 H   0  0  0  0  0  0  0  0  0  0  0  0
   -3.2734    0.1243    0.0000 H   0  0  0  0  0  0  0  0  0  0  0  0
   -4.1415   -0.1704    0.0000 H   0  0  0  0  0  0  0  0  0  0  0  0
   -1.6076   -4.3920    0.0000 H   0  0  0  0  0  0  0  0  0  0  0  0
   -2.3600   -5.4825    0.0000 H   0  0  0  0  0  0  0  0  0  0  0  0
   -4.0100   -5.4825    0.0000 H   0  0  0  0  0  0  0  0  0  0  0  0
   -4.8350   -4.0536    0.0000 H   0  0  0  0  0  0  0  0  0  0  0  0
   -4.7403   -3.0082    0.0000 H   0  0  0  0  0  0  0  0  0  0  0  0
   -4.2394   -3.4171    0.0000 H   0  0  0  0  0  0  0  0  0  0  0  0
   -3.2131   -2.8381    0.0000 H   0  0  0  0  0  0  0  0  0  0  0  0
  1  2  1  0  0  0  0
  2  3  4  0  0  0  0
  3  4  4  0  0  0  0
  4  5  4  0  0  0  0
  5  6  4  0  0  0  0
  6  7  4  0  0  0  0
  2  7  4  0  0  0  0
  7  8  1  0  0  0  0
  8  9  1  0  0  0  0
  9 10  2  0  0  0  0
  9 11  1  0  0  0  0
 11 12  1  0  0  0  0
 12 13  4  0  0  0  0
 13 14  4  0  0  0  0
 14 15  4  0  0  0  0
 15 16  4  0  0  0  0
 16 17  4  0  0  0  0
 12 17  4  0  0  0  0
 17 18  1  0  0  0  0
  9 19  1  0  0  0  0
 19 20  1  0  0  0  0
 20 21  4  0  0  0  0
 21 22  4  0  0  0  0
 22 23  4  0  0  0  0
 23 24  4  0  0  0  0
 24 25  4  0  0  0  0
 20 25  4  0  0  0  0
 25 26  1  0  0  0  0
  1 27  1  0  0  0  0
  1 28  1  0  0  0  0
  1 29  1  0  0  0  0
  3 30  1  0  0  0  0
  4 31  1  0  0  0  0
  5 32  1  0  0  0  0
  6 33  1  0  0  0  0
 13 34  1  0  0  0  0
 14 35  1  0  0  0  0
 15 36  1  0  0  0  0
 16 37  1  0  0  0  0
 18 38  1  0  0  0  0
 18 39  1  0  0  0  0
 18 40  1  0  0  0  0
 21 41  1  0  0  0  0
 22 42  1  0  0  0  0
 23 43  1  0  0  0  0
 24 44  1  0  0  0  0
 26 45  1  0  0  0  0
 26 46  1  0  0  0  0
 26 47  1  0  0  0  0
M  END
>  <InChIKey>
InChI=1S/C21H21O4P/c1-16-10-4-7-13-19(16)23-26(22,24-20-14-8-5-11-17(20)2)25-21-15-9-6-12-18(21)3/h4-15H,1-3H3

>  <CASRN>
78-30-8

> <Outcome>
0

>  <Index>
3414

>  <StandardizerResult>
Dearomatize (ID: Dearomatize)
Clear Stereo (ID: ClearStereo)
Wedge Clean (ID: WedgeClean)
Mesomerize (ID: Mesomerize)
Tautomerize (ID: Tautomerize)
Aromatize (ID: Aromatize)
Add Explicit Hydrogens (ID: AddExplicitH)
Neutralize (ID: Neutralize)
Clean 2D (ID: Clean2D)

> <knn Distance>
3.74165749549866

> <CpId>
3414

$$$$
3418
  Mrv1532301301811342D          

 30 32  0  0  0  0            999 V2000
    2.1434   -2.8875    0.0000 O   0  0  0  0  0  0  0  0  0  0  0  0
    1.4289   -2.4750    0.0000 C   0  0  0  0  0  0  0  0  0  0  0  0
    0.7145   -2.8875    0.0000 O   0  0  0  0  0  0  0  0  0  0  0  0
    1.4289   -1.6500    0.0000 C   0  0  0  0  0  0  0  0  0  0  0  0
    0.7145   -1.2375    0.0000 C   0  0  0  0  0  0  0  0  0  0  0  0
    0.7145   -0.4125    0.0000 C   0  0  0  0  0  0  0  0  0  0  0  0
    1.4289    0.0000    0.0000 N   0  0  0  0  0  0  0  0  0  0  0  0
    2.1434   -0.4125    0.0000 C   0  0  0  0  0  0  0  0  0  0  0  0
    2.8579    0.0000    0.0000 C   0  0  0  0  0  0  0  0  0  0  0  0
    3.5724   -0.4125    0.0000 C   0  0  0  0  0  0  0  0  0  0  0  0
    3.5724   -1.2375    0.0000 C   0  0  0  0  0  0  0  0  0  0  0  0
    2.8579   -1.6500    0.0000 C   0  0  0  0  0  0  0  0  0  0  0  0
    2.1434   -1.2375    0.0000 C   0  0  0  0  0  0  0  0  0  0  0  0
    0.0000    0.0000    0.0000 C   0  0  0  0  0  0  0  0  0  0  0  0
   -0.7145   -0.4125    0.0000 C   0  0  0  0  0  0  0  0  0  0  0  0
   -1.4289    0.0000    0.0000 C   0  0  0  0  0  0  0  0  0  0  0  0
   -1.4289    0.8250    0.0000 C   0  0  0  0  0  0  0  0  0  0  0  0
   -0.7145    1.2375    0.0000 C   0  0  0  0  0  0  0  0  0  0  0  0
    0.0000    0.8250    0.0000 C   0  0  0  0  0  0  0  0  0  0  0  0
    2.1434   -3.7125    0.0000 H   0  0  0  0  0  0  0  0  0  0  0  0
    0.0000   -1.6500    0.0000 H   0  0  0  0  0  0  0  0  0  0  0  0
    2.8579    0.8250    0.0000 H   0  0  0  0  0  0  0  0  0  0  0  0
    4.2868    0.0000    0.0000 H   0  0  0  0  0  0  0  0  0  0  0  0
    4.2868   -1.6500    0.0000 H   0  0  0  0  0  0  0  0  0  0  0  0
    2.8579   -2.4750    0.0000 H   0  0  0  0  0  0  0  0  0  0  0  0
   -0.7145   -1.2375    0.0000 H   0  0  0  0  0  0  0  0  0  0  0  0
   -2.1434   -0.4125    0.0000 H   0  0  0  0  0  0  0  0  0  0  0  0
   -2.1434    1.2375    0.0000 H   0  0  0  0  0  0  0  0  0  0  0  0
   -0.7145    2.0625    0.0000 H   0  0  0  0  0  0  0  0  0  0  0  0
    0.7145    1.2375    0.0000 H   0  0  0  0  0  0  0  0  0  0  0  0
  1  2  1  0  0  0  0
  2  3  2  0  0  0  0
  2  4  1  0  0  0  0
  4  5  4  0  0  0  0
  5  6  4  0  0  0  0
  6  7  4  0  0  0  0
  7  8  4  0  0  0  0
  8  9  4  0  0  0  0
  9 10  4  0  0  0  0
 10 11  4  0  0  0  0
 11 12  4  0  0  0  0
 12 13  4  0  0  0  0
  4 13  4  0  0  0  0
  8 13  4  0  0  0  0
  6 14  1  0  0  0  0
 14 15  4  0  0  0  0
 15 16  4  0  0  0  0
 16 17  4  0  0  0  0
 17 18  4  0  0  0  0
 18 19  4  0  0  0  0
 14 19  4  0  0  0  0
  1 20  1  0  0  0  0
  5 21  1  0  0  0  0
  9 22  1  0  0  0  0
 10 23  1  0  0  0  0
 11 24  1  0  0  0  0
 12 25  1  0  0  0  0
 15 26  1  0  0  0  0
 16 27  1  0  0  0  0
 17 28  1  0  0  0  0
 18 29  1  0  0  0  0
 19 30  1  0  0  0  0
M  END
>  <InChIKey>
InChI=1S/C16H11NO2/c18-16(19)13-10-15(11-6-2-1-3-7-11)17-14-9-5-4-8-12(13)14/h1-10H,(H,18,19)

>  <CASRN>
132-60-5

> <Outcome>
0

>  <Index>
3418

>  <StandardizerResult>
Dearomatize (ID: Dearomatize)
Clear Stereo (ID: ClearStereo)
Wedge Clean (ID: WedgeClean)
Mesomerize (ID: Mesomerize)
Tautomerize (ID: Tautomerize)
Aromatize (ID: Aromatize)
Add Explicit Hydrogens (ID: AddExplicitH)
Neutralize (ID: Neutralize)
Clean 2D (ID: Clean2D)

> <knn Distance>
3.74165749549866

> <CpId>
3418

$$$$
3431
  Mrv1532301301811342D          

 39 40  0  0  0  0            999 V2000
    1.4362   -1.6544    0.0000 C   0  0  0  0  0  0  0  0  0  0  0  0
    1.4362   -2.4794    0.0000 C   0  0  0  0  0  0  0  0  0  0  0  0
    0.7218   -2.8919    0.0000 C   0  0  0  0  0  0  0  0  0  0  0  0
    0.0073   -2.4794    0.0000 C   0  0  0  0  0  0  0  0  0  0  0  0
   -0.7072   -2.8919    0.0000 C   0  0  0  0  0  0  0  0  0  0  0  0
   -1.4217   -2.4794    0.0000 C   0  0  0  0  0  0  0  0  0  0  0  0
   -1.4217   -1.6544    0.0000 C   0  0  0  0  0  0  0  0  0  0  0  0
   -0.7072   -1.2419    0.0000 C   0  0  0  0  0  0  0  0  0  0  0  0
    0.0073   -1.6544    0.0000 C   0  0  0  0  0  0  0  0  0  0  0  0
    2.1507   -2.8919    0.0000 N   0  0  0  0  0  0  0  0  0  0  0  0
    2.1507   -3.7169    0.0000 C   0  0  0  0  0  0  0  0  0  0  0  0
    2.8652   -2.4794    0.0000 C   0  0  0  0  0  0  0  0  0  0  0  0
    3.5796   -2.8919    0.0000 C   0  0  0  0  0  0  0  0  0  0  0  0
    4.2941   -2.4794    0.0000 C   0  0  0  0  0  0  0  0  0  0  0  0
    5.0086   -2.8919    0.0000 C   0  0  0  0  0  0  0  0  0  0  0  0
    5.0086   -3.7169    0.0000 C   0  0  0  0  0  0  0  0  0  0  0  0
    4.2941   -4.1294    0.0000 C   0  0  0  0  0  0  0  0  0  0  0  0
    3.5796   -3.7169    0.0000 C   0  0  0  0  0  0  0  0  0  0  0  0
    2.2612   -1.6544    0.0000 H   0  0  0  0  0  0  0  0  0  0  0  0
    1.4362   -0.8294    0.0000 H   0  0  0  0  0  0  0  0  0  0  0  0
    0.6112   -1.6544    0.0000 H   0  0  0  0  0  0  0  0  0  0  0  0
    0.7218   -2.0669    0.0000 H   0  0  0  0  0  0  0  0  0  0  0  0
    0.3515   -3.6291    0.0000 H   0  0  0  0  0  0  0  0  0  0  0  0
    1.0920   -3.6291    0.0000 H   0  0  0  0  0  0  0  0  0  0  0  0
   -0.7072   -3.7169    0.0000 H   0  0  0  0  0  0  0  0  0  0  0  0
   -2.1361   -2.8919    0.0000 H   0  0  0  0  0  0  0  0  0  0  0  0
   -2.1361   -1.2419    0.0000 H   0  0  0  0  0  0  0  0  0  0  0  0
   -0.7072   -0.4169    0.0000 H   0  0  0  0  0  0  0  0  0  0  0  0
    0.2208   -0.8575    0.0000 H   0  0  0  0  0  0  0  0  0  0  0  0
    1.3257   -3.7169    0.0000 H   0  0  0  0  0  0  0  0  0  0  0  0
    2.1507   -4.5419    0.0000 H   0  0  0  0  0  0  0  0  0  0  0  0
    2.9757   -3.7169    0.0000 H   0  0  0  0  0  0  0  0  0  0  0  0
    3.2354   -1.7421    0.0000 H   0  0  0  0  0  0  0  0  0  0  0  0
    2.4949   -1.7421    0.0000 H   0  0  0  0  0  0  0  0  0  0  0  0
    4.2941   -1.6544    0.0000 H   0  0  0  0  0  0  0  0  0  0  0  0
    5.7231   -2.4794    0.0000 H   0  0  0  0  0  0  0  0  0  0  0  0
    5.7231   -4.1294    0.0000 H   0  0  0  0  0  0  0  0  0  0  0  0
    4.2941   -4.9544    0.0000 H   0  0  0  0  0  0  0  0  0  0  0  0
    3.3661   -4.5138    0.0000 H   0  0  0  0  0  0  0  0  0  0  0  0
  1  2  1  0  0  0  0
  2  3  1  0  0  0  0
  3  4  1  0  0  0  0
  4  5  4  0  0  0  0
  5  6  4  0  0  0  0
  6  7  4  0  0  0  0
  7  8  4  0  0  0  0
  8  9  4  0  0  0  0
  4  9  4  0  0  0  0
  2 10  1  0  0  0  0
 10 11  1  0  0  0  0
 10 12  1  0  0  0  0
 12 13  1  0  0  0  0
 13 14  4  0  0  0  0
 14 15  4  0  0  0  0
 15 16  4  0  0  0  0
 16 17  4  0  0  0  0
 17 18  4  0  0  0  0
 13 18  4  0  0  0  0
  1 19  1  0  0  0  0
  1 20  1  0  0  0  0
  1 21  1  0  0  0  0
  2 22  1  0  0  0  0
  3 23  1  0  0  0  0
  3 24  1  0  0  0  0
  5 25  1  0  0  0  0
  6 26  1  0  0  0  0
  7 27  1  0  0  0  0
  8 28  1  0  0  0  0
  9 29  1  0  0  0  0
 11 30  1  0  0  0  0
 11 31  1  0  0  0  0
 11 32  1  0  0  0  0
 12 33  1  0  0  0  0
 12 34  1  0  0  0  0
 14 35  1  0  0  0  0
 15 36  1  0  0  0  0
 16 37  1  0  0  0  0
 17 38  1  0  0  0  0
 18 39  1  0  0  0  0
M  END
>  <InChIKey>
InChI=1S/C17H21N/c1-15(13-16-9-5-3-6-10-16)18(2)14-17-11-7-4-8-12-17/h3-12,15H,13-14H2,1-2H3

>  <CASRN>
156-08-1

> <Outcome>
0

>  <Index>
3431

>  <StandardizerResult>
Dearomatize (ID: Dearomatize)
Clear Stereo (ID: ClearStereo)
Wedge Clean (ID: WedgeClean)
Mesomerize (ID: Mesomerize)
Tautomerize (ID: Tautomerize)
Aromatize (ID: Aromatize)
Add Explicit Hydrogens (ID: AddExplicitH)
Neutralize (ID: Neutralize)
Clean 2D (ID: Clean2D)

> <knn Distance>
3.74165749549866

> <CpId>
3431

$$$$
3436
  Mrv1532301301811342D          

 14 13  0  0  0  0            999 V2000
    0.1094   -2.8869    0.0000 O   0  0  0  0  0  0  0  0  0  0  0  0
    0.1094   -2.0619    0.0000 P   0  0  0  0  0  0  0  0  0  0  0  0
    0.9344   -2.0619    0.0000 O   0  0  0  0  0  0  0  0  0  0  0  0
   -0.7156   -2.0619    0.0000 O   0  0  0  0  0  0  0  0  0  0  0  0
    0.1094   -1.2369    0.0000 O   0  0  0  0  0  0  0  0  0  0  0  0
    0.8239   -0.8244    0.0000 C   0  0  0  0  0  0  0  0  0  0  0  0
    0.8239    0.0006    0.0000 C   0  0  0  0  0  0  0  0  0  0  0  0
    0.8239    0.8256    0.0000 Cl  0  0  0  0  0  0  0  0  0  0  0  0
    1.6489    0.0006    0.0000 Cl  0  0  0  0  0  0  0  0  0  0  0  0
   -0.0011    0.0006    0.0000 Cl  0  0  0  0  0  0  0  0  0  0  0  0
   -0.6050   -3.2994    0.0000 H   0  0  0  0  0  0  0  0  0  0  0  0
    1.3469   -2.7763    0.0000 H   0  0  0  0  0  0  0  0  0  0  0  0
    1.2772   -1.5136    0.0000 H   0  0  0  0  0  0  0  0  0  0  0  0
    1.6475   -0.8723    0.0000 H   0  0  0  0  0  0  0  0  0  0  0  0
  1  2  1  0  0  0  0
  2  3  1  0  0  0  0
  2  4  2  0  0  0  0
  2  5  1  0  0  0  0
  5  6  1  0  0  0  0
  6  7  1  0  0  0  0
  7  8  1  0  0  0  0
  7  9  1  0  0  0  0
  7 10  1  0  0  0  0
  1 11  1  0  0  0  0
  3 12  1  0  0  0  0
  6 13  1  0  0  0  0
  6 14  1  0  0  0  0
M  END
>  <InChIKey>
InChI=1S/C2H4Cl3O4P/c3-2(4,5)1-9-10(6,7)8/h1H2,(H2,6,7,8)

>  <CASRN>
306-52-5

> <Outcome>
0

>  <Index>
3436

>  <StandardizerResult>
Clear Stereo (ID: ClearStereo)
Wedge Clean (ID: WedgeClean)
Mesomerize (ID: Mesomerize)
Tautomerize (ID: Tautomerize)
Add Explicit Hydrogens (ID: AddExplicitH)
Neutralize (ID: Neutralize)
Clean 2D (ID: Clean2D)

> <knn Distance>
3.74165749549866

> <CpId>
3436

$$$$
3450
  Mrv1532301301811342D          

 26 26  0  0  0  0            999 V2000
   -0.7902    2.9192    0.0000 C   0  0  0  0  0  0  0  0  0  0  0  0
   -0.0757    2.5067    0.0000 C   0  0  0  0  0  0  0  0  0  0  0  0
   -0.4882    1.7923    0.0000 C   0  0  0  0  0  0  0  0  0  0  0  0
    0.3368    3.2212    0.0000 N   0  0  0  0  0  0  0  0  0  0  0  0
    0.6388    2.0942    0.0000 C   0  0  0  0  0  0  0  0  0  0  0  0
    0.6388    1.2692    0.0000 C   0  0  0  0  0  0  0  0  0  0  0  0
    1.3533    0.8567    0.0000 C   0  0  0  0  0  0  0  0  0  0  0  0
    1.3533    0.0317    0.0000 C   0  0  0  0  0  0  0  0  0  0  0  0
    0.6388   -0.3808    0.0000 C   0  0  0  0  0  0  0  0  0  0  0  0
    0.6388   -1.2058    0.0000 Cl  0  0  0  0  0  0  0  0  0  0  0  0
   -0.0757    0.0317    0.0000 C   0  0  0  0  0  0  0  0  0  0  0  0
   -0.0757    0.8567    0.0000 C   0  0  0  0  0  0  0  0  0  0  0  0
   -0.3777    3.6337    0.0000 H   0  0  0  0  0  0  0  0  0  0  0  0
   -1.5046    3.3317    0.0000 H   0  0  0  0  0  0  0  0  0  0  0  0
   -1.2027    2.2048    0.0000 H   0  0  0  0  0  0  0  0  0  0  0  0
   -1.1427    1.2900    0.0000 H   0  0  0  0  0  0  0  0  0  0  0  0
   -0.2747    0.9954    0.0000 H   0  0  0  0  0  0  0  0  0  0  0  0
    0.3298    1.6846    0.0000 H   0  0  0  0  0  0  0  0  0  0  0  0
    1.1337    3.0077    0.0000 H   0  0  0  0  0  0  0  0  0  0  0  0
    0.9202    3.8046    0.0000 H   0  0  0  0  0  0  0  0  0  0  0  0
    1.4624    2.1422    0.0000 H   0  0  0  0  0  0  0  0  0  0  0  0
    1.0921    2.7835    0.0000 H   0  0  0  0  0  0  0  0  0  0  0  0
    2.0677    1.2692    0.0000 H   0  0  0  0  0  0  0  0  0  0  0  0
    2.0677   -0.3808    0.0000 H   0  0  0  0  0  0  0  0  0  0  0  0
   -0.7902   -0.3808    0.0000 H   0  0  0  0  0  0  0  0  0  0  0  0
   -0.8070    0.4749    0.0000 H   0  0  0  0  0  0  0  0  0  0  0  0
  1  2  1  0  0  0  0
  2  3  1  0  0  0  0
  2  4  1  0  0  0  0
  2  5  1  0  0  0  0
  5  6  1  0  0  0  0
  6  7  4  0  0  0  0
  7  8  4  0  0  0  0
  8  9  4  0  0  0  0
  9 10  1  0  0  0  0
  9 11  4  0  0  0  0
 11 12  4  0  0  0  0
  6 12  4  0  0  0  0
  1 13  1  0  0  0  0
  1 14  1  0  0  0  0
  1 15  1  0  0  0  0
  3 16  1  0  0  0  0
  3 17  1  0  0  0  0
  3 18  1  0  0  0  0
  4 19  1  0  0  0  0
  4 20  1  0  0  0  0
  5 21  1  0  0  0  0
  5 22  1  0  0  0  0
  7 23  1  0  0  0  0
  8 24  1  0  0  0  0
 11 25  1  0  0  0  0
 12 26  1  0  0  0  0
M  END
>  <InChIKey>
InChI=1S/C10H14ClN/c1-10(2,12)7-8-3-5-9(11)6-4-8/h3-6H,7,12H2,1-2H3

>  <CASRN>
461-78-9

> <Outcome>
0

>  <Index>
3450

>  <StandardizerResult>
Dearomatize (ID: Dearomatize)
Clear Stereo (ID: ClearStereo)
Wedge Clean (ID: WedgeClean)
Mesomerize (ID: Mesomerize)
Tautomerize (ID: Tautomerize)
Aromatize (ID: Aromatize)
Add Explicit Hydrogens (ID: AddExplicitH)
Neutralize (ID: Neutralize)
Clean 2D (ID: Clean2D)

> <knn Distance>
3.74165749549866

> <CpId>
3450

$$$$
3470
  Mrv1532301301811342D          

 10  9  0  0  0  0            999 V2000
    0.1105   -1.2375    0.0000 O   0  0  0  0  0  0  0  0  0  0  0  0
    0.8250   -0.8250    0.0000 C   0  0  0  0  0  0  0  0  0  0  0  0
    1.5395   -1.2375    0.0000 O   0  0  0  0  0  0  0  0  0  0  0  0
    0.8250    0.0000    0.0000 P   0  0  0  0  0  0  0  0  0  0  0  0
    0.8250    0.8250    0.0000 O   0  0  0  0  0  0  0  0  0  0  0  0
    1.6500    0.0000    0.0000 O   0  0  0  0  0  0  0  0  0  0  0  0
   -0.0000    0.0000    0.0000 O   0  0  0  0  0  0  0  0  0  0  0  0
   -0.6039   -0.8250    0.0000 H   0  0  0  0  0  0  0  0  0  0  0  0
    1.5395    1.2375    0.0000 H   0  0  0  0  0  0  0  0  0  0  0  0
    2.0625   -0.7145    0.0000 H   0  0  0  0  0  0  0  0  0  0  0  0
  1  2  1  0  0  0  0
  2  3  2  0  0  0  0
  2  4  1  0  0  0  0
  4  5  1  0  0  0  0
  4  6  1  0  0  0  0
  4  7  2  0  0  0  0
  1  8  1  0  0  0  0
  5  9  1  0  0  0  0
  6 10  1  0  0  0  0
M  END
>  <InChIKey>
InChI=1S/CH3O5P/c2-1(3)7(4,5)6/h(H,2,3)(H2,4,5,6)

>  <CASRN>
4428-95-9

> <Outcome>
0

>  <Index>
3470

>  <StandardizerResult>
Clear Stereo (ID: ClearStereo)
Wedge Clean (ID: WedgeClean)
Mesomerize (ID: Mesomerize)
Tautomerize (ID: Tautomerize)
Add Explicit Hydrogens (ID: AddExplicitH)
Neutralize (ID: Neutralize)
Clean 2D (ID: Clean2D)

> <knn Distance>
3.74165749549866

> <CpId>
3470

$$$$
3496
  Mrv1532301301811342D          

 14 14  0  0  0  0            999 V2000
    0.7472    2.1683    0.0000 Cl  0  0  0  0  0  0  0  0  0  0  0  0
    0.7472    1.3433    0.0000 C   0  0  0  0  0  0  0  0  0  0  0  0
    1.4616    0.9308    0.0000 O   0  0  0  0  0  0  0  0  0  0  0  0
    1.4616    0.1058    0.0000 C   0  0  0  0  0  0  0  0  0  0  0  0
    0.7472   -0.3067    0.0000 C   0  0  0  0  0  0  0  0  0  0  0  0
    0.0327    0.1058    0.0000 O   0  0  0  0  0  0  0  0  0  0  0  0
    0.0327    0.9308    0.0000 C   0  0  0  0  0  0  0  0  0  0  0  0
   -0.6818    1.3433    0.0000 Cl  0  0  0  0  0  0  0  0  0  0  0  0
    0.0327    1.7558    0.0000 H   0  0  0  0  0  0  0  0  0  0  0  0
    1.9150   -0.5835    0.0000 H   0  0  0  0  0  0  0  0  0  0  0  0
    2.2852    0.0578    0.0000 H   0  0  0  0  0  0  0  0  0  0  0  0
    0.3769   -1.0439    0.0000 H   0  0  0  0  0  0  0  0  0  0  0  0
    1.1174   -1.0439    0.0000 H   0  0  0  0  0  0  0  0  0  0  0  0
    0.7472    0.5183    0.0000 H   0  0  0  0  0  0  0  0  0  0  0  0
  1  2  1  0  0  0  0
  2  3  1  0  0  0  0
  3  4  1  0  0  0  0
  4  5  1  0  0  0  0
  5  6  1  0  0  0  0
  6  7  1  0  0  0  0
  2  7  1  0  0  0  0
  7  8  1  0  0  0  0
  2  9  1  0  0  0  0
  4 10  1  0  0  0  0
  4 11  1  0  0  0  0
  5 12  1  0  0  0  0
  5 13  1  0  0  0  0
  7 14  1  0  0  0  0
M  END
>  <InChIKey>
InChI=1S/C4H6Cl2O2/c5-3-4(6)8-2-1-7-3/h3-4H,1-2H2

>  <CASRN>
95-59-0

> <Outcome>
0

>  <Index>
3496

>  <StandardizerResult>
Clear Stereo (ID: ClearStereo)
Wedge Clean (ID: WedgeClean)
Mesomerize (ID: Mesomerize)
Tautomerize (ID: Tautomerize)
Add Explicit Hydrogens (ID: AddExplicitH)
Neutralize (ID: Neutralize)
Clean 2D (ID: Clean2D)

> <knn Distance>
3.74165749549866

> <CpId>
3496

$$$$
19
  Mrv1532301301811342D          

 36 35  0  0  0  0            999 V2000
   -0.1127   -3.1046    0.0000 C   0  0  0  0  0  0  0  0  0  0  0  0
    0.6974   -2.9487    0.0000 C   0  0  0  0  0  0  0  0  0  0  0  0
    1.2375   -3.5723    0.0000 N   0  0  0  0  0  0  0  0  0  0  0  0
    0.9675   -4.3519    0.0000 C   0  0  0  0  0  0  0  0  0  0  0  0
    0.1573   -4.5078    0.0000 C   0  0  0  0  0  0  0  0  0  0  0  0
    2.0476   -3.4164    0.0000 C   0  0  0  0  0  0  0  0  0  0  0  0
    2.3177   -2.6369    0.0000 S   0  0  0  0  0  0  0  0  0  0  0  0
    2.5877   -4.0401    0.0000 S   0  0  0  0  0  0  0  0  0  0  0  0
    3.3979   -3.8842    0.0000 S   0  0  0  0  0  0  0  0  0  0  0  0
    3.9380   -4.5078    0.0000 C   0  0  0  0  0  0  0  0  0  0  0  0
    3.6679   -5.2874    0.0000 S   0  0  0  0  0  0  0  0  0  0  0  0
    4.7481   -4.3519    0.0000 N   0  0  0  0  0  0  0  0  0  0  0  0
    5.2882   -4.9755    0.0000 C   0  0  0  0  0  0  0  0  0  0  0  0
    6.0983   -4.8196    0.0000 C   0  0  0  0  0  0  0  0  0  0  0  0
    5.0181   -3.5723    0.0000 C   0  0  0  0  0  0  0  0  0  0  0  0
    5.8283   -3.4164    0.0000 C   0  0  0  0  0  0  0  0  0  0  0  0
   -0.2686   -2.2945    0.0000 H   0  0  0  0  0  0  0  0  0  0  0  0
   -0.9229   -3.2605    0.0000 H   0  0  0  0  0  0  0  0  0  0  0  0
    0.0432   -3.9147    0.0000 H   0  0  0  0  0  0  0  0  0  0  0  0
    1.2886   -2.3733    0.0000 H   0  0  0  0  0  0  0  0  0  0  0  0
    0.5889   -2.1309    0.0000 H   0  0  0  0  0  0  0  0  0  0  0  0
    1.1702   -5.1516    0.0000 H   0  0  0  0  0  0  0  0  0  0  0  0
    1.7300   -4.6668    0.0000 H   0  0  0  0  0  0  0  0  0  0  0  0
   -0.6508   -4.3418    0.0000 H   0  0  0  0  0  0  0  0  0  0  0  0
   -0.3053   -5.1909    0.0000 H   0  0  0  0  0  0  0  0  0  0  0  0
    0.6114   -5.1966    0.0000 H   0  0  0  0  0  0  0  0  0  0  0  0
    4.6970   -5.5510    0.0000 H   0  0  0  0  0  0  0  0  0  0  0  0
    5.3967   -5.7934    0.0000 H   0  0  0  0  0  0  0  0  0  0  0  0
    6.2542   -5.6298    0.0000 H   0  0  0  0  0  0  0  0  0  0  0  0
    6.9084   -4.6637    0.0000 H   0  0  0  0  0  0  0  0  0  0  0  0
    5.9424   -4.0095    0.0000 H   0  0  0  0  0  0  0  0  0  0  0  0
    4.8154   -2.7726    0.0000 H   0  0  0  0  0  0  0  0  0  0  0  0
    4.2556   -3.2574    0.0000 H   0  0  0  0  0  0  0  0  0  0  0  0
    6.6364   -3.5824    0.0000 H   0  0  0  0  0  0  0  0  0  0  0  0
    6.2909   -2.7333    0.0000 H   0  0  0  0  0  0  0  0  0  0  0  0
    5.3742   -2.7276    0.0000 H   0  0  0  0  0  0  0  0  0  0  0  0
  1  2  1  0  0  0  0
  2  3  1  0  0  0  0
  3  4  1  0  0  0  0
  4  5  1  0  0  0  0
  3  6  1  0  0  0  0
  6  7  2  0  0  0  0
  6  8  1  0  0  0  0
  8  9  1  0  0  0  0
  9 10  1  0  0  0  0
 10 11  2  0  0  0  0
 10 12  1  0  0  0  0
 12 13  1  0  0  0  0
 13 14  1  0  0  0  0
 12 15  1  0  0  0  0
 15 16  1  0  0  0  0
  1 17  1  0  0  0  0
  1 18  1  0  0  0  0
  1 19  1  0  0  0  0
  2 20  1  0  0  0  0
  2 21  1  0  0  0  0
  4 22  1  0  0  0  0
  4 23  1  0  0  0  0
  5 24  1  0  0  0  0
  5 25  1  0  0  0  0
  5 26  1  0  0  0  0
 13 27  1  0  0  0  0
 13 28  1  0  0  0  0
 14 29  1  0  0  0  0
 14 30  1  0  0  0  0
 14 31  1  0  0  0  0
 15 32  1  0  0  0  0
 15 33  1  0  0  0  0
 16 34  1  0  0  0  0
 16 35  1  0  0  0  0
 16 36  1  0  0  0  0
M  END
>  <InChIKey>
AUZONCFQVSMFAP-UHFFFAOYSA-N

>  <UN GHS>
Non-irritant

>  <CASRN>
97-77-8

> <Outcome>
0

>  <Index>
19

>  <StandardizerResult>
Clear Stereo (ID: ClearStereo)
Wedge Clean (ID: WedgeClean)
Mesomerize (ID: Mesomerize)
Tautomerize (ID: Tautomerize)
Add Explicit Hydrogens (ID: AddExplicitH)
Neutralize (ID: Neutralize)
Clean 2D (ID: Clean2D)

> <knn Distance>
3.87298345565796

> <CpId>
19

$$$$
27
  Mrv1532301301811342D          

 43 43  0  0  0  0            999 V2000
   -0.0320    2.4502    0.0000 C   0  0  0  0  0  0  0  0  0  0  0  0
    0.6825    2.0377    0.0000 C   0  0  0  0  0  0  0  0  0  0  0  0
    1.3969    2.4502    0.0000 C   0  0  0  0  0  0  0  0  0  0  0  0
    0.6825    1.2127    0.0000 C   0  0  0  0  0  0  0  0  0  0  0  0
    1.3969    0.8002    0.0000 C   0  0  0  0  0  0  0  0  0  0  0  0
    1.3969   -0.0248    0.0000 C   0  0  0  0  0  0  0  0  0  0  0  0
    2.1114   -0.4373    0.0000 C   0  0  0  0  0  0  0  0  0  0  0  0
    2.1114   -1.2623    0.0000 C   0  0  0  0  0  0  0  0  0  0  0  0
    2.8259   -0.0248    0.0000 C   0  0  0  0  0  0  0  0  0  0  0  0
    0.6825   -0.4373    0.0000 C   0  0  0  0  0  0  0  0  0  0  0  0
    0.6825   -1.2623    0.0000 N   0  0  0  0  0  0  0  0  0  0  0  0
    1.3969   -1.6748    0.0000 C   0  0  0  0  0  0  0  0  0  0  0  0
    2.1114   -2.0873    0.0000 O   0  0  0  0  0  0  0  0  0  0  0  0
   -0.0320   -0.0248    0.0000 C   0  0  0  0  0  0  0  0  0  0  0  0
   -0.7465   -0.4373    0.0000 C   0  0  0  0  0  0  0  0  0  0  0  0
   -1.4610   -0.0248    0.0000 C   0  0  0  0  0  0  0  0  0  0  0  0
   -0.7465   -1.2623    0.0000 C   0  0  0  0  0  0  0  0  0  0  0  0
   -0.0320    0.8002    0.0000 C   0  0  0  0  0  0  0  0  0  0  0  0
   -0.7465    1.2127    0.0000 N   0  0  0  0  0  0  0  0  0  0  0  0
   -0.7465    2.0377    0.0000 C   0  0  0  0  0  0  0  0  0  0  0  0
   -0.7465    2.8627    0.0000 O   0  0  0  0  0  0  0  0  0  0  0  0
    0.6000    2.9805    0.0000 H   0  0  0  0  0  0  0  0  0  0  0  0
    0.1112    3.2627    0.0000 H   0  0  0  0  0  0  0  0  0  0  0  0
   -0.0320    1.6252    0.0000 H   0  0  0  0  0  0  0  0  0  0  0  0
    1.3969    1.6252    0.0000 H   0  0  0  0  0  0  0  0  0  0  0  0
    2.1048    2.0264    0.0000 H   0  0  0  0  0  0  0  0  0  0  0  0
    2.1241    2.8398    0.0000 H   0  0  0  0  0  0  0  0  0  0  0  0
    1.4362    3.2743    0.0000 H   0  0  0  0  0  0  0  0  0  0  0  0
    2.2219    0.8002    0.0000 H   0  0  0  0  0  0  0  0  0  0  0  0
    1.3969   -0.8498    0.0000 H   0  0  0  0  0  0  0  0  0  0  0  0
    2.6948   -1.8456    0.0000 H   0  0  0  0  0  0  0  0  0  0  0  0
    2.9364   -1.2623    0.0000 H   0  0  0  0  0  0  0  0  0  0  0  0
    2.6948   -0.6789    0.0000 H   0  0  0  0  0  0  0  0  0  0  0  0
    3.5824   -0.3538    0.0000 H   0  0  0  0  0  0  0  0  0  0  0  0
    3.3069    0.6455    0.0000 H   0  0  0  0  0  0  0  0  0  0  0  0
    2.2721    0.5867    0.0000 H   0  0  0  0  0  0  0  0  0  0  0  0
   -0.7465    0.3877    0.0000 H   0  0  0  0  0  0  0  0  0  0  0  0
   -1.6745    0.7721    0.0000 H   0  0  0  0  0  0  0  0  0  0  0  0
   -2.2860   -0.0248    0.0000 H   0  0  0  0  0  0  0  0  0  0  0  0
   -1.6745   -0.8217    0.0000 H   0  0  0  0  0  0  0  0  0  0  0  0
   -1.5715   -1.2623    0.0000 H   0  0  0  0  0  0  0  0  0  0  0  0
   -0.7465   -2.0873    0.0000 H   0  0  0  0  0  0  0  0  0  0  0  0
    0.0785   -1.2623    0.0000 H   0  0  0  0  0  0  0  0  0  0  0  0
  1  2  1  0  0  0  0
  2  3  1  0  0  0  0
  2  4  1  0  0  0  0
  4  5  4  0  0  0  0
  5  6  4  0  0  0  0
  6  7  1  0  0  0  0
  7  8  1  0  0  0  0
  7  9  1  0  0  0  0
  6 10  4  0  0  0  0
 10 11  1  0  0  0  0
 11 12  2  0  0  0  0
 12 13  2  0  0  0  0
 10 14  4  0  0  0  0
 14 15  1  0  0  0  0
 15 16  1  0  0  0  0
 15 17  1  0  0  0  0
 14 18  4  0  0  0  0
  4 18  4  0  0  0  0
 18 19  1  0  0  0  0
 19 20  2  0  0  0  0
 20 21  2  0  0  0  0
  1 22  1  0  0  0  0
  1 23  1  0  0  0  0
  1 24  1  0  0  0  0
  2 25  1  0  0  0  0
  3 26  1  0  0  0  0
  3 27  1  0  0  0  0
  3 28  1  0  0  0  0
  5 29  1  0  0  0  0
  7 30  1  0  0  0  0
  8 31  1  0  0  0  0
  8 32  1  0  0  0  0
  8 33  1  0  0  0  0
  9 34  1  0  0  0  0
  9 35  1  0  0  0  0
  9 36  1  0  0  0  0
 15 37  1  0  0  0  0
 16 38  1  0  0  0  0
 16 39  1  0  0  0  0
 16 40  1  0  0  0  0
 17 41  1  0  0  0  0
 17 42  1  0  0  0  0
 17 43  1  0  0  0  0
M  END
>  <InChIKey>
AZAKSPACDDRBQB-UHFFFAOYSA-N

>  <UN GHS>
Non-irritant

>  <CASRN>
2162-73-4

> <Outcome>
0

>  <Index>
27

>  <StandardizerResult>
Dearomatize (ID: Dearomatize)
Clear Stereo (ID: ClearStereo)
Wedge Clean (ID: WedgeClean)
Mesomerize (ID: Mesomerize)
Tautomerize (ID: Tautomerize)
Aromatize (ID: Aromatize)
Add Explicit Hydrogens (ID: AddExplicitH)
Neutralize (ID: Neutralize)
Clean 2D (ID: Clean2D)

> <knn Distance>
3.87298345565796

> <CpId>
27

$$$$
128
  Mrv1532301301811342D          

 19 18  0  0  0  0            999 V2000
    1.6126   -0.7874    0.0000 C   0  0  0  0  0  0  0  0  0  0  0  0
    0.7876   -0.7874    0.0000 C   0  0  0  0  0  0  0  0  0  0  0  0
   -0.0374   -0.7874    0.0000 O   0  0  0  0  0  0  0  0  0  0  0  0
    0.7876   -1.6124    0.0000 P   0  0  0  0  0  0  0  0  0  0  0  0
    0.7876   -2.4374    0.0000 O   0  0  0  0  0  0  0  0  0  0  0  0
    1.6126   -1.6124    0.0000 O   0  0  0  0  0  0  0  0  0  0  0  0
   -0.0374   -1.6124    0.0000 O   0  0  0  0  0  0  0  0  0  0  0  0
    0.7876    0.0376    0.0000 P   0  0  0  0  0  0  0  0  0  0  0  0
    0.7876    0.8626    0.0000 O   0  0  0  0  0  0  0  0  0  0  0  0
    1.6126    0.0376    0.0000 O   0  0  0  0  0  0  0  0  0  0  0  0
   -0.0374    0.0376    0.0000 O   0  0  0  0  0  0  0  0  0  0  0  0
    2.1960   -1.3708    0.0000 H   0  0  0  0  0  0  0  0  0  0  0  0
    2.4376   -0.7874    0.0000 H   0  0  0  0  0  0  0  0  0  0  0  0
    2.1960   -0.2040    0.0000 H   0  0  0  0  0  0  0  0  0  0  0  0
   -0.8624   -0.7874    0.0000 H   0  0  0  0  0  0  0  0  0  0  0  0
    0.0731   -2.8499    0.0000 H   0  0  0  0  0  0  0  0  0  0  0  0
    1.7736   -2.4215    0.0000 H   0  0  0  0  0  0  0  0  0  0  0  0
    1.5021    1.2751    0.0000 H   0  0  0  0  0  0  0  0  0  0  0  0
    1.7736    0.8468    0.0000 H   0  0  0  0  0  0  0  0  0  0  0  0
  1  2  1  0  0  0  0
  2  3  1  0  0  0  0
  2  4  1  0  0  0  0
  4  5  1  0  0  0  0
  4  6  1  0  0  0  0
  4  7  2  0  0  0  0
  2  8  1  0  0  0  0
  8  9  1  0  0  0  0
  8 10  1  0  0  0  0
  8 11  2  0  0  0  0
  1 12  1  0  0  0  0
  1 13  1  0  0  0  0
  1 14  1  0  0  0  0
  3 15  1  0  0  0  0
  5 16  1  0  0  0  0
  6 17  1  0  0  0  0
  9 18  1  0  0  0  0
 10 19  1  0  0  0  0
M  END
>  <InChIKey>
DBVJJBKOTRCVKF-UHFFFAOYSA-J

>  <UN GHS>
Non-irritant

>  <CASRN>
3794-83-0

> <Outcome>
0

>  <Index>
128

>  <StandardizerResult>
Clear Stereo (ID: ClearStereo)
Wedge Clean (ID: WedgeClean)
Mesomerize (ID: Mesomerize)
Tautomerize (ID: Tautomerize)
Add Explicit Hydrogens (ID: AddExplicitH)
Neutralize (ID: Neutralize)
Clean 2D (ID: Clean2D)

> <knn Distance>
3.87298345565796

> <CpId>
128

$$$$
161
  Mrv1532301301811342D          

 23 25  0  0  0  0            999 V2000
    1.1270    2.5559    0.0000 O   0  0  0  0  0  0  0  0  0  0  0  0
    1.5395    1.8414    0.0000 P   0  3  0  0  0  0  0  0  0  0  0  0
    2.3645    1.8414    0.0000 O   0  0  0  0  0  0  0  0  0  0  0  0
    2.7770    1.1270    0.0000 C   0  0  0  0  0  0  0  0  0  0  0  0
    3.6020    1.1270    0.0000 C   0  0  0  0  0  0  0  0  0  0  0  0
    4.0145    0.4125    0.0000 C   0  0  0  0  0  0  0  0  0  0  0  0
    3.6020   -0.3020    0.0000 C   0  0  0  0  0  0  0  0  0  0  0  0
    2.7770   -0.3020    0.0000 C   0  0  0  0  0  0  0  0  0  0  0  0
    2.3645    0.4125    0.0000 C   0  0  0  0  0  0  0  0  0  0  0  0
    1.5395    0.4125    0.0000 C   0  0  0  0  0  0  0  0  0  0  0  0
    1.1270   -0.3020    0.0000 C   0  0  0  0  0  0  0  0  0  0  0  0
    0.3020   -0.3020    0.0000 C   0  0  0  0  0  0  0  0  0  0  0  0
   -0.1105    0.4125    0.0000 C   0  0  0  0  0  0  0  0  0  0  0  0
    0.3020    1.1270    0.0000 C   0  0  0  0  0  0  0  0  0  0  0  0
    1.1270    1.1270    0.0000 C   0  0  0  0  0  0  0  0  0  0  0  0
    4.0145    1.8414    0.0000 H   0  0  0  0  0  0  0  0  0  0  0  0
    4.8395    0.4125    0.0000 H   0  0  0  0  0  0  0  0  0  0  0  0
    4.0145   -1.0164    0.0000 H   0  0  0  0  0  0  0  0  0  0  0  0
    2.3645   -1.0164    0.0000 H   0  0  0  0  0  0  0  0  0  0  0  0
    1.5395   -1.0164    0.0000 H   0  0  0  0  0  0  0  0  0  0  0  0
   -0.1105   -1.0164    0.0000 H   0  0  0  0  0  0  0  0  0  0  0  0
   -0.9355    0.4125    0.0000 H   0  0  0  0  0  0  0  0  0  0  0  0
   -0.1105    1.8414    0.0000 H   0  0  0  0  0  0  0  0  0  0  0  0
  1  2  2  0  0  0  0
  2  3  1  0  0  0  0
  3  4  1  0  0  0  0
  4  5  4  0  0  0  0
  5  6  4  0  0  0  0
  6  7  4  0  0  0  0
  7  8  4  0  0  0  0
  8  9  4  0  0  0  0
  4  9  4  0  0  0  0
  9 10  1  0  0  0  0
 10 11  4  0  0  0  0
 11 12  4  0  0  0  0
 12 13  4  0  0  0  0
 13 14  4  0  0  0  0
 14 15  4  0  0  0  0
  2 15  1  0  0  0  0
 10 15  4  0  0  0  0
  5 16  1  0  0  0  0
  6 17  1  0  0  0  0
  7 18  1  0  0  0  0
  8 19  1  0  0  0  0
 11 20  1  0  0  0  0
 12 21  1  0  0  0  0
 13 22  1  0  0  0  0
 14 23  1  0  0  0  0
M  CHG  1   2   1
M  END
>  <InChIKey>
DWSWCPPGLRSPIT-UHFFFAOYSA-N

>  <UN GHS>
Non-irritant

>  <CASRN>
35948-25-5

> <Outcome>
0

>  <Index>
161

>  <StandardizerResult>
Dearomatize (ID: Dearomatize)
Clear Stereo (ID: ClearStereo)
Wedge Clean (ID: WedgeClean)
Mesomerize (ID: Mesomerize)
Tautomerize (ID: Tautomerize)
Aromatize (ID: Aromatize)
Add Explicit Hydrogens (ID: AddExplicitH)
Clean 2D (ID: Clean2D)

> <knn Distance>
3.87298345565796

> <CpId>
161

$$$$
178
  Mrv1532301301811342D          

 28 27  0  0  0  0            999 V2000
   -0.6992   -1.7828    0.0000 C   0  0  0  0  0  0  0  0  0  0  0  0
    0.0153   -1.3703    0.0000 Si  0  0  0  0  0  0  0  0  0  0  0  0
    0.4278   -2.0847    0.0000 C   0  0  0  0  0  0  0  0  0  0  0  0
   -0.3972   -0.6558    0.0000 C   0  0  0  0  0  0  0  0  0  0  0  0
    0.7297   -0.9578    0.0000 N   0  0  0  0  0  0  0  0  0  0  0  0
    0.7297   -0.1328    0.0000 Si  0  0  0  0  0  0  0  0  0  0  0  0
    0.7297    0.6922    0.0000 C   0  0  0  0  0  0  0  0  0  0  0  0
    1.5547   -0.1328    0.0000 C   0  0  0  0  0  0  0  0  0  0  0  0
   -0.0953   -0.1328    0.0000 C   0  0  0  0  0  0  0  0  0  0  0  0
   -1.1117   -1.0683    0.0000 H   0  0  0  0  0  0  0  0  0  0  0  0
   -1.4137   -2.1953    0.0000 H   0  0  0  0  0  0  0  0  0  0  0  0
   -0.2867   -2.4972    0.0000 H   0  0  0  0  0  0  0  0  0  0  0  0
    0.5355   -2.9027    0.0000 H   0  0  0  0  0  0  0  0  0  0  0  0
    1.2247   -2.2983    0.0000 H   0  0  0  0  0  0  0  0  0  0  0  0
    0.9300   -1.4302    0.0000 H   0  0  0  0  0  0  0  0  0  0  0  0
   -0.6794    0.1195    0.0000 H   0  0  0  0  0  0  0  0  0  0  0  0
   -1.1725   -0.3736    0.0000 H   0  0  0  0  0  0  0  0  0  0  0  0
    0.4278   -0.6558    0.0000 H   0  0  0  0  0  0  0  0  0  0  0  0
    1.5382   -0.7935    0.0000 H   0  0  0  0  0  0  0  0  0  0  0  0
    1.5547    0.6922    0.0000 H   0  0  0  0  0  0  0  0  0  0  0  0
    0.7297    1.5172    0.0000 H   0  0  0  0  0  0  0  0  0  0  0  0
   -0.0953    0.6922    0.0000 H   0  0  0  0  0  0  0  0  0  0  0  0
    2.1271   -0.7270    0.0000 H   0  0  0  0  0  0  0  0  0  0  0  0
    2.3797   -0.1431    0.0000 H   0  0  0  0  0  0  0  0  0  0  0  0
    2.1417    0.4469    0.0000 H   0  0  0  0  0  0  0  0  0  0  0  0
    0.6192    0.2797    0.0000 H   0  0  0  0  0  0  0  0  0  0  0  0
    0.3172    0.5817    0.0000 H   0  0  0  0  0  0  0  0  0  0  0  0
   -0.5485    0.5566    0.0000 H   0  0  0  0  0  0  0  0  0  0  0  0
  1  2  1  0  0  0  0
  2  3  1  0  0  0  0
  2  4  1  0  0  0  0
  2  5  1  0  0  0  0
  5  6  1  0  0  0  0
  6  7  1  0  0  0  0
  6  8  1  0  0  0  0
  6  9  1  0  0  0  0
  1 10  1  0  0  0  0
  1 11  1  0  0  0  0
  1 12  1  0  0  0  0
  3 13  1  0  0  0  0
  3 14  1  0  0  0  0
  3 15  1  0  0  0  0
  4 16  1  0  0  0  0
  4 17  1  0  0  0  0
  4 18  1  0  0  0  0
  5 19  1  0  0  0  0
  7 20  1  0  0  0  0
  7 21  1  0  0  0  0
  7 22  1  0  0  0  0
  8 23  1  0  0  0  0
  8 24  1  0  0  0  0
  8 25  1  0  0  0  0
  9 26  1  0  0  0  0
  9 27  1  0  0  0  0
  9 28  1  0  0  0  0
M  END
>  <InChIKey>
FFUAGWLWBBFQJT-UHFFFAOYSA-N

>  <UN GHS>
Non-irritant

>  <CASRN>
999-97-3

> <Outcome>
0

>  <Index>
178

>  <StandardizerResult>
Clear Stereo (ID: ClearStereo)
Wedge Clean (ID: WedgeClean)
Mesomerize (ID: Mesomerize)
Tautomerize (ID: Tautomerize)
Add Explicit Hydrogens (ID: AddExplicitH)
Neutralize (ID: Neutralize)
Clean 2D (ID: Clean2D)

> <knn Distance>
3.87298345565796

> <CpId>
178

$$$$
189
  Mrv1532301301811342D          

 54 55  0  0  0  0            999 V2000
   -2.8682   -5.7960    0.0000 C   0  0  0  0  0  0  0  0  0  0  0  0
   -2.1538   -6.2085    0.0000 C   0  0  0  0  0  0  0  0  0  0  0  0
   -1.4393   -5.7960    0.0000 C   0  0  0  0  0  0  0  0  0  0  0  0
   -0.7248   -6.2085    0.0000 C   0  0  0  0  0  0  0  0  0  0  0  0
   -0.0104   -5.7960    0.0000 C   0  0  0  0  0  0  0  0  0  0  0  0
   -0.0104   -4.9710    0.0000 C   0  0  0  0  0  0  0  0  0  0  0  0
    0.7041   -4.5585    0.0000 C   0  0  0  0  0  0  0  0  0  0  0  0
    0.7041   -6.2085    0.0000 C   0  0  0  0  0  0  0  0  0  0  0  0
    1.4186   -5.7960    0.0000 O   0  0  0  0  0  0  0  0  0  0  0  0
    2.1331   -6.2085    0.0000 C   0  0  0  0  0  0  0  0  0  0  0  0
    2.1331   -7.0335    0.0000 O   0  0  0  0  0  0  0  0  0  0  0  0
    2.8475   -5.7960    0.0000 C   0  0  0  0  0  0  0  0  0  0  0  0
    2.8475   -4.9710    0.0000 C   0  0  0  0  0  0  0  0  0  0  0  0
    2.8475   -4.1460    0.0000 N   0  0  0  0  0  0  0  0  0  0  0  0
    3.5620   -6.2085    0.0000 C   0  0  0  0  0  0  0  0  0  0  0  0
    3.5620   -7.0335    0.0000 C   0  0  0  0  0  0  0  0  0  0  0  0
    4.2765   -7.4460    0.0000 C   0  0  0  0  0  0  0  0  0  0  0  0
    4.2765   -8.2710    0.0000 C   0  0  0  0  0  0  0  0  0  0  0  0
    3.5620   -8.6835    0.0000 C   0  0  0  0  0  0  0  0  0  0  0  0
    2.8475   -8.2710    0.0000 C   0  0  0  0  0  0  0  0  0  0  0  0
    2.8475   -7.4460    0.0000 C   0  0  0  0  0  0  0  0  0  0  0  0
    4.2765   -5.7960    0.0000 C   0  0  0  0  0  0  0  0  0  0  0  0
    4.2765   -4.9710    0.0000 C   0  0  0  0  0  0  0  0  0  0  0  0
    4.9909   -4.5585    0.0000 C   0  0  0  0  0  0  0  0  0  0  0  0
    5.7054   -4.9710    0.0000 C   0  0  0  0  0  0  0  0  0  0  0  0
    5.7054   -5.7960    0.0000 C   0  0  0  0  0  0  0  0  0  0  0  0
    4.9909   -6.2085    0.0000 C   0  0  0  0  0  0  0  0  0  0  0  0
   -2.4557   -5.0815    0.0000 H   0  0  0  0  0  0  0  0  0  0  0  0
   -3.5827   -5.3835    0.0000 H   0  0  0  0  0  0  0  0  0  0  0  0
   -3.2807   -6.5104    0.0000 H   0  0  0  0  0  0  0  0  0  0  0  0
   -2.5240   -6.9457    0.0000 H   0  0  0  0  0  0  0  0  0  0  0  0
   -1.7835   -6.9457    0.0000 H   0  0  0  0  0  0  0  0  0  0  0  0
   -1.0690   -5.0587    0.0000 H   0  0  0  0  0  0  0  0  0  0  0  0
   -1.8096   -5.0587    0.0000 H   0  0  0  0  0  0  0  0  0  0  0  0
   -1.0951   -6.9457    0.0000 H   0  0  0  0  0  0  0  0  0  0  0  0
   -0.3546   -6.9457    0.0000 H   0  0  0  0  0  0  0  0  0  0  0  0
   -0.7248   -5.3835    0.0000 H   0  0  0  0  0  0  0  0  0  0  0  0
   -0.1536   -4.1585    0.0000 H   0  0  0  0  0  0  0  0  0  0  0  0
   -0.6423   -4.4407    0.0000 H   0  0  0  0  0  0  0  0  0  0  0  0
    0.9350   -5.3505    0.0000 H   0  0  0  0  0  0  0  0  0  0  0  0
    1.5283   -4.5225    0.0000 H   0  0  0  0  0  0  0  0  0  0  0  0
    0.8651   -3.7493    0.0000 H   0  0  0  0  0  0  0  0  0  0  0  0
    0.3339   -6.9457    0.0000 H   0  0  0  0  0  0  0  0  0  0  0  0
    1.0744   -6.9457    0.0000 H   0  0  0  0  0  0  0  0  0  0  0  0
    4.9909   -7.0335    0.0000 H   0  0  0  0  0  0  0  0  0  0  0  0
    4.9909   -8.6835    0.0000 H   0  0  0  0  0  0  0  0  0  0  0  0
    3.5620   -9.5085    0.0000 H   0  0  0  0  0  0  0  0  0  0  0  0
    2.1331   -8.6835    0.0000 H   0  0  0  0  0  0  0  0  0  0  0  0
    2.8475   -6.6210    0.0000 H   0  0  0  0  0  0  0  0  0  0  0  0
    3.5620   -4.5585    0.0000 H   0  0  0  0  0  0  0  0  0  0  0  0
    4.9909   -3.7335    0.0000 H   0  0  0  0  0  0  0  0  0  0  0  0
    6.4199   -4.5585    0.0000 H   0  0  0  0  0  0  0  0  0  0  0  0
    6.4199   -6.2085    0.0000 H   0  0  0  0  0  0  0  0  0  0  0  0
    4.2765   -6.6210    0.0000 H   0  0  0  0  0  0  0  0  0  0  0  0
  1  2  1  0  0  0  0
  2  3  1  0  0  0  0
  3  4  1  0  0  0  0
  4  5  1  0  0  0  0
  5  6  1  0  0  0  0
  6  7  1  0  0  0  0
  5  8  1  0  0  0  0
  8  9  1  0  0  0  0
  9 10  1  0  0  0  0
 10 11  2  0  0  0  0
 10 12  1  0  0  0  0
 12 13  1  0  0  0  0
 13 14  3  0  0  0  0
 12 15  2  0  0  0  0
 15 16  1  0  0  0  0
 16 17  4  0  0  0  0
 17 18  4  0  0  0  0
 18 19  4  0  0  0  0
 19 20  4  0  0  0  0
 20 21  4  0  0  0  0
 16 21  4  0  0  0  0
 15 22  1  0  0  0  0
 22 23  4  0  0  0  0
 23 24  4  0  0  0  0
 24 25  4  0  0  0  0
 25 26  4  0  0  0  0
 26 27  4  0  0  0  0
 22 27  4  0  0  0  0
  1 28  1  0  0  0  0
  1 29  1  0  0  0  0
  1 30  1  0  0  0  0
  2 31  1  0  0  0  0
  2 32  1  0  0  0  0
  3 33  1  0  0  0  0
  3 34  1  0  0  0  0
  4 35  1  0  0  0  0
  4 36  1  0  0  0  0
  5 37  1  0  0  0  0
  6 38  1  0  0  0  0
  6 39  1  0  0  0  0
  7 40  1  0  0  0  0
  7 41  1  0  0  0  0
  7 42  1  0  0  0  0
  8 43  1  0  0  0  0
  8 44  1  0  0  0  0
 17 45  1  0  0  0  0
 18 46  1  0  0  0  0
 19 47  1  0  0  0  0
 20 48  1  0  0  0  0
 21 49  1  0  0  0  0
 23 50  1  0  0  0  0
 24 51  1  0  0  0  0
 25 52  1  0  0  0  0
 26 53  1  0  0  0  0
 27 54  1  0  0  0  0
M  END
>  <InChIKey>
FMJSMJQBSVNSBF-UHFFFAOYSA-N

>  <UN GHS>
Non-irritant

>  <CASRN>
6197-30-4

> <Outcome>
0

>  <Index>
189

>  <StandardizerResult>
Dearomatize (ID: Dearomatize)
Clear Stereo (ID: ClearStereo)
Wedge Clean (ID: WedgeClean)
Mesomerize (ID: Mesomerize)
Tautomerize (ID: Tautomerize)
Aromatize (ID: Aromatize)
Add Explicit Hydrogens (ID: AddExplicitH)
Neutralize (ID: Neutralize)
Clean 2D (ID: Clean2D)

> <knn Distance>
3.87298345565796

> <CpId>
189

$$$$
211
  Mrv1532301301811342D          

 72 72  0  0  0  0            999 V2000
   -7.1447    1.6510    0.0000 C   0  0  0  0  0  0  0  0  0  0  0  0
   -6.4302    1.2385    0.0000 C   0  0  0  0  0  0  0  0  0  0  0  0
   -5.7158    1.6510    0.0000 C   0  0  0  0  0  0  0  0  0  0  0  0
   -5.0013    1.2385    0.0000 C   0  0  0  0  0  0  0  0  0  0  0  0
   -4.2868    1.6510    0.0000 C   0  0  0  0  0  0  0  0  0  0  0  0
   -3.5724    1.2385    0.0000 C   0  0  0  0  0  0  0  0  0  0  0  0
   -2.8579    1.6510    0.0000 C   0  0  0  0  0  0  0  0  0  0  0  0
   -2.1434    1.2385    0.0000 C   0  0  0  0  0  0  0  0  0  0  0  0
   -1.4289    1.6510    0.0000 S   0  0  0  0  0  0  0  0  0  0  0  0
   -0.7145    1.2385    0.0000 C   0  0  0  0  0  0  0  0  0  0  0  0
    0.0000    1.6510    0.0000 C   0  0  0  0  0  0  0  0  0  0  0  0
    0.0000    2.4760    0.0000 C   0  0  0  0  0  0  0  0  0  0  0  0
    0.7145    2.8885    0.0000 C   0  0  0  0  0  0  0  0  0  0  0  0
    0.7145    3.7135    0.0000 C   0  0  0  0  0  0  0  0  0  0  0  0
    1.4289    2.4760    0.0000 C   0  0  0  0  0  0  0  0  0  0  0  0
    2.1434    2.8885    0.0000 O   0  0  0  0  0  0  0  0  0  0  0  0
    1.4289    1.6510    0.0000 C   0  0  0  0  0  0  0  0  0  0  0  0
    2.1434    1.2385    0.0000 C   0  0  0  0  0  0  0  0  0  0  0  0
    2.8579    1.6510    0.0000 S   0  0  0  0  0  0  0  0  0  0  0  0
    3.5724    1.2385    0.0000 C   0  0  0  0  0  0  0  0  0  0  0  0
    4.2868    1.6510    0.0000 C   0  0  0  0  0  0  0  0  0  0  0  0
    5.0013    1.2385    0.0000 C   0  0  0  0  0  0  0  0  0  0  0  0
    5.7158    1.6510    0.0000 C   0  0  0  0  0  0  0  0  0  0  0  0
    6.4302    1.2385    0.0000 C   0  0  0  0  0  0  0  0  0  0  0  0
    7.1447    1.6510    0.0000 C   0  0  0  0  0  0  0  0  0  0  0  0
    7.8592    1.2385    0.0000 C   0  0  0  0  0  0  0  0  0  0  0  0
    8.5737    1.6510    0.0000 C   0  0  0  0  0  0  0  0  0  0  0  0
    0.7145    1.2385    0.0000 C   0  0  0  0  0  0  0  0  0  0  0  0
   -6.7322    2.3654    0.0000 H   0  0  0  0  0  0  0  0  0  0  0  0
   -7.8592    2.0635    0.0000 H   0  0  0  0  0  0  0  0  0  0  0  0
   -7.5572    0.9365    0.0000 H   0  0  0  0  0  0  0  0  0  0  0  0
   -6.8005    0.5012    0.0000 H   0  0  0  0  0  0  0  0  0  0  0  0
   -6.0600    0.5012    0.0000 H   0  0  0  0  0  0  0  0  0  0  0  0
   -5.3455    2.3882    0.0000 H   0  0  0  0  0  0  0  0  0  0  0  0
   -6.0860    2.3882    0.0000 H   0  0  0  0  0  0  0  0  0  0  0  0
   -5.3716    0.5012    0.0000 H   0  0  0  0  0  0  0  0  0  0  0  0
   -4.6310    0.5012    0.0000 H   0  0  0  0  0  0  0  0  0  0  0  0
   -3.9166    2.3882    0.0000 H   0  0  0  0  0  0  0  0  0  0  0  0
   -4.6571    2.3882    0.0000 H   0  0  0  0  0  0  0  0  0  0  0  0
   -3.9426    0.5012    0.0000 H   0  0  0  0  0  0  0  0  0  0  0  0
   -3.2021    0.5012    0.0000 H   0  0  0  0  0  0  0  0  0  0  0  0
   -2.4876    2.3882    0.0000 H   0  0  0  0  0  0  0  0  0  0  0  0
   -3.2281    2.3882    0.0000 H   0  0  0  0  0  0  0  0  0  0  0  0
   -2.5137    0.5012    0.0000 H   0  0  0  0  0  0  0  0  0  0  0  0
   -1.7732    0.5012    0.0000 H   0  0  0  0  0  0  0  0  0  0  0  0
   -1.0847    0.5012    0.0000 H   0  0  0  0  0  0  0  0  0  0  0  0
   -0.3442    0.5012    0.0000 H   0  0  0  0  0  0  0  0  0  0  0  0
   -0.7145    2.8885    0.0000 H   0  0  0  0  0  0  0  0  0  0  0  0
    1.5395    3.7135    0.0000 H   0  0  0  0  0  0  0  0  0  0  0  0
    0.7145    4.5385    0.0000 H   0  0  0  0  0  0  0  0  0  0  0  0
   -0.1105    3.7135    0.0000 H   0  0  0  0  0  0  0  0  0  0  0  0
    2.8579    2.4760    0.0000 H   0  0  0  0  0  0  0  0  0  0  0  0
    1.7732    0.5012    0.0000 H   0  0  0  0  0  0  0  0  0  0  0  0
    2.5137    0.5012    0.0000 H   0  0  0  0  0  0  0  0  0  0  0  0
    3.2021    0.5012    0.0000 H   0  0  0  0  0  0  0  0  0  0  0  0
    3.9426    0.5012    0.0000 H   0  0  0  0  0  0  0  0  0  0  0  0
    4.6571    2.3882    0.0000 H   0  0  0  0  0  0  0  0  0  0  0  0
    3.9166    2.3882    0.0000 H   0  0  0  0  0  0  0  0  0  0  0  0
    4.6310    0.5012    0.0000 H   0  0  0  0  0  0  0  0  0  0  0  0
    5.3716    0.5012    0.0000 H   0  0  0  0  0  0  0  0  0  0  0  0
    6.0860    2.3882    0.0000 H   0  0  0  0  0  0  0  0  0  0  0  0
    5.3455    2.3882    0.0000 H   0  0  0  0  0  0  0  0  0  0  0  0
    6.0600    0.5012    0.0000 H   0  0  0  0  0  0  0  0  0  0  0  0
    6.8005    0.5012    0.0000 H   0  0  0  0  0  0  0  0  0  0  0  0
    7.5150    2.3882    0.0000 H   0  0  0  0  0  0  0  0  0  0  0  0
    6.7745    2.3882    0.0000 H   0  0  0  0  0  0  0  0  0  0  0  0
    7.4889    0.5012    0.0000 H   0  0  0  0  0  0  0  0  0  0  0  0
    8.2294    0.5012    0.0000 H   0  0  0  0  0  0  0  0  0  0  0  0
    8.9862    0.9365    0.0000 H   0  0  0  0  0  0  0  0  0  0  0  0
    9.2881    2.0635    0.0000 H   0  0  0  0  0  0  0  0  0  0  0  0
    8.1612    2.3654    0.0000 H   0  0  0  0  0  0  0  0  0  0  0  0
    0.7145    0.4135    0.0000 H   0  0  0  0  0  0  0  0  0  0  0  0
  1  2  1  0  0  0  0
  2  3  1  0  0  0  0
  3  4  1  0  0  0  0
  4  5  1  0  0  0  0
  5  6  1  0  0  0  0
  6  7  1  0  0  0  0
  7  8  1  0  0  0  0
  8  9  1  0  0  0  0
  9 10  1  0  0  0  0
 10 11  1  0  0  0  0
 11 12  4  0  0  0  0
 12 13  4  0  0  0  0
 13 14  1  0  0  0  0
 13 15  4  0  0  0  0
 15 16  1  0  0  0  0
 15 17  4  0  0  0  0
 17 18  1  0  0  0  0
 18 19  1  0  0  0  0
 19 20  1  0  0  0  0
 20 21  1  0  0  0  0
 21 22  1  0  0  0  0
 22 23  1  0  0  0  0
 23 24  1  0  0  0  0
 24 25  1  0  0  0  0
 25 26  1  0  0  0  0
 26 27  1  0  0  0  0
 17 28  4  0  0  0  0
 11 28  4  0  0  0  0
  1 29  1  0  0  0  0
  1 30  1  0  0  0  0
  1 31  1  0  0  0  0
  2 32  1  0  0  0  0
  2 33  1  0  0  0  0
  3 34  1  0  0  0  0
  3 35  1  0  0  0  0
  4 36  1  0  0  0  0
  4 37  1  0  0  0  0
  5 38  1  0  0  0  0
  5 39  1  0  0  0  0
  6 40  1  0  0  0  0
  6 41  1  0  0  0  0
  7 42  1  0  0  0  0
  7 43  1  0  0  0  0
  8 44  1  0  0  0  0
  8 45  1  0  0  0  0
 10 46  1  0  0  0  0
 10 47  1  0  0  0  0
 12 48  1  0  0  0  0
 14 49  1  0  0  0  0
 14 50  1  0  0  0  0
 14 51  1  0  0  0  0
 16 52  1  0  0  0  0
 18 53  1  0  0  0  0
 18 54  1  0  0  0  0
 20 55  1  0  0  0  0
 20 56  1  0  0  0  0
 21 57  1  0  0  0  0
 21 58  1  0  0  0  0
 22 59  1  0  0  0  0
 22 60  1  0  0  0  0
 23 61  1  0  0  0  0
 23 62  1  0  0  0  0
 24 63  1  0  0  0  0
 24 64  1  0  0  0  0
 25 65  1  0  0  0  0
 25 66  1  0  0  0  0
 26 67  1  0  0  0  0
 26 68  1  0  0  0  0
 27 69  1  0  0  0  0
 27 70  1  0  0  0  0
 27 71  1  0  0  0  0
 28 72  1  0  0  0  0
M  END
>  <InChIKey>
GAODDBNJCKQQDY-UHFFFAOYSA-N

>  <UN GHS>
Non-irritant

>  <CASRN>
110553-27-0

> <Outcome>
0

>  <Index>
211

>  <StandardizerResult>
Dearomatize (ID: Dearomatize)
Clear Stereo (ID: ClearStereo)
Wedge Clean (ID: WedgeClean)
Mesomerize (ID: Mesomerize)
Tautomerize (ID: Tautomerize)
Aromatize (ID: Aromatize)
Add Explicit Hydrogens (ID: AddExplicitH)
Neutralize (ID: Neutralize)
Clean 2D (ID: Clean2D)

> <knn Distance>
3.87298345565796

> <CpId>
211

$$$$
232
  Mrv1532301301811342D          

 63 63  0  0  0  0            999 V2000
    8.4721   -7.4952    0.0000 C   0  0  0  0  0  0  0  0  0  0  0  0
    9.1866   -7.9077    0.0000 C   0  0  0  0  0  0  0  0  0  0  0  0
    9.1866   -8.7327    0.0000 C   0  0  0  0  0  0  0  0  0  0  0  0
    9.9011   -7.4952    0.0000 C   0  0  0  0  0  0  0  0  0  0  0  0
   10.6156   -7.9077    0.0000 C   0  0  0  0  0  0  0  0  0  0  0  0
   11.3300   -7.4952    0.0000 C   0  0  0  0  0  0  0  0  0  0  0  0
   12.0445   -7.9077    0.0000 C   0  0  0  0  0  0  0  0  0  0  0  0
   12.7590   -7.4952    0.0000 C   0  0  0  0  0  0  0  0  0  0  0  0
   13.4734   -7.9077    0.0000 C   0  0  0  0  0  0  0  0  0  0  0  0
   14.1879   -7.4952    0.0000 C   0  0  0  0  0  0  0  0  0  0  0  0
   14.9024   -7.9077    0.0000 C   0  0  0  0  0  0  0  0  0  0  0  0
   15.6169   -7.4952    0.0000 C   0  0  0  0  0  0  0  0  0  0  0  0
   16.3313   -7.9077    0.0000 C   0  0  0  0  0  0  0  0  0  0  0  0
   17.0458   -7.4952    0.0000 C   0  0  0  0  0  0  0  0  0  0  0  0
   17.7603   -7.9077    0.0000 C   0  0  0  0  0  0  0  0  0  0  0  0
   18.4747   -7.4952    0.0000 C   0  0  0  0  0  0  0  0  0  0  0  0
   19.1892   -7.9077    0.0000 C   0  0  0  0  0  0  0  0  0  0  0  0
   19.9037   -7.4952    0.0000 C   0  0  0  0  0  0  0  0  0  0  0  0
   20.6182   -7.9077    0.0000 C   0  0  0  0  0  0  0  0  0  0  0  0
   21.3718   -7.5722    0.0000 C   0  0  0  0  0  0  0  0  0  0  0  0
   21.9239   -8.1853    0.0000 C   0  0  0  0  0  0  0  0  0  0  0  0
   22.7443   -8.0990    0.0000 O   0  0  0  0  0  0  0  0  0  0  0  0
   21.5114   -8.8997    0.0000 O   0  0  0  0  0  0  0  0  0  0  0  0
   20.7044   -8.7282    0.0000 C   0  0  0  0  0  0  0  0  0  0  0  0
   20.0913   -9.2803    0.0000 O   0  0  0  0  0  0  0  0  0  0  0  0
    8.8846   -6.7808    0.0000 H   0  0  0  0  0  0  0  0  0  0  0  0
    7.7577   -7.0827    0.0000 H   0  0  0  0  0  0  0  0  0  0  0  0
    8.0596   -8.2097    0.0000 H   0  0  0  0  0  0  0  0  0  0  0  0
    8.4721   -8.3202    0.0000 H   0  0  0  0  0  0  0  0  0  0  0  0
    8.6033   -9.3161    0.0000 H   0  0  0  0  0  0  0  0  0  0  0  0
    9.5991   -9.4472    0.0000 H   0  0  0  0  0  0  0  0  0  0  0  0
    9.9835   -8.5192    0.0000 H   0  0  0  0  0  0  0  0  0  0  0  0
   10.2714   -6.7580    0.0000 H   0  0  0  0  0  0  0  0  0  0  0  0
    9.5308   -6.7580    0.0000 H   0  0  0  0  0  0  0  0  0  0  0  0
   11.1124   -8.5664    0.0000 H   0  0  0  0  0  0  0  0  0  0  0  0
   10.6156   -7.0827    0.0000 H   0  0  0  0  0  0  0  0  0  0  0  0
   11.9620   -6.9649    0.0000 H   0  0  0  0  0  0  0  0  0  0  0  0
   11.4733   -6.6828    0.0000 H   0  0  0  0  0  0  0  0  0  0  0  0
   11.6742   -8.6450    0.0000 H   0  0  0  0  0  0  0  0  0  0  0  0
   12.4148   -8.6450    0.0000 H   0  0  0  0  0  0  0  0  0  0  0  0
   13.4820   -7.0980    0.0000 H   0  0  0  0  0  0  0  0  0  0  0  0
   12.7939   -6.6710    0.0000 H   0  0  0  0  0  0  0  0  0  0  0  0
   13.1032   -8.6450    0.0000 H   0  0  0  0  0  0  0  0  0  0  0  0
   13.8437   -8.6450    0.0000 H   0  0  0  0  0  0  0  0  0  0  0  0
   14.8176   -6.9622    0.0000 H   0  0  0  0  0  0  0  0  0  0  0  0
   14.3257   -6.6818    0.0000 H   0  0  0  0  0  0  0  0  0  0  0  0
   14.5321   -8.6450    0.0000 H   0  0  0  0  0  0  0  0  0  0  0  0
   15.2726   -8.6450    0.0000 H   0  0  0  0  0  0  0  0  0  0  0  0
   16.3400   -7.0982    0.0000 H   0  0  0  0  0  0  0  0  0  0  0  0
   15.6524   -6.6710    0.0000 H   0  0  0  0  0  0  0  0  0  0  0  0
   15.9611   -8.6450    0.0000 H   0  0  0  0  0  0  0  0  0  0  0  0
   16.7016   -8.6450    0.0000 H   0  0  0  0  0  0  0  0  0  0  0  0
   17.6755   -6.9622    0.0000 H   0  0  0  0  0  0  0  0  0  0  0  0
   17.1835   -6.6818    0.0000 H   0  0  0  0  0  0  0  0  0  0  0  0
   17.3900   -8.6450    0.0000 H   0  0  0  0  0  0  0  0  0  0  0  0
   18.1305   -8.6450    0.0000 H   0  0  0  0  0  0  0  0  0  0  0  0
   19.1979   -7.0982    0.0000 H   0  0  0  0  0  0  0  0  0  0  0  0
   18.5102   -6.6710    0.0000 H   0  0  0  0  0  0  0  0  0  0  0  0
   18.8190   -8.6450    0.0000 H   0  0  0  0  0  0  0  0  0  0  0  0
   19.5595   -8.6450    0.0000 H   0  0  0  0  0  0  0  0  0  0  0  0
   20.3122   -6.7785    0.0000 H   0  0  0  0  0  0  0  0  0  0  0  0
   21.9021   -6.9402    0.0000 H   0  0  0  0  0  0  0  0  0  0  0  0
   21.1444   -6.7791    0.0000 H   0  0  0  0  0  0  0  0  0  0  0  0
  1  2  1  0  0  0  0
  2  3  1  0  0  0  0
  2  4  1  0  0  0  0
  4  5  1  0  0  0  0
  5  6  1  0  0  0  0
  6  7  1  0  0  0  0
  7  8  1  0  0  0  0
  8  9  1  0  0  0  0
  9 10  1  0  0  0  0
 10 11  1  0  0  0  0
 11 12  1  0  0  0  0
 12 13  1  0  0  0  0
 13 14  1  0  0  0  0
 14 15  1  0  0  0  0
 15 16  1  0  0  0  0
 16 17  1  0  0  0  0
 18 17  1  4  0  0  0
 18 19  2  0  0  0  0
 19 20  1  0  0  0  0
 20 21  1  0  0  0  0
 21 22  2  0  0  0  0
 21 23  1  0  0  0  0
 23 24  1  0  0  0  0
 19 24  1  0  0  0  0
 24 25  2  0  0  0  0
  1 26  1  0  0  0  0
  1 27  1  0  0  0  0
  1 28  1  0  0  0  0
  2 29  1  0  0  0  0
  3 30  1  0  0  0  0
  3 31  1  0  0  0  0
  3 32  1  0  0  0  0
  4 33  1  0  0  0  0
  4 34  1  0  0  0  0
  5 35  1  0  0  0  0
  5 36  1  0  0  0  0
  6 37  1  0  0  0  0
  6 38  1  0  0  0  0
  7 39  1  0  0  0  0
  7 40  1  0  0  0  0
  8 41  1  0  0  0  0
  8 42  1  0  0  0  0
  9 43  1  0  0  0  0
  9 44  1  0  0  0  0
 10 45  1  0  0  0  0
 10 46  1  0  0  0  0
 11 47  1  0  0  0  0
 11 48  1  0  0  0  0
 12 49  1  0  0  0  0
 12 50  1  0  0  0  0
 13 51  1  0  0  0  0
 13 52  1  0  0  0  0
 14 53  1  0  0  0  0
 14 54  1  0  0  0  0
 15 55  1  0  0  0  0
 15 56  1  0  0  0  0
 16 57  1  0  0  0  0
 16 58  1  0  0  0  0
 17 59  1  0  0  0  0
 17 60  1  0  0  0  0
 18 61  1  0  0  0  0
 20 62  1  0  0  0  0
 20 63  1  0  0  0  0
M  END
>  <InChIKey>
GPFVWKXABQQNEM-UHFFFAOYSA-N

>  <UN GHS>
Non-irritant

>  <CASRN>
68784-12-3

> <Outcome>
0

>  <Index>
232

>  <StandardizerResult>
Clear Stereo (ID: ClearStereo)
Wedge Clean (ID: WedgeClean)
Mesomerize (ID: Mesomerize)
Tautomerize (ID: Tautomerize)
Add Explicit Hydrogens (ID: AddExplicitH)
Neutralize (ID: Neutralize)
Clean 2D (ID: Clean2D)

> <knn Distance>
3.87298345565796

> <CpId>
232

$$$$
276
  Mrv1532301301811342D          

 28 28  0  0  0  0            999 V2000
    0.0000    3.3000    0.0000 C   0  0  0  0  0  0  0  0  0  0  0  0
    0.0000    2.4750    0.0000 O   0  0  0  0  0  0  0  0  0  0  0  0
    0.7145    2.0625    0.0000 C   0  0  0  0  0  0  0  0  0  0  0  0
    1.4289    2.4750    0.0000 O   0  0  0  0  0  0  0  0  0  0  0  0
    0.7145    1.2375    0.0000 C   0  0  0  0  0  0  0  0  0  0  0  0
    1.4289    0.8250    0.0000 C   0  0  0  0  0  0  0  0  0  0  0  0
    1.4289   -0.0000    0.0000 C   0  0  0  0  0  0  0  0  0  0  0  0
    0.7145   -0.4125    0.0000 C   0  0  0  0  0  0  0  0  0  0  0  0
    0.0000   -0.0000    0.0000 C   0  0  0  0  0  0  0  0  0  0  0  0
    0.0000    0.8250    0.0000 C   0  0  0  0  0  0  0  0  0  0  0  0
   -0.7145   -0.4125    0.0000 S   0  0  0  0  0  0  0  0  0  0  0  0
   -1.4289   -0.8250    0.0000 O   0  0  0  0  0  0  0  0  0  0  0  0
   -1.1270    0.3020    0.0000 O   0  0  0  0  0  0  0  0  0  0  0  0
   -0.3020   -1.1270    0.0000 O   0  0  0  0  0  0  0  0  0  0  0  0
    2.1434   -0.4125    0.0000 C   0  0  0  0  0  0  0  0  0  0  0  0
    2.8579   -0.0000    0.0000 O   0  0  0  0  0  0  0  0  0  0  0  0
    2.1434   -1.2375    0.0000 O   0  0  0  0  0  0  0  0  0  0  0  0
    2.8579   -1.6500    0.0000 C   0  0  0  0  0  0  0  0  0  0  0  0
    0.8250    3.3000    0.0000 H   0  0  0  0  0  0  0  0  0  0  0  0
    0.0000    4.1250    0.0000 H   0  0  0  0  0  0  0  0  0  0  0  0
   -0.8250    3.3000    0.0000 H   0  0  0  0  0  0  0  0  0  0  0  0
    2.1434    1.2375    0.0000 H   0  0  0  0  0  0  0  0  0  0  0  0
    0.7145   -1.2375    0.0000 H   0  0  0  0  0  0  0  0  0  0  0  0
   -0.7145    1.2375    0.0000 H   0  0  0  0  0  0  0  0  0  0  0  0
   -2.1434   -0.4125    0.0000 H   0  0  0  0  0  0  0  0  0  0  0  0
    2.4454   -2.3645    0.0000 H   0  0  0  0  0  0  0  0  0  0  0  0
    3.5724   -2.0625    0.0000 H   0  0  0  0  0  0  0  0  0  0  0  0
    3.2704   -0.9355    0.0000 H   0  0  0  0  0  0  0  0  0  0  0  0
  1  2  1  0  0  0  0
  2  3  1  0  0  0  0
  3  4  2  0  0  0  0
  3  5  1  0  0  0  0
  5  6  4  0  0  0  0
  6  7  4  0  0  0  0
  7  8  4  0  0  0  0
  8  9  4  0  0  0  0
  9 10  4  0  0  0  0
  5 10  4  0  0  0  0
  9 11  1  0  0  0  0
 11 12  1  0  0  0  0
 11 13  2  0  0  0  0
 11 14  2  0  0  0  0
  7 15  1  0  0  0  0
 15 16  2  0  0  0  0
 15 17  1  0  0  0  0
 17 18  1  0  0  0  0
  1 19  1  0  0  0  0
  1 20  1  0  0  0  0
  1 21  1  0  0  0  0
  6 22  1  0  0  0  0
  8 23  1  0  0  0  0
 10 24  1  0  0  0  0
 12 25  1  0  0  0  0
 18 26  1  0  0  0  0
 18 27  1  0  0  0  0
 18 28  1  0  0  0  0
M  END
>  <InChIKey>
HTXMGVTWXZBZNC-UHFFFAOYSA-M

>  <UN GHS>
Non-irritant

>  <CASRN>
3965-55-7

> <Outcome>
0

>  <Index>
276

>  <StandardizerResult>
Dearomatize (ID: Dearomatize)
Clear Stereo (ID: ClearStereo)
Wedge Clean (ID: WedgeClean)
Mesomerize (ID: Mesomerize)
Tautomerize (ID: Tautomerize)
Aromatize (ID: Aromatize)
Add Explicit Hydrogens (ID: AddExplicitH)
Neutralize (ID: Neutralize)
Clean 2D (ID: Clean2D)

> <knn Distance>
3.87298345565796

> <CpId>
276

$$$$
280
  Mrv1532301301811342D          

 76 76  0  0  0  0            999 V2000
   -3.1075  -13.6292    0.0000 C   0  0  0  0  0  0  0  0  0  0  0  0
   -2.3930  -13.2167    0.0000 C   0  0  0  0  0  0  0  0  0  0  0  0
   -1.6786  -13.6292    0.0000 C   0  0  0  0  0  0  0  0  0  0  0  0
   -0.9641  -13.2167    0.0000 C   0  0  0  0  0  0  0  0  0  0  0  0
   -0.2496  -13.6292    0.0000 C   0  0  0  0  0  0  0  0  0  0  0  0
    0.4649  -13.2167    0.0000 C   0  0  0  0  0  0  0  0  0  0  0  0
    1.1793  -13.6292    0.0000 C   0  0  0  0  0  0  0  0  0  0  0  0
    1.8938  -13.2167    0.0000 C   0  0  0  0  0  0  0  0  0  0  0  0
    2.6083  -13.6292    0.0000 C   0  0  0  0  0  0  0  0  0  0  0  0
    3.3227  -13.2167    0.0000 C   0  0  0  0  0  0  0  0  0  0  0  0
    4.0372  -13.6292    0.0000 C   0  0  0  0  0  0  0  0  0  0  0  0
    4.7517  -13.2167    0.0000 C   0  0  0  0  0  0  0  0  0  0  0  0
    5.4661  -13.6292    0.0000 C   0  0  0  0  0  0  0  0  0  0  0  0
    6.1806  -13.2167    0.0000 C   0  0  0  0  0  0  0  0  0  0  0  0
    6.8951  -13.6292    0.0000 C   0  0  0  0  0  0  0  0  0  0  0  0
    7.6096  -13.2167    0.0000 C   0  0  0  0  0  0  0  0  0  0  0  0
    8.3240  -13.6292    0.0000 C   0  0  0  0  0  0  0  0  0  0  0  0
    9.0385  -13.2167    0.0000 C   0  0  0  0  0  0  0  0  0  0  0  0
    9.0385  -12.3917    0.0000 O   0  0  0  0  0  0  0  0  0  0  0  0
    9.7530  -13.6292    0.0000 O   0  0  0  0  0  0  0  0  0  0  0  0
   10.4674  -13.2167    0.0000 C   0  0  0  0  0  0  0  0  0  0  0  0
   11.1819  -13.6292    0.0000 C   0  0  0  0  0  0  0  0  0  0  0  0
   11.1819  -14.4542    0.0000 O   0  0  0  0  0  0  0  0  0  0  0  0
   11.8964  -13.2167    0.0000 C   0  0  0  0  0  0  0  0  0  0  0  0
   11.9826  -12.3962    0.0000 O   0  0  0  0  0  0  0  0  0  0  0  0
   12.7896  -12.2247    0.0000 C   0  0  0  0  0  0  0  0  0  0  0  0
   13.2021  -12.9392    0.0000 C   0  0  0  0  0  0  0  0  0  0  0  0
   14.0226  -13.0254    0.0000 O   0  0  0  0  0  0  0  0  0  0  0  0
   12.6501  -13.5523    0.0000 C   0  0  0  0  0  0  0  0  0  0  0  0
   12.8216  -14.3593    0.0000 O   0  0  0  0  0  0  0  0  0  0  0  0
   -3.5200  -12.9148    0.0000 H   0  0  0  0  0  0  0  0  0  0  0  0
   -3.8220  -14.0417    0.0000 H   0  0  0  0  0  0  0  0  0  0  0  0
   -2.6950  -14.3437    0.0000 H   0  0  0  0  0  0  0  0  0  0  0  0
   -2.0228  -12.4795    0.0000 H   0  0  0  0  0  0  0  0  0  0  0  0
   -2.7633  -12.4795    0.0000 H   0  0  0  0  0  0  0  0  0  0  0  0
   -2.0488  -14.3665    0.0000 H   0  0  0  0  0  0  0  0  0  0  0  0
   -1.3083  -14.3665    0.0000 H   0  0  0  0  0  0  0  0  0  0  0  0
   -0.5938  -12.4795    0.0000 H   0  0  0  0  0  0  0  0  0  0  0  0
   -1.3344  -12.4795    0.0000 H   0  0  0  0  0  0  0  0  0  0  0  0
   -0.6199  -14.3665    0.0000 H   0  0  0  0  0  0  0  0  0  0  0  0
    0.1206  -14.3665    0.0000 H   0  0  0  0  0  0  0  0  0  0  0  0
    0.8351  -12.4795    0.0000 H   0  0  0  0  0  0  0  0  0  0  0  0
    0.0946  -12.4795    0.0000 H   0  0  0  0  0  0  0  0  0  0  0  0
    0.8091  -14.3665    0.0000 H   0  0  0  0  0  0  0  0  0  0  0  0
    1.5496  -14.3665    0.0000 H   0  0  0  0  0  0  0  0  0  0  0  0
    2.2641  -12.4795    0.0000 H   0  0  0  0  0  0  0  0  0  0  0  0
    1.5235  -12.4795    0.0000 H   0  0  0  0  0  0  0  0  0  0  0  0
    2.2380  -14.3665    0.0000 H   0  0  0  0  0  0  0  0  0  0  0  0
    2.9785  -14.3665    0.0000 H   0  0  0  0  0  0  0  0  0  0  0  0
    3.6930  -12.4795    0.0000 H   0  0  0  0  0  0  0  0  0  0  0  0
    2.9525  -12.4795    0.0000 H   0  0  0  0  0  0  0  0  0  0  0  0
    3.6669  -14.3665    0.0000 H   0  0  0  0  0  0  0  0  0  0  0  0
    4.4075  -14.3665    0.0000 H   0  0  0  0  0  0  0  0  0  0  0  0
    5.1219  -12.4795    0.0000 H   0  0  0  0  0  0  0  0  0  0  0  0
    4.3814  -12.4795    0.0000 H   0  0  0  0  0  0  0  0  0  0  0  0
    5.0959  -14.3665    0.0000 H   0  0  0  0  0  0  0  0  0  0  0  0
    5.8364  -14.3665    0.0000 H   0  0  0  0  0  0  0  0  0  0  0  0
    6.5509  -12.4795    0.0000 H   0  0  0  0  0  0  0  0  0  0  0  0
    5.8104  -12.4795    0.0000 H   0  0  0  0  0  0  0  0  0  0  0  0
    6.5248  -14.3665    0.0000 H   0  0  0  0  0  0  0  0  0  0  0  0
    7.2653  -14.3665    0.0000 H   0  0  0  0  0  0  0  0  0  0  0  0
    7.9798  -12.4795    0.0000 H   0  0  0  0  0  0  0  0  0  0  0  0
    7.2393  -12.4795    0.0000 H   0  0  0  0  0  0  0  0  0  0  0  0
    7.9538  -14.3665    0.0000 H   0  0  0  0  0  0  0  0  0  0  0  0
    8.6943  -14.3665    0.0000 H   0  0  0  0  0  0  0  0  0  0  0  0
   10.8377  -12.4795    0.0000 H   0  0  0  0  0  0  0  0  0  0  0  0
   10.0972  -12.4795    0.0000 H   0  0  0  0  0  0  0  0  0  0  0  0
   10.4674  -14.0417    0.0000 H   0  0  0  0  0  0  0  0  0  0  0  0
   11.5944  -15.1687    0.0000 H   0  0  0  0  0  0  0  0  0  0  0  0
   11.9396  -14.0406    0.0000 H   0  0  0  0  0  0  0  0  0  0  0  0
   13.4397  -11.7168    0.0000 H   0  0  0  0  0  0  0  0  0  0  0  0
   12.7320  -11.4017    0.0000 H   0  0  0  0  0  0  0  0  0  0  0  0
   13.4977  -13.7094    0.0000 H   0  0  0  0  0  0  0  0  0  0  0  0
   14.7806  -12.6998    0.0000 H   0  0  0  0  0  0  0  0  0  0  0  0
   12.4785  -12.7453    0.0000 H   0  0  0  0  0  0  0  0  0  0  0  0
   12.9931  -15.1662    0.0000 H   0  0  0  0  0  0  0  0  0  0  0  0
  1  2  1  0  0  0  0
  2  3  1  0  0  0  0
  3  4  1  0  0  0  0
  4  5  1  0  0  0  0
  5  6  1  0  0  0  0
  6  7  1  0  0  0  0
  7  8  1  0  0  0  0
  8  9  1  0  0  0  0
  9 10  1  0  0  0  0
 10 11  1  0  0  0  0
 11 12  1  0  0  0  0
 12 13  1  0  0  0  0
 13 14  1  0  0  0  0
 14 15  1  0  0  0  0
 15 16  1  0  0  0  0
 16 17  1  0  0  0  0
 17 18  1  0  0  0  0
 18 19  2  0  0  0  0
 18 20  1  0  0  0  0
 20 21  1  0  0  0  0
 21 22  1  0  0  0  0
 22 23  1  0  0  0  0
 22 24  1  0  0  0  0
 24 25  1  0  0  0  0
 25 26  1  0  0  0  0
 26 27  1  0  0  0  0
 27 28  1  0  0  0  0
 27 29  1  0  0  0  0
 24 29  1  0  0  0  0
 29 30  1  0  0  0  0
  1 31  1  0  0  0  0
  1 32  1  0  0  0  0
  1 33  1  0  0  0  0
  2 34  1  0  0  0  0
  2 35  1  0  0  0  0
  3 36  1  0  0  0  0
  3 37  1  0  0  0  0
  4 38  1  0  0  0  0
  4 39  1  0  0  0  0
  5 40  1  0  0  0  0
  5 41  1  0  0  0  0
  6 42  1  0  0  0  0
  6 43  1  0  0  0  0
  7 44  1  0  0  0  0
  7 45  1  0  0  0  0
  8 46  1  0  0  0  0
  8 47  1  0  0  0  0
  9 48  1  0  0  0  0
  9 49  1  0  0  0  0
 10 50  1  0  0  0  0
 10 51  1  0  0  0  0
 11 52  1  0  0  0  0
 11 53  1  0  0  0  0
 12 54  1  0  0  0  0
 12 55  1  0  0  0  0
 13 56  1  0  0  0  0
 13 57  1  0  0  0  0
 14 58  1  0  0  0  0
 14 59  1  0  0  0  0
 15 60  1  0  0  0  0
 15 61  1  0  0  0  0
 16 62  1  0  0  0  0
 16 63  1  0  0  0  0
 17 64  1  0  0  0  0
 17 65  1  0  0  0  0
 21 66  1  0  0  0  0
 21 67  1  0  0  0  0
 22 68  1  0  0  0  0
 23 69  1  0  0  0  0
 24 70  1  0  0  0  0
 26 71  1  0  0  0  0
 26 72  1  0  0  0  0
 27 73  1  0  0  0  0
 28 74  1  0  0  0  0
 29 75  1  0  0  0  0
 30 76  1  0  0  0  0
M  END
>  <InChIKey>
HVUMOYIDDBPOLL-IIZJTUPISA-N

>  <UN GHS>
Non-irritant

>  <CASRN>
1338-41-6

> <Outcome>
0

>  <Index>
280

>  <StandardizerResult>
Clear Stereo (ID: ClearStereo)
Wedge Clean (ID: WedgeClean)
Mesomerize (ID: Mesomerize)
Tautomerize (ID: Tautomerize)
Add Explicit Hydrogens (ID: AddExplicitH)
Neutralize (ID: Neutralize)
Clean 2D (ID: Clean2D)

> <knn Distance>
3.87298345565796

> <CpId>
280

$$$$
281
  Mrv1532301301811342D          

 74 77  0  0  0  0            999 V2000
    6.9727   -2.1441    0.0000 C   0  0  0  0  0  0  0  0  0  0  0  0
    7.6872   -2.5566    0.0000 C   0  0  0  0  0  0  0  0  0  0  0  0
    7.6872   -3.3816    0.0000 C   0  0  0  0  0  0  0  0  0  0  0  0
    8.4017   -2.1441    0.0000 C   0  0  0  0  0  0  0  0  0  0  0  0
    9.1161   -2.5566    0.0000 C   0  0  0  0  0  0  0  0  0  0  0  0
    9.8306   -2.1441    0.0000 C   0  0  0  0  0  0  0  0  0  0  0  0
   10.5451   -2.5566    0.0000 C   0  0  0  0  0  0  0  0  0  0  0  0
   10.5451   -3.3816    0.0000 C   0  0  0  0  0  0  0  0  0  0  0  0
   11.2595   -2.1441    0.0000 C   0  0  0  0  0  0  0  0  0  0  0  0
   11.3458   -1.3236    0.0000 C   0  0  0  0  0  0  0  0  0  0  0  0
   12.1528   -1.1521    0.0000 C   0  0  0  0  0  0  0  0  0  0  0  0
   12.5653   -1.8666    0.0000 C   0  0  0  0  0  0  0  0  0  0  0  0
   13.3722   -2.0381    0.0000 C   0  0  0  0  0  0  0  0  0  0  0  0
   13.9243   -1.4250    0.0000 C   0  0  0  0  0  0  0  0  0  0  0  0
   14.7312   -1.5965    0.0000 C   0  0  0  0  0  0  0  0  0  0  0  0
   14.9862   -2.3811    0.0000 C   0  0  0  0  0  0  0  0  0  0  0  0
   15.7931   -2.5527    0.0000 C   0  0  0  0  0  0  0  0  0  0  0  0
   16.0481   -3.3373    0.0000 C   0  0  0  0  0  0  0  0  0  0  0  0
   16.8551   -3.5088    0.0000 O   0  0  0  0  0  0  0  0  0  0  0  0
   15.4960   -3.9504    0.0000 C   0  0  0  0  0  0  0  0  0  0  0  0
   14.6891   -3.7789    0.0000 C   0  0  0  0  0  0  0  0  0  0  0  0
   14.4341   -2.9942    0.0000 C   0  0  0  0  0  0  0  0  0  0  0  0
   13.8821   -3.6073    0.0000 C   0  0  0  0  0  0  0  0  0  0  0  0
   13.6272   -2.8227    0.0000 C   0  0  0  0  0  0  0  0  0  0  0  0
   13.0751   -3.4358    0.0000 C   0  0  0  0  0  0  0  0  0  0  0  0
   12.2682   -3.2643    0.0000 C   0  0  0  0  0  0  0  0  0  0  0  0
   12.0132   -2.4797    0.0000 C   0  0  0  0  0  0  0  0  0  0  0  0
   11.4001   -3.0317    0.0000 C   0  0  0  0  0  0  0  0  0  0  0  0
    7.3852   -1.4296    0.0000 H   0  0  0  0  0  0  0  0  0  0  0  0
    6.2583   -1.7316    0.0000 H   0  0  0  0  0  0  0  0  0  0  0  0
    6.5602   -2.8586    0.0000 H   0  0  0  0  0  0  0  0  0  0  0  0
    6.9727   -2.9691    0.0000 H   0  0  0  0  0  0  0  0  0  0  0  0
    7.1038   -3.9650    0.0000 H   0  0  0  0  0  0  0  0  0  0  0  0
    8.0997   -4.0961    0.0000 H   0  0  0  0  0  0  0  0  0  0  0  0
    8.4841   -3.1681    0.0000 H   0  0  0  0  0  0  0  0  0  0  0  0
    8.7719   -1.4069    0.0000 H   0  0  0  0  0  0  0  0  0  0  0  0
    8.0314   -1.4069    0.0000 H   0  0  0  0  0  0  0  0  0  0  0  0
    9.6129   -3.2153    0.0000 H   0  0  0  0  0  0  0  0  0  0  0  0
    9.1161   -1.7316    0.0000 H   0  0  0  0  0  0  0  0  0  0  0  0
   10.4626   -1.6138    0.0000 H   0  0  0  0  0  0  0  0  0  0  0  0
    9.9739   -1.3316    0.0000 H   0  0  0  0  0  0  0  0  0  0  0  0
    9.8306   -2.9691    0.0000 H   0  0  0  0  0  0  0  0  0  0  0  0
    9.9415   -3.9440    0.0000 H   0  0  0  0  0  0  0  0  0  0  0  0
   10.6323   -4.2020    0.0000 H   0  0  0  0  0  0  0  0  0  0  0  0
   11.2534   -3.8045    0.0000 H   0  0  0  0  0  0  0  0  0  0  0  0
   11.9740   -1.7316    0.0000 H   0  0  0  0  0  0  0  0  0  0  0  0
   11.4262   -0.5025    0.0000 H   0  0  0  0  0  0  0  0  0  0  0  0
   10.8634   -0.6543    0.0000 H   0  0  0  0  0  0  0  0  0  0  0  0
   12.8029   -0.6442    0.0000 H   0  0  0  0  0  0  0  0  0  0  0  0
   12.0952   -0.3291    0.0000 H   0  0  0  0  0  0  0  0  0  0  0  0
   12.8202   -2.6512    0.0000 H   0  0  0  0  0  0  0  0  0  0  0  0
   13.1173   -1.2535    0.0000 H   0  0  0  0  0  0  0  0  0  0  0  0
   14.3614   -0.7254    0.0000 H   0  0  0  0  0  0  0  0  0  0  0  0
   13.8094   -0.6080    0.0000 H   0  0  0  0  0  0  0  0  0  0  0  0
   15.5040   -1.3076    0.0000 H   0  0  0  0  0  0  0  0  0  0  0  0
   16.5616   -2.2525    0.0000 H   0  0  0  0  0  0  0  0  0  0  0  0
   16.0113   -1.7570    0.0000 H   0  0  0  0  0  0  0  0  0  0  0  0
   16.3030   -4.1219    0.0000 H   0  0  0  0  0  0  0  0  0  0  0  0
   17.6397   -3.2539    0.0000 H   0  0  0  0  0  0  0  0  0  0  0  0
   15.0589   -4.6500    0.0000 H   0  0  0  0  0  0  0  0  0  0  0  0
   15.6109   -4.7674    0.0000 H   0  0  0  0  0  0  0  0  0  0  0  0
   14.1643   -4.4155    0.0000 H   0  0  0  0  0  0  0  0  0  0  0  0
   15.2411   -3.1658    0.0000 H   0  0  0  0  0  0  0  0  0  0  0  0
   13.0989   -3.8665    0.0000 H   0  0  0  0  0  0  0  0  0  0  0  0
   13.3368   -4.2264    0.0000 H   0  0  0  0  0  0  0  0  0  0  0  0
   13.7238   -4.4170    0.0000 H   0  0  0  0  0  0  0  0  0  0  0  0
   14.1792   -2.2096    0.0000 H   0  0  0  0  0  0  0  0  0  0  0  0
   12.3160   -3.7589    0.0000 H   0  0  0  0  0  0  0  0  0  0  0  0
   12.6392   -4.1362    0.0000 H   0  0  0  0  0  0  0  0  0  0  0  0
   11.5024   -3.5712    0.0000 H   0  0  0  0  0  0  0  0  0  0  0  0
   11.8394   -3.9691    0.0000 H   0  0  0  0  0  0  0  0  0  0  0  0
   10.9291   -2.3544    0.0000 H   0  0  0  0  0  0  0  0  0  0  0  0
   10.6812   -2.6270    0.0000 H   0  0  0  0  0  0  0  0  0  0  0  0
   10.5767   -2.9805    0.0000 H   0  0  0  0  0  0  0  0  0  0  0  0
  1  2  1  0  0  0  0
  2  3  1  0  0  0  0
  2  4  1  0  0  0  0
  4  5  1  0  0  0  0
  5  6  1  0  0  0  0
  6  7  1  0  0  0  0
  7  8  1  0  0  0  0
  7  9  1  0  0  0  0
  9 10  1  0  0  0  0
 10 11  1  0  0  0  0
 11 12  1  0  0  0  0
 12 13  1  0  0  0  0
 13 14  1  0  0  0  0
 14 15  1  0  0  0  0
 15 16  2  0  0  0  0
 16 17  1  0  0  0  0
 17 18  1  0  0  0  0
 18 19  1  0  0  0  0
 18 20  1  0  0  0  0
 20 21  1  0  0  0  0
 21 22  1  0  0  0  0
 16 22  1  0  0  0  0
 22 23  1  0  0  0  0
 22 24  1  0  0  0  0
 13 24  1  0  0  0  0
 24 25  1  0  0  0  0
 25 26  1  0  0  0  0
 26 27  1  0  0  0  0
  9 27  1  0  0  0  0
 12 27  1  0  0  0  0
 27 28  1  0  0  0  0
  1 29  1  0  0  0  0
  1 30  1  0  0  0  0
  1 31  1  0  0  0  0
  2 32  1  0  0  0  0
  3 33  1  0  0  0  0
  3 34  1  0  0  0  0
  3 35  1  0  0  0  0
  4 36  1  0  0  0  0
  4 37  1  0  0  0  0
  5 38  1  0  0  0  0
  5 39  1  0  0  0  0
  6 40  1  0  0  0  0
  6 41  1  0  0  0  0
  7 42  1  0  0  0  0
  8 43  1  0  0  0  0
  8 44  1  0  0  0  0
  8 45  1  0  0  0  0
  9 46  1  0  0  0  0
 10 47  1  0  0  0  0
 10 48  1  0  0  0  0
 11 49  1  0  0  0  0
 11 50  1  0  0  0  0
 12 51  1  0  0  0  0
 13 52  1  0  0  0  0
 14 53  1  0  0  0  0
 14 54  1  0  0  0  0
 15 55  1  0  0  0  0
 17 56  1  0  0  0  0
 17 57  1  0  0  0  0
 18 58  1  0  0  0  0
 19 59  1  0  0  0  0
 20 60  1  0  0  0  0
 20 61  1  0  0  0  0
 21 62  1  0  0  0  0
 21 63  1  0  0  0  0
 23 64  1  0  0  0  0
 23 65  1  0  0  0  0
 23 66  1  0  0  0  0
 24 67  1  0  0  0  0
 25 68  1  0  0  0  0
 25 69  1  0  0  0  0
 26 70  1  0  0  0  0
 26 71  1  0  0  0  0
 28 72  1  0  0  0  0
 28 73  1  0  0  0  0
 28 74  1  0  0  0  0
M  END
>  <InChIKey>
HVYWMOMLDIMFJA-DPAQBDIFSA-N

>  <UN GHS>
Non-irritant

>  <CASRN>
57-88-5

> <Outcome>
0

>  <Index>
281

>  <StandardizerResult>
Clear Stereo (ID: ClearStereo)
Wedge Clean (ID: WedgeClean)
Mesomerize (ID: Mesomerize)
Tautomerize (ID: Tautomerize)
Add Explicit Hydrogens (ID: AddExplicitH)
Neutralize (ID: Neutralize)
Clean 2D (ID: Clean2D)

> <knn Distance>
3.87298345565796

> <CpId>
281

$$$$
350
  Mrv1532301301811342D          

124127  0  0  0  0            999 V2000
   -0.9192    1.2877    0.0000 C   0  0  0  0  0  0  0  0  0  0  0  0
   -0.9192    0.4627    0.0000 C   0  0  0  0  0  0  0  0  0  0  0  0
   -1.7442    0.4627    0.0000 C   0  0  0  0  0  0  0  0  0  0  0  0
   -0.0942    0.4627    0.0000 C   0  0  0  0  0  0  0  0  0  0  0  0
   -0.9192   -0.3623    0.0000 C   0  0  0  0  0  0  0  0  0  0  0  0
   -0.2047   -0.7748    0.0000 C   0  0  0  0  0  0  0  0  0  0  0  0
   -0.2047   -1.5998    0.0000 C   0  0  0  0  0  0  0  0  0  0  0  0
   -0.9192   -2.0123    0.0000 C   0  0  0  0  0  0  0  0  0  0  0  0
   -1.6336   -1.5998    0.0000 C   0  0  0  0  0  0  0  0  0  0  0  0
   -1.6336   -0.7748    0.0000 C   0  0  0  0  0  0  0  0  0  0  0  0
   -2.3481   -0.3623    0.0000 O   0  0  0  0  0  0  0  0  0  0  0  0
    0.5098   -2.0123    0.0000 C   0  0  0  0  0  0  0  0  0  0  0  0
    0.0973   -2.7268    0.0000 C   0  0  0  0  0  0  0  0  0  0  0  0
    1.2243   -2.4248    0.0000 C   0  0  0  0  0  0  0  0  0  0  0  0
    1.2243   -3.2498    0.0000 C   0  0  0  0  0  0  0  0  0  0  0  0
    0.5098   -3.6623    0.0000 O   0  0  0  0  0  0  0  0  0  0  0  0
    1.9387   -3.6623    0.0000 O   0  0  0  0  0  0  0  0  0  0  0  0
    2.6532   -3.2498    0.0000 C   0  0  0  0  0  0  0  0  0  0  0  0
    3.3677   -3.6623    0.0000 C   0  0  0  0  0  0  0  0  0  0  0  0
    4.0821   -3.2498    0.0000 O   0  0  0  0  0  0  0  0  0  0  0  0
    4.7966   -3.6623    0.0000 C   0  0  0  0  0  0  0  0  0  0  0  0
    4.7966   -4.4873    0.0000 O   0  0  0  0  0  0  0  0  0  0  0  0
    5.5111   -3.2498    0.0000 C   0  0  0  0  0  0  0  0  0  0  0  0
    6.2255   -3.6623    0.0000 C   0  0  0  0  0  0  0  0  0  0  0  0
    5.8130   -4.3768    0.0000 C   0  0  0  0  0  0  0  0  0  0  0  0
    6.9400   -4.0748    0.0000 C   0  0  0  0  0  0  0  0  0  0  0  0
    7.6545   -3.6623    0.0000 C   0  0  0  0  0  0  0  0  0  0  0  0
    8.3690   -4.0748    0.0000 C   0  0  0  0  0  0  0  0  0  0  0  0
    8.3690   -4.8998    0.0000 C   0  0  0  0  0  0  0  0  0  0  0  0
    9.0834   -5.3123    0.0000 O   0  0  0  0  0  0  0  0  0  0  0  0
    7.6545   -5.3123    0.0000 C   0  0  0  0  0  0  0  0  0  0  0  0
    6.9400   -4.8998    0.0000 C   0  0  0  0  0  0  0  0  0  0  0  0
    7.6545   -6.1373    0.0000 C   0  0  0  0  0  0  0  0  0  0  0  0
    7.6545   -6.9623    0.0000 C   0  0  0  0  0  0  0  0  0  0  0  0
    6.8295   -6.1373    0.0000 C   0  0  0  0  0  0  0  0  0  0  0  0
    8.4795   -6.1373    0.0000 C   0  0  0  0  0  0  0  0  0  0  0  0
    6.6380   -2.9478    0.0000 C   0  0  0  0  0  0  0  0  0  0  0  0
    6.2255   -2.2334    0.0000 C   0  0  0  0  0  0  0  0  0  0  0  0
    6.6380   -1.5189    0.0000 C   0  0  0  0  0  0  0  0  0  0  0  0
    7.4630   -1.5189    0.0000 C   0  0  0  0  0  0  0  0  0  0  0  0
    7.8755   -0.8044    0.0000 O   0  0  0  0  0  0  0  0  0  0  0  0
    7.8755   -2.2334    0.0000 C   0  0  0  0  0  0  0  0  0  0  0  0
    7.4630   -2.9478    0.0000 C   0  0  0  0  0  0  0  0  0  0  0  0
    8.7005   -2.2334    0.0000 C   0  0  0  0  0  0  0  0  0  0  0  0
    9.5255   -2.2334    0.0000 C   0  0  0  0  0  0  0  0  0  0  0  0
    8.7005   -3.0584    0.0000 C   0  0  0  0  0  0  0  0  0  0  0  0
    8.7005   -1.4084    0.0000 C   0  0  0  0  0  0  0  0  0  0  0  0
    0.9223   -1.2978    0.0000 C   0  0  0  0  0  0  0  0  0  0  0  0
    0.5098   -0.5834    0.0000 C   0  0  0  0  0  0  0  0  0  0  0  0
    0.9223    0.1311    0.0000 C   0  0  0  0  0  0  0  0  0  0  0  0
    1.7473    0.1311    0.0000 C   0  0  0  0  0  0  0  0  0  0  0  0
    2.1598    0.8456    0.0000 O   0  0  0  0  0  0  0  0  0  0  0  0
    2.1598   -0.5834    0.0000 C   0  0  0  0  0  0  0  0  0  0  0  0
    1.7473   -1.2978    0.0000 C   0  0  0  0  0  0  0  0  0  0  0  0
    2.9848   -0.5834    0.0000 C   0  0  0  0  0  0  0  0  0  0  0  0
    3.8098   -0.5834    0.0000 C   0  0  0  0  0  0  0  0  0  0  0  0
    2.9848   -1.4084    0.0000 C   0  0  0  0  0  0  0  0  0  0  0  0
    2.9848    0.2416    0.0000 C   0  0  0  0  0  0  0  0  0  0  0  0
   -0.0942    1.2877    0.0000 H   0  0  0  0  0  0  0  0  0  0  0  0
   -0.9192    2.1127    0.0000 H   0  0  0  0  0  0  0  0  0  0  0  0
   -1.7442    1.2877    0.0000 H   0  0  0  0  0  0  0  0  0  0  0  0
   -2.5064    0.7784    0.0000 H   0  0  0  0  0  0  0  0  0  0  0  0
   -2.3275   -0.1207    0.0000 H   0  0  0  0  0  0  0  0  0  0  0  0
   -1.4284   -0.2995    0.0000 H   0  0  0  0  0  0  0  0  0  0  0  0
   -0.4099   -0.2995    0.0000 H   0  0  0  0  0  0  0  0  0  0  0  0
    0.4892   -0.1207    0.0000 H   0  0  0  0  0  0  0  0  0  0  0  0
    0.6680    0.7784    0.0000 H   0  0  0  0  0  0  0  0  0  0  0  0
   -0.9192   -1.1873    0.0000 H   0  0  0  0  0  0  0  0  0  0  0  0
   -0.9192   -2.8373    0.0000 H   0  0  0  0  0  0  0  0  0  0  0  0
   -2.3481   -2.0123    0.0000 H   0  0  0  0  0  0  0  0  0  0  0  0
   -3.0794   -0.7441    0.0000 H   0  0  0  0  0  0  0  0  0  0  0  0
   -0.6172   -2.3143    0.0000 H   0  0  0  0  0  0  0  0  0  0  0  0
   -0.3152   -3.4413    0.0000 H   0  0  0  0  0  0  0  0  0  0  0  0
    0.8118   -3.1393    0.0000 H   0  0  0  0  0  0  0  0  0  0  0  0
    2.0479   -2.3768    0.0000 H   0  0  0  0  0  0  0  0  0  0  0  0
    1.6776   -1.7355    0.0000 H   0  0  0  0  0  0  0  0  0  0  0  0
    3.0235   -2.5126    0.0000 H   0  0  0  0  0  0  0  0  0  0  0  0
    2.2829   -2.5126    0.0000 H   0  0  0  0  0  0  0  0  0  0  0  0
    2.9974   -4.3996    0.0000 H   0  0  0  0  0  0  0  0  0  0  0  0
    3.7379   -4.3996    0.0000 H   0  0  0  0  0  0  0  0  0  0  0  0
    5.8813   -2.5126    0.0000 H   0  0  0  0  0  0  0  0  0  0  0  0
    5.1408   -2.5126    0.0000 H   0  0  0  0  0  0  0  0  0  0  0  0
    5.0986   -3.9643    0.0000 H   0  0  0  0  0  0  0  0  0  0  0  0
    5.4005   -5.0913    0.0000 H   0  0  0  0  0  0  0  0  0  0  0  0
    6.5275   -4.7893    0.0000 H   0  0  0  0  0  0  0  0  0  0  0  0
    8.3090   -3.1601    0.0000 H   0  0  0  0  0  0  0  0  0  0  0  0
    9.1935   -4.0478    0.0000 H   0  0  0  0  0  0  0  0  0  0  0  0
    9.0834   -6.1373    0.0000 H   0  0  0  0  0  0  0  0  0  0  0  0
    6.6243   -5.6620    0.0000 H   0  0  0  0  0  0  0  0  0  0  0  0
    6.8295   -6.9623    0.0000 H   0  0  0  0  0  0  0  0  0  0  0  0
    7.6545   -7.7873    0.0000 H   0  0  0  0  0  0  0  0  0  0  0  0
    8.4795   -6.9623    0.0000 H   0  0  0  0  0  0  0  0  0  0  0  0
    6.0305   -5.9317    0.0000 H   0  0  0  0  0  0  0  0  0  0  0  0
    6.1775   -6.6428    0.0000 H   0  0  0  0  0  0  0  0  0  0  0  0
    7.2827   -5.4480    0.0000 H   0  0  0  0  0  0  0  0  0  0  0  0
    8.7617   -5.3621    0.0000 H   0  0  0  0  0  0  0  0  0  0  0  0
    8.1973   -5.3621    0.0000 H   0  0  0  0  0  0  0  0  0  0  0  0
    9.0629   -6.7207    0.0000 H   0  0  0  0  0  0  0  0  0  0  0  0
    5.5980   -1.6978    0.0000 H   0  0  0  0  0  0  0  0  0  0  0  0
    6.2255   -0.8044    0.0000 H   0  0  0  0  0  0  0  0  0  0  0  0
    8.7005   -0.8044    0.0000 H   0  0  0  0  0  0  0  0  0  0  0  0
    6.9608   -3.6024    0.0000 H   0  0  0  0  0  0  0  0  0  0  0  0
    9.5255   -3.0584    0.0000 H   0  0  0  0  0  0  0  0  0  0  0  0
   10.3505   -2.2334    0.0000 H   0  0  0  0  0  0  0  0  0  0  0  0
    9.5255   -1.4084    0.0000 H   0  0  0  0  0  0  0  0  0  0  0  0
    8.4144   -3.8322    0.0000 H   0  0  0  0  0  0  0  0  0  0  0  0
    9.1720   -3.7354    0.0000 H   0  0  0  0  0  0  0  0  0  0  0  0
    8.0480   -2.5536    0.0000 H   0  0  0  0  0  0  0  0  0  0  0  0
    7.9253   -1.1262    0.0000 H   0  0  0  0  0  0  0  0  0  0  0  0
    7.9253   -1.6905    0.0000 H   0  0  0  0  0  0  0  0  0  0  0  0
    9.2839   -0.8250    0.0000 H   0  0  0  0  0  0  0  0  0  0  0  0
    1.3348   -0.5834    0.0000 H   0  0  0  0  0  0  0  0  0  0  0  0
    1.3869    0.8128    0.0000 H   0  0  0  0  0  0  0  0  0  0  0  0
    2.8654    1.2731    0.0000 H   0  0  0  0  0  0  0  0  0  0  0  0
    2.5249   -1.5735    0.0000 H   0  0  0  0  0  0  0  0  0  0  0  0
    3.8098   -1.4084    0.0000 H   0  0  0  0  0  0  0  0  0  0  0  0
    4.6348   -0.5834    0.0000 H   0  0  0  0  0  0  0  0  0  0  0  0
    3.8098    0.2416    0.0000 H   0  0  0  0  0  0  0  0  0  0  0  0
    2.7459   -2.1980    0.0000 H   0  0  0  0  0  0  0  0  0  0  0  0
    3.4765   -2.0708    0.0000 H   0  0  0  0  0  0  0  0  0  0  0  0
    2.3100   -0.9337    0.0000 H   0  0  0  0  0  0  0  0  0  0  0  0
    3.3005    1.0038    0.0000 H   0  0  0  0  0  0  0  0  0  0  0  0
    2.4014    0.8250    0.0000 H   0  0  0  0  0  0  0  0  0  0  0  0
    2.2226   -0.0741    0.0000 H   0  0  0  0  0  0  0  0  0  0  0  0
  1  2  1  0  0  0  0
  2  3  1  0  0  0  0
  2  4  1  0  0  0  0
  2  5  1  0  0  0  0
  5  6  4  0  0  0  0
  6  7  4  0  0  0  0
  7  8  4  0  0  0  0
  8  9  4  0  0  0  0
  9 10  4  0  0  0  0
  5 10  4  0  0  0  0
 10 11  1  0  0  0  0
  7 12  1  0  0  0  0
 12 13  1  0  0  0  0
 12 14  1  0  0  0  0
 14 15  1  0  0  0  0
 15 16  2  0  0  0  0
 15 17  1  0  0  0  0
 17 18  1  0  0  0  0
 18 19  1  0  0  0  0
 19 20  1  0  0  0  0
 20 21  1  0  0  0  0
 21 22  2  0  0  0  0
 21 23  1  0  0  0  0
 23 24  1  0  0  0  0
 24 25  1  0  0  0  0
 24 26  1  0  0  0  0
 26 27  4  0  0  0  0
 27 28  4  0  0  0  0
 28 29  4  0  0  0  0
 29 30  1  0  0  0  0
 29 31  4  0  0  0  0
 31 32  4  0  0  0  0
 26 32  4  0  0  0  0
 31 33  1  0  0  0  0
 33 34  1  0  0  0  0
 33 35  1  0  0  0  0
 33 36  1  0  0  0  0
 24 37  1  0  0  0  0
 37 38  4  0  0  0  0
 38 39  4  0  0  0  0
 39 40  4  0  0  0  0
 40 41  1  0  0  0  0
 40 42  4  0  0  0  0
 42 43  4  0  0  0  0
 37 43  4  0  0  0  0
 42 44  1  0  0  0  0
 44 45  1  0  0  0  0
 44 46  1  0  0  0  0
 44 47  1  0  0  0  0
 12 48  1  0  0  0  0
 48 49  4  0  0  0  0
 49 50  4  0  0  0  0
 50 51  4  0  0  0  0
 51 52  1  0  0  0  0
 51 53  4  0  0  0  0
 53 54  4  0  0  0  0
 48 54  4  0  0  0  0
 53 55  1  0  0  0  0
 55 56  1  0  0  0  0
 55 57  1  0  0  0  0
 55 58  1  0  0  0  0
  1 59  1  0  0  0  0
  1 60  1  0  0  0  0
  1 61  1  0  0  0  0
  3 62  1  0  0  0  0
  3 63  1  0  0  0  0
  3 64  1  0  0  0  0
  4 65  1  0  0  0  0
  4 66  1  0  0  0  0
  4 67  1  0  0  0  0
  6 68  1  0  0  0  0
  8 69  1  0  0  0  0
  9 70  1  0  0  0  0
 11 71  1  0  0  0  0
 13 72  1  0  0  0  0
 13 73  1  0  0  0  0
 13 74  1  0  0  0  0
 14 75  1  0  0  0  0
 14 76  1  0  0  0  0
 18 77  1  0  0  0  0
 18 78  1  0  0  0  0
 19 79  1  0  0  0  0
 19 80  1  0  0  0  0
 23 81  1  0  0  0  0
 23 82  1  0  0  0  0
 25 83  1  0  0  0  0
 25 84  1  0  0  0  0
 25 85  1  0  0  0  0
 27 86  1  0  0  0  0
 28 87  1  0  0  0  0
 30 88  1  0  0  0  0
 32 89  1  0  0  0  0
 34 90  1  0  0  0  0
 34 91  1  0  0  0  0
 34 92  1  0  0  0  0
 35 93  1  0  0  0  0
 35 94  1  0  0  0  0
 35 95  1  0  0  0  0
 36 96  1  0  0  0  0
 36 97  1  0  0  0  0
 36 98  1  0  0  0  0
 38 99  1  0  0  0  0
 39100  1  0  0  0  0
 41101  1  0  0  0  0
 43102  1  0  0  0  0
 45103  1  0  0  0  0
 45104  1  0  0  0  0
 45105  1  0  0  0  0
 46106  1  0  0  0  0
 46107  1  0  0  0  0
 46108  1  0  0  0  0
 47109  1  0  0  0  0
 47110  1  0  0  0  0
 47111  1  0  0  0  0
 49112  1  0  0  0  0
 50113  1  0  0  0  0
 52114  1  0  0  0  0
 54115  1  0  0  0  0
 56116  1  0  0  0  0
 56117  1  0  0  0  0
 56118  1  0  0  0  0
 57119  1  0  0  0  0
 57120  1  0  0  0  0
 57121  1  0  0  0  0
 58122  1  0  0  0  0
 58123  1  0  0  0  0
 58124  1  0  0  0  0
M  END
>  <InChIKey>
JOWXNCPELQZFHF-UHFFFAOYSA-N

>  <UN GHS>
Non-irritant

>  <CASRN>
32509-66-3

> <Outcome>
0

>  <Index>
350

>  <StandardizerResult>
Dearomatize (ID: Dearomatize)
Clear Stereo (ID: ClearStereo)
Wedge Clean (ID: WedgeClean)
Mesomerize (ID: Mesomerize)
Tautomerize (ID: Tautomerize)
Aromatize (ID: Aromatize)
Add Explicit Hydrogens (ID: AddExplicitH)
Neutralize (ID: Neutralize)
Clean 2D (ID: Clean2D)

> <knn Distance>
3.87298345565796

> <CpId>
350

$$$$
352
  Mrv1532301301811342D          

 13 12  0  0  0  0            999 V2000
    1.2389    2.1434    0.0000 C   0  0  0  0  0  0  0  0  0  0  0  0
    0.8264    1.4289    0.0000 C   0  0  0  0  0  0  0  0  0  0  0  0
    1.2389    0.7144    0.0000 O   0  0  0  0  0  0  0  0  0  0  0  0
    0.8264   -0.0000    0.0000 C   0  0  0  0  0  0  0  0  0  0  0  0
    1.2389   -0.7145    0.0000 N   0  0  0  0  0  0  0  0  0  0  0  0
    0.0014   -0.0000    0.0000 O   0  0  0  0  0  0  0  0  0  0  0  0
    1.9533    1.7309    0.0000 H   0  0  0  0  0  0  0  0  0  0  0  0
    1.6514    2.8579    0.0000 H   0  0  0  0  0  0  0  0  0  0  0  0
    0.5244    2.5559    0.0000 H   0  0  0  0  0  0  0  0  0  0  0  0
    0.0891    1.7992    0.0000 H   0  0  0  0  0  0  0  0  0  0  0  0
    0.0891    1.0587    0.0000 H   0  0  0  0  0  0  0  0  0  0  0  0
    0.8264   -1.4290    0.0000 H   0  0  0  0  0  0  0  0  0  0  0  0
    2.0639   -0.7145    0.0000 H   0  0  0  0  0  0  0  0  0  0  0  0
  1  2  1  0  0  0  0
  2  3  1  0  0  0  0
  3  4  1  0  0  0  0
  4  5  1  0  0  0  0
  4  6  2  0  0  0  0
  1  7  1  0  0  0  0
  1  8  1  0  0  0  0
  1  9  1  0  0  0  0
  2 10  1  0  0  0  0
  2 11  1  0  0  0  0
  5 12  1  0  0  0  0
  5 13  1  0  0  0  0
M  END
>  <InChIKey>
JOYRKODLDBILNP-UHFFFAOYSA-N

>  <UN GHS>
Non-irritant

>  <CASRN>
107-95-9

> <Outcome>
0

>  <Index>
352

>  <StandardizerResult>
Clear Stereo (ID: ClearStereo)
Wedge Clean (ID: WedgeClean)
Mesomerize (ID: Mesomerize)
Tautomerize (ID: Tautomerize)
Add Explicit Hydrogens (ID: AddExplicitH)
Neutralize (ID: Neutralize)
Clean 2D (ID: Clean2D)

> <knn Distance>
3.87298345565796

> <CpId>
352

$$$$
406
  Mrv1532301301811342D          

 24 23  0  0  0  0            999 V2000
    1.8706   -0.5048    0.0000 C   0  0  0  0  0  0  0  0  0  0  0  0
    1.8706    0.3202    0.0000 O   0  0  0  0  0  0  0  0  0  0  0  0
    1.1562    0.7327    0.0000 Si  0  0  0  0  0  0  0  0  0  0  0  0
    0.4417    1.1452    0.0000 C   0  0  0  0  0  0  0  0  0  0  0  0
    0.4417    1.9702    0.0000 C   0  0  0  0  0  0  0  0  0  0  0  0
   -0.2728    2.3827    0.0000 C   0  0  0  0  0  0  0  0  0  0  0  0
   -0.9873    2.7952    0.0000 N   0  0  0  0  0  0  0  0  0  0  0  0
    1.5687    1.4472    0.0000 O   0  0  0  0  0  0  0  0  0  0  0  0
    1.1562    2.1617    0.0000 C   0  0  0  0  0  0  0  0  0  0  0  0
    0.7437    0.0183    0.0000 O   0  0  0  0  0  0  0  0  0  0  0  0
   -0.0813    0.0183    0.0000 C   0  0  0  0  0  0  0  0  0  0  0  0
    1.0456   -0.5048    0.0000 H   0  0  0  0  0  0  0  0  0  0  0  0
    1.8706   -1.3298    0.0000 H   0  0  0  0  0  0  0  0  0  0  0  0
    2.6956   -0.5048    0.0000 H   0  0  0  0  0  0  0  0  0  0  0  0
   -0.3819    1.0973    0.0000 H   0  0  0  0  0  0  0  0  0  0  0  0
   -0.0117    0.4560    0.0000 H   0  0  0  0  0  0  0  0  0  0  0  0
    0.5494    2.7882    0.0000 H   0  0  0  0  0  0  0  0  0  0  0  0
    1.0962    1.4680    0.0000 H   0  0  0  0  0  0  0  0  0  0  0  0
    1.9647    1.9975    0.0000 H   0  0  0  0  0  0  0  0  0  0  0  0
    1.8147    2.6587    0.0000 H   0  0  0  0  0  0  0  0  0  0  0  0
    1.2200    2.9842    0.0000 H   0  0  0  0  0  0  0  0  0  0  0  0
   -0.8009    0.4218    0.0000 H   0  0  0  0  0  0  0  0  0  0  0  0
   -0.7089   -0.5173    0.0000 H   0  0  0  0  0  0  0  0  0  0  0  0
    0.2041   -0.7558    0.0000 H   0  0  0  0  0  0  0  0  0  0  0  0
  1  2  1  0  0  0  0
  2  3  1  0  0  0  0
  3  4  1  0  0  0  0
  4  5  1  0  0  0  0
  5  6  1  0  0  0  0
  6  7  3  0  0  0  0
  3  8  1  0  0  0  0
  8  9  1  0  0  0  0
  3 10  1  0  0  0  0
 10 11  1  0  0  0  0
  1 12  1  0  0  0  0
  1 13  1  0  0  0  0
  1 14  1  0  0  0  0
  4 15  1  0  0  0  0
  4 16  1  0  0  0  0
  5 17  1  0  0  0  0
  5 18  1  0  0  0  0
  9 19  1  0  0  0  0
  9 20  1  0  0  0  0
  9 21  1  0  0  0  0
 11 22  1  0  0  0  0
 11 23  1  0  0  0  0
 11 24  1  0  0  0  0
M  END
>  <InChIKey>
KVUMYOWDFZAGPN-UHFFFAOYSA-N

>  <UN GHS>
Non-irritant

>  <CASRN>
2526-62-7

> <Outcome>
0

>  <Index>
406

>  <StandardizerResult>
Clear Stereo (ID: ClearStereo)
Wedge Clean (ID: WedgeClean)
Mesomerize (ID: Mesomerize)
Tautomerize (ID: Tautomerize)
Add Explicit Hydrogens (ID: AddExplicitH)
Neutralize (ID: Neutralize)
Clean 2D (ID: Clean2D)

> <knn Distance>
3.87298345565796

> <CpId>
406

$$$$
409
  Mrv1532301301811342D          

 27 27  0  0  0  0            999 V2000
   -0.7253    3.7344    0.0000 C   0  0  0  0  0  0  0  0  0  0  0  0
   -0.0109    3.3219    0.0000 N   0  0  0  0  0  0  0  0  0  0  0  0
   -0.0109    2.4969    0.0000 C   0  0  0  0  0  0  0  0  0  0  0  0
   -0.7253    2.0844    0.0000 C   0  0  0  0  0  0  0  0  0  0  0  0
    0.7036    2.0844    0.0000 C   0  0  0  0  0  0  0  0  0  0  0  0
    1.4181    2.4969    0.0000 O   0  0  0  0  0  0  0  0  0  0  0  0
    0.7036    1.2594    0.0000 C   0  0  0  0  0  0  0  0  0  0  0  0
    1.4181    0.8469    0.0000 C   0  0  0  0  0  0  0  0  0  0  0  0
    1.4181    0.0219    0.0000 C   0  0  0  0  0  0  0  0  0  0  0  0
    0.7036   -0.3906    0.0000 C   0  0  0  0  0  0  0  0  0  0  0  0
   -0.0109    0.0219    0.0000 C   0  0  0  0  0  0  0  0  0  0  0  0
   -0.0109    0.8469    0.0000 C   0  0  0  0  0  0  0  0  0  0  0  0
   -0.3128    4.4489    0.0000 H   0  0  0  0  0  0  0  0  0  0  0  0
   -1.4398    4.1469    0.0000 H   0  0  0  0  0  0  0  0  0  0  0  0
   -1.1378    3.0199    0.0000 H   0  0  0  0  0  0  0  0  0  0  0  0
    0.7036    3.7344    0.0000 H   0  0  0  0  0  0  0  0  0  0  0  0
   -0.7253    2.9094    0.0000 H   0  0  0  0  0  0  0  0  0  0  0  0
   -1.5222    2.2979    0.0000 H   0  0  0  0  0  0  0  0  0  0  0  0
   -1.1378    1.3699    0.0000 H   0  0  0  0  0  0  0  0  0  0  0  0
   -0.1420    1.5010    0.0000 H   0  0  0  0  0  0  0  0  0  0  0  0
    0.7036    2.9094    0.0000 H   0  0  0  0  0  0  0  0  0  0  0  0
    2.2431    2.4969    0.0000 H   0  0  0  0  0  0  0  0  0  0  0  0
    2.1325    1.2594    0.0000 H   0  0  0  0  0  0  0  0  0  0  0  0
    2.1325   -0.3906    0.0000 H   0  0  0  0  0  0  0  0  0  0  0  0
    0.7036   -1.2156    0.0000 H   0  0  0  0  0  0  0  0  0  0  0  0
   -0.7253   -0.3906    0.0000 H   0  0  0  0  0  0  0  0  0  0  0  0
   -0.8318    0.7654    0.0000 H   0  0  0  0  0  0  0  0  0  0  0  0
  1  2  1  0  0  0  0
  2  3  1  0  0  0  0
  3  4  1  0  0  0  0
  3  5  1  0  0  0  0
  5  6  1  0  0  0  0
  5  7  1  0  0  0  0
  7  8  4  0  0  0  0
  8  9  4  0  0  0  0
  9 10  4  0  0  0  0
 10 11  4  0  0  0  0
 11 12  4  0  0  0  0
  7 12  4  0  0  0  0
  1 13  1  0  0  0  0
  1 14  1  0  0  0  0
  1 15  1  0  0  0  0
  2 16  1  0  0  0  0
  3 17  1  0  0  0  0
  4 18  1  0  0  0  0
  4 19  1  0  0  0  0
  4 20  1  0  0  0  0
  5 21  1  0  0  0  0
  6 22  1  0  0  0  0
  8 23  1  0  0  0  0
  9 24  1  0  0  0  0
 10 25  1  0  0  0  0
 11 26  1  0  0  0  0
 12 27  1  0  0  0  0
M  END
>  <InChIKey>
KWGRBVOPPLSCSI-UHFFFAOYSA-N

>  <UN GHS>
Non-irritant

>  <CASRN>
90-82-4

> <Outcome>
0

>  <Index>
409

>  <StandardizerResult>
Dearomatize (ID: Dearomatize)
Clear Stereo (ID: ClearStereo)
Wedge Clean (ID: WedgeClean)
Mesomerize (ID: Mesomerize)
Tautomerize (ID: Tautomerize)
Aromatize (ID: Aromatize)
Add Explicit Hydrogens (ID: AddExplicitH)
Neutralize (ID: Neutralize)
Clean 2D (ID: Clean2D)

> <knn Distance>
3.87298345565796

> <CpId>
409

$$$$
446
  Mrv1532301301811342D          

 29 30  0  0  0  0            999 V2000
    4.1136    0.8821    0.0000 C   0  0  0  0  0  0  0  0  0  0  0  0
    3.3991    0.4696    0.0000 C   0  0  0  0  0  0  0  0  0  0  0  0
    3.3991   -0.3554    0.0000 O   0  0  0  0  0  0  0  0  0  0  0  0
    2.6846   -0.7679    0.0000 C   0  0  0  0  0  0  0  0  0  0  0  0
    1.9701   -0.3554    0.0000 O   0  0  0  0  0  0  0  0  0  0  0  0
    2.6846   -1.5929    0.0000 C   0  0  0  0  0  0  0  0  0  0  0  0
    3.0971   -2.3074    0.0000 O   0  0  0  0  0  0  0  0  0  0  0  0
    2.2721   -2.3074    0.0000 C   0  0  0  0  0  0  0  0  0  0  0  0
    1.9234   -3.0551    0.0000 C   0  0  0  0  0  0  0  0  0  0  0  0
    1.4502   -2.2355    0.0000 C   0  0  0  0  0  0  0  0  0  0  0  0
    0.9770   -2.9113    0.0000 C   0  0  0  0  0  0  0  0  0  0  0  0
    0.1552   -2.8394    0.0000 C   0  0  0  0  0  0  0  0  0  0  0  0
   -0.1935   -2.0917    0.0000 C   0  0  0  0  0  0  0  0  0  0  0  0
    0.2797   -1.4159    0.0000 C   0  0  0  0  0  0  0  0  0  0  0  0
    1.1016   -1.4878    0.0000 C   0  0  0  0  0  0  0  0  0  0  0  0
    4.5261    0.1676    0.0000 H   0  0  0  0  0  0  0  0  0  0  0  0
    4.8280    1.2946    0.0000 H   0  0  0  0  0  0  0  0  0  0  0  0
    3.7011    1.5966    0.0000 H   0  0  0  0  0  0  0  0  0  0  0  0
    2.9457    1.1589    0.0000 H   0  0  0  0  0  0  0  0  0  0  0  0
    2.5755    0.5176    0.0000 H   0  0  0  0  0  0  0  0  0  0  0  0
    1.8877   -1.3794    0.0000 H   0  0  0  0  0  0  0  0  0  0  0  0
    1.4475   -3.7290    0.0000 H   0  0  0  0  0  0  0  0  0  0  0  0
    2.3130   -3.7823    0.0000 H   0  0  0  0  0  0  0  0  0  0  0  0
    2.7481   -3.0322    0.0000 H   0  0  0  0  0  0  0  0  0  0  0  0
    0.5333   -3.6067    0.0000 H   0  0  0  0  0  0  0  0  0  0  0  0
   -0.5887   -3.1960    0.0000 H   0  0  0  0  0  0  0  0  0  0  0  0
   -1.0153   -2.0198    0.0000 H   0  0  0  0  0  0  0  0  0  0  0  0
   -0.0689   -0.6682    0.0000 H   0  0  0  0  0  0  0  0  0  0  0  0
    1.0811   -0.6630    0.0000 H   0  0  0  0  0  0  0  0  0  0  0  0
  1  2  1  0  0  0  0
  2  3  1  0  0  0  0
  3  4  1  0  0  0  0
  4  5  2  0  0  0  0
  4  6  1  0  0  0  0
  6  7  1  0  0  0  0
  7  8  1  0  0  0  0
  6  8  1  0  0  0  0
  8  9  1  0  0  0  0
  8 10  1  0  0  0  0
 10 11  4  0  0  0  0
 11 12  4  0  0  0  0
 12 13  4  0  0  0  0
 13 14  4  0  0  0  0
 14 15  4  0  0  0  0
 10 15  4  0  0  0  0
  1 16  1  0  0  0  0
  1 17  1  0  0  0  0
  1 18  1  0  0  0  0
  2 19  1  0  0  0  0
  2 20  1  0  0  0  0
  6 21  1  0  0  0  0
  9 22  1  0  0  0  0
  9 23  1  0  0  0  0
  9 24  1  0  0  0  0
 11 25  1  0  0  0  0
 12 26  1  0  0  0  0
 13 27  1  0  0  0  0
 14 28  1  0  0  0  0
 15 29  1  0  0  0  0
M  END
>  <InChIKey>
LQKRYVGRPXFFAV-UHFFFAOYSA-N

>  <UN GHS>
Non-irritant

>  <CASRN>
77-83-8

> <Outcome>
0

>  <Index>
446

>  <StandardizerResult>
Dearomatize (ID: Dearomatize)
Clear Stereo (ID: ClearStereo)
Wedge Clean (ID: WedgeClean)
Mesomerize (ID: Mesomerize)
Tautomerize (ID: Tautomerize)
Aromatize (ID: Aromatize)
Add Explicit Hydrogens (ID: AddExplicitH)
Neutralize (ID: Neutralize)
Clean 2D (ID: Clean2D)

> <knn Distance>
3.87298345565796

> <CpId>
446

$$$$
568
  Mrv1532301301811342D          

 64 68  0  0  0  0            999 V2000
   -5.0653   -1.0294    0.0000 O   0  0  0  0  0  0  0  0  0  0  0  0
   -4.6528   -0.3149    0.0000 P   0  0  0  0  0  0  0  0  0  0  0  0
   -3.9383   -0.7274    0.0000 O   0  0  0  0  0  0  0  0  0  0  0  0
   -3.9383   -1.5524    0.0000 C   0  0  0  0  0  0  0  0  0  0  0  0
   -3.2239   -1.9649    0.0000 C   0  0  0  0  0  0  0  0  0  0  0  0
   -3.2239   -2.7899    0.0000 C   0  0  0  0  0  0  0  0  0  0  0  0
   -3.9383   -3.2024    0.0000 C   0  0  0  0  0  0  0  0  0  0  0  0
   -4.6528   -2.7899    0.0000 C   0  0  0  0  0  0  0  0  0  0  0  0
   -4.6528   -1.9649    0.0000 C   0  0  0  0  0  0  0  0  0  0  0  0
   -4.2403    0.3995    0.0000 O   0  0  0  0  0  0  0  0  0  0  0  0
   -3.4153    0.3995    0.0000 C   0  0  0  0  0  0  0  0  0  0  0  0
   -3.0028    1.1140    0.0000 C   0  0  0  0  0  0  0  0  0  0  0  0
   -2.1778    1.1140    0.0000 C   0  0  0  0  0  0  0  0  0  0  0  0
   -1.7653    0.3995    0.0000 C   0  0  0  0  0  0  0  0  0  0  0  0
   -2.1778   -0.3149    0.0000 C   0  0  0  0  0  0  0  0  0  0  0  0
   -3.0028   -0.3149    0.0000 C   0  0  0  0  0  0  0  0  0  0  0  0
   -5.3673    0.0976    0.0000 O   0  0  0  0  0  0  0  0  0  0  0  0
   -6.0818   -0.3149    0.0000 C   0  0  0  0  0  0  0  0  0  0  0  0
   -6.0818   -1.1399    0.0000 C   0  0  0  0  0  0  0  0  0  0  0  0
   -6.7962   -1.5524    0.0000 C   0  0  0  0  0  0  0  0  0  0  0  0
   -7.5107   -1.1399    0.0000 C   0  0  0  0  0  0  0  0  0  0  0  0
   -7.5107   -0.3149    0.0000 C   0  0  0  0  0  0  0  0  0  0  0  0
   -8.2252    0.0976    0.0000 O   0  0  0  0  0  0  0  0  0  0  0  0
   -8.9396   -0.3149    0.0000 P   0  0  0  0  0  0  0  0  0  0  0  0
   -9.3521    0.3995    0.0000 O   0  0  0  0  0  0  0  0  0  0  0  0
   -9.6541   -0.7274    0.0000 O   0  0  0  0  0  0  0  0  0  0  0  0
  -10.3686   -0.3149    0.0000 C   0  0  0  0  0  0  0  0  0  0  0  0
  -11.0831   -0.7274    0.0000 C   0  0  0  0  0  0  0  0  0  0  0  0
  -11.7975   -0.3149    0.0000 C   0  0  0  0  0  0  0  0  0  0  0  0
  -11.7975    0.5101    0.0000 C   0  0  0  0  0  0  0  0  0  0  0  0
  -11.0831    0.9226    0.0000 C   0  0  0  0  0  0  0  0  0  0  0  0
  -10.3686    0.5101    0.0000 C   0  0  0  0  0  0  0  0  0  0  0  0
   -8.5271   -1.0294    0.0000 O   0  0  0  0  0  0  0  0  0  0  0  0
   -8.9396   -1.7439    0.0000 C   0  0  0  0  0  0  0  0  0  0  0  0
   -8.5271   -2.4583    0.0000 C   0  0  0  0  0  0  0  0  0  0  0  0
   -8.9396   -3.1728    0.0000 C   0  0  0  0  0  0  0  0  0  0  0  0
   -9.7646   -3.1728    0.0000 C   0  0  0  0  0  0  0  0  0  0  0  0
  -10.1771   -2.4583    0.0000 C   0  0  0  0  0  0  0  0  0  0  0  0
   -9.7646   -1.7439    0.0000 C   0  0  0  0  0  0  0  0  0  0  0  0
   -6.7962    0.0976    0.0000 C   0  0  0  0  0  0  0  0  0  0  0  0
   -2.5094   -1.5524    0.0000 H   0  0  0  0  0  0  0  0  0  0  0  0
   -2.5094   -3.2024    0.0000 H   0  0  0  0  0  0  0  0  0  0  0  0
   -3.9383   -4.0274    0.0000 H   0  0  0  0  0  0  0  0  0  0  0  0
   -5.3673   -3.2024    0.0000 H   0  0  0  0  0  0  0  0  0  0  0  0
   -5.3673   -1.5524    0.0000 H   0  0  0  0  0  0  0  0  0  0  0  0
   -3.4153    1.8285    0.0000 H   0  0  0  0  0  0  0  0  0  0  0  0
   -1.7653    1.8285    0.0000 H   0  0  0  0  0  0  0  0  0  0  0  0
   -0.9403    0.3995    0.0000 H   0  0  0  0  0  0  0  0  0  0  0  0
   -1.7653   -1.0294    0.0000 H   0  0  0  0  0  0  0  0  0  0  0  0
   -3.4153   -1.0294    0.0000 H   0  0  0  0  0  0  0  0  0  0  0  0
   -5.3673   -0.7274    0.0000 H   0  0  0  0  0  0  0  0  0  0  0  0
   -6.7962   -2.3774    0.0000 H   0  0  0  0  0  0  0  0  0  0  0  0
   -8.2252   -1.5524    0.0000 H   0  0  0  0  0  0  0  0  0  0  0  0
  -11.0831   -1.5524    0.0000 H   0  0  0  0  0  0  0  0  0  0  0  0
  -12.5120   -0.7274    0.0000 H   0  0  0  0  0  0  0  0  0  0  0  0
  -12.5120    0.9226    0.0000 H   0  0  0  0  0  0  0  0  0  0  0  0
  -11.0831    1.7476    0.0000 H   0  0  0  0  0  0  0  0  0  0  0  0
   -9.6541    0.9226    0.0000 H   0  0  0  0  0  0  0  0  0  0  0  0
   -7.7747   -2.7968    0.0000 H   0  0  0  0  0  0  0  0  0  0  0  0
   -8.5271   -3.8873    0.0000 H   0  0  0  0  0  0  0  0  0  0  0  0
  -10.1771   -3.8873    0.0000 H   0  0  0  0  0  0  0  0  0  0  0  0
  -11.0021   -2.4583    0.0000 H   0  0  0  0  0  0  0  0  0  0  0  0
  -10.1771   -1.0294    0.0000 H   0  0  0  0  0  0  0  0  0  0  0  0
   -6.7962    0.9226    0.0000 H   0  0  0  0  0  0  0  0  0  0  0  0
  1  2  2  0  0  0  0
  2  3  1  0  0  0  0
  3  4  1  0  0  0  0
  4  5  4  0  0  0  0
  5  6  4  0  0  0  0
  6  7  4  0  0  0  0
  7  8  4  0  0  0  0
  8  9  4  0  0  0  0
  4  9  4  0  0  0  0
  2 10  1  0  0  0  0
 10 11  1  0  0  0  0
 11 12  4  0  0  0  0
 12 13  4  0  0  0  0
 13 14  4  0  0  0  0
 14 15  4  0  0  0  0
 15 16  4  0  0  0  0
 11 16  4  0  0  0  0
  2 17  1  0  0  0  0
 17 18  1  0  0  0  0
 18 19  4  0  0  0  0
 19 20  4  0  0  0  0
 20 21  4  0  0  0  0
 21 22  4  0  0  0  0
 22 23  1  0  0  0  0
 23 24  1  0  0  0  0
 24 25  2  0  0  0  0
 24 26  1  0  0  0  0
 26 27  1  0  0  0  0
 27 28  4  0  0  0  0
 28 29  4  0  0  0  0
 29 30  4  0  0  0  0
 30 31  4  0  0  0  0
 31 32  4  0  0  0  0
 27 32  4  0  0  0  0
 24 33  1  0  0  0  0
 33 34  1  0  0  0  0
 34 35  4  0  0  0  0
 35 36  4  0  0  0  0
 36 37  4  0  0  0  0
 37 38  4  0  0  0  0
 38 39  4  0  0  0  0
 34 39  4  0  0  0  0
 22 40  4  0  0  0  0
 18 40  4  0  0  0  0
  5 41  1  0  0  0  0
  6 42  1  0  0  0  0
  7 43  1  0  0  0  0
  8 44  1  0  0  0  0
  9 45  1  0  0  0  0
 12 46  1  0  0  0  0
 13 47  1  0  0  0  0
 14 48  1  0  0  0  0
 15 49  1  0  0  0  0
 16 50  1  0  0  0  0
 19 51  1  0  0  0  0
 20 52  1  0  0  0  0
 21 53  1  0  0  0  0
 28 54  1  0  0  0  0
 29 55  1  0  0  0  0
 30 56  1  0  0  0  0
 31 57  1  0  0  0  0
 32 58  1  0  0  0  0
 35 59  1  0  0  0  0
 36 60  1  0  0  0  0
 37 61  1  0  0  0  0
 38 62  1  0  0  0  0
 39 63  1  0  0  0  0
 40 64  1  0  0  0  0
M  END
>  <InChIKey>
OWICEWMBIBPFAH-UHFFFAOYSA-N

>  <UN GHS>
Non-irritant

>  <CASRN>
57583-54-7

> <Outcome>
0

>  <Index>
568

>  <StandardizerResult>
Dearomatize (ID: Dearomatize)
Clear Stereo (ID: ClearStereo)
Wedge Clean (ID: WedgeClean)
Mesomerize (ID: Mesomerize)
Tautomerize (ID: Tautomerize)
Aromatize (ID: Aromatize)
Add Explicit Hydrogens (ID: AddExplicitH)
Neutralize (ID: Neutralize)
Clean 2D (ID: Clean2D)

> <knn Distance>
3.87298345565796

> <CpId>
568

$$$$
574
  Mrv1532301301811342D          

 26 25  0  0  0  0            999 V2000
    2.6187    0.7174    0.0000 C   0  0  0  0  0  0  0  0  0  0  0  0
    1.9042    0.3049    0.0000 O   0  0  0  0  0  0  0  0  0  0  0  0
    1.1897    0.7174    0.0000 Si  0  0  0  0  0  0  0  0  0  0  0  0
    0.4752    1.1299    0.0000 C   0  0  0  0  0  0  0  0  0  0  0  0
   -0.2392    0.7174    0.0000 C   0  0  0  0  0  0  0  0  0  0  0  0
   -0.9537    1.1299    0.0000 C   0  0  0  0  0  0  0  0  0  0  0  0
   -1.6682    0.7174    0.0000 Cl  0  0  0  0  0  0  0  0  0  0  0  0
    1.6022    1.4319    0.0000 O   0  0  0  0  0  0  0  0  0  0  0  0
    1.1897    2.1463    0.0000 C   0  0  0  0  0  0  0  0  0  0  0  0
    0.7772    0.0029    0.0000 O   0  0  0  0  0  0  0  0  0  0  0  0
   -0.0478    0.0029    0.0000 C   0  0  0  0  0  0  0  0  0  0  0  0
    3.0312    0.0029    0.0000 H   0  0  0  0  0  0  0  0  0  0  0  0
    3.3331    1.1299    0.0000 H   0  0  0  0  0  0  0  0  0  0  0  0
    2.2062    1.4319    0.0000 H   0  0  0  0  0  0  0  0  0  0  0  0
    0.8455    1.8671    0.0000 H   0  0  0  0  0  0  0  0  0  0  0  0
    0.1050    1.8671    0.0000 H   0  0  0  0  0  0  0  0  0  0  0  0
   -0.8937    0.2152    0.0000 H   0  0  0  0  0  0  0  0  0  0  0  0
    0.5230    0.4017    0.0000 H   0  0  0  0  0  0  0  0  0  0  0  0
   -0.5834    1.8671    0.0000 H   0  0  0  0  0  0  0  0  0  0  0  0
   -1.3240    1.8671    0.0000 H   0  0  0  0  0  0  0  0  0  0  0  0
    2.0028    2.2862    0.0000 H   0  0  0  0  0  0  0  0  0  0  0  0
    1.3397    2.9576    0.0000 H   0  0  0  0  0  0  0  0  0  0  0  0
    0.4805    2.5677    0.0000 H   0  0  0  0  0  0  0  0  0  0  0  0
   -0.7282   -0.4636    0.0000 H   0  0  0  0  0  0  0  0  0  0  0  0
   -0.1489   -0.8159    0.0000 H   0  0  0  0  0  0  0  0  0  0  0  0
    0.4987   -0.6152    0.0000 H   0  0  0  0  0  0  0  0  0  0  0  0
  1  2  1  0  0  0  0
  2  3  1  0  0  0  0
  3  4  1  0  0  0  0
  4  5  1  0  0  0  0
  5  6  1  0  0  0  0
  6  7  1  0  0  0  0
  3  8  1  0  0  0  0
  8  9  1  0  0  0  0
  3 10  1  0  0  0  0
 10 11  1  0  0  0  0
  1 12  1  0  0  0  0
  1 13  1  0  0  0  0
  1 14  1  0  0  0  0
  4 15  1  0  0  0  0
  4 16  1  0  0  0  0
  5 17  1  0  0  0  0
  5 18  1  0  0  0  0
  6 19  1  0  0  0  0
  6 20  1  0  0  0  0
  9 21  1  0  0  0  0
  9 22  1  0  0  0  0
  9 23  1  0  0  0  0
 11 24  1  0  0  0  0
 11 25  1  0  0  0  0
 11 26  1  0  0  0  0
M  END
>  <InChIKey>
OXYZDRAJMHGSMW-UHFFFAOYSA-N

>  <UN GHS>
Non-irritant

>  <CASRN>
2530-87-2

> <Outcome>
0

>  <Index>
574

>  <StandardizerResult>
Clear Stereo (ID: ClearStereo)
Wedge Clean (ID: WedgeClean)
Mesomerize (ID: Mesomerize)
Tautomerize (ID: Tautomerize)
Add Explicit Hydrogens (ID: AddExplicitH)
Neutralize (ID: Neutralize)
Clean 2D (ID: Clean2D)

> <knn Distance>
3.87298345565796

> <CpId>
574

$$$$
593
  Mrv1532301301811342D          

 18 18  0  0  0  0            999 V2000
    0.7153    2.0630    0.0000 O   0  0  0  0  0  0  0  0  0  0  0  0
    0.7153    1.2380    0.0000 C   0  0  0  0  0  0  0  0  0  0  0  0
    1.4298    0.8255    0.0000 C   0  0  0  0  0  0  0  0  0  0  0  0
    1.4298    0.0005    0.0000 C   0  0  0  0  0  0  0  0  0  0  0  0
    0.7153   -0.4120    0.0000 C   0  0  0  0  0  0  0  0  0  0  0  0
    0.0008    0.0005    0.0000 C   0  0  0  0  0  0  0  0  0  0  0  0
    0.0008    0.8255    0.0000 C   0  0  0  0  0  0  0  0  0  0  0  0
   -0.7136    1.2380    0.0000 C   0  0  0  0  0  0  0  0  0  0  0  0
   -0.7136    2.0630    0.0000 Cl  0  0  0  0  0  0  0  0  0  0  0  0
    0.7153   -1.2370    0.0000 N   0  0  0  0  0  0  0  0  0  0  0  0
    1.4298   -1.6495    0.0000 O   0  0  0  0  0  0  0  0  0  0  0  0
    0.0008   -1.6495    0.0000 O   0  0  0  0  0  0  0  0  0  0  0  0
    1.4298    2.4755    0.0000 H   0  0  0  0  0  0  0  0  0  0  0  0
    2.1443    1.2380    0.0000 H   0  0  0  0  0  0  0  0  0  0  0  0
    2.1443   -0.4120    0.0000 H   0  0  0  0  0  0  0  0  0  0  0  0
   -0.7136   -0.4120    0.0000 H   0  0  0  0  0  0  0  0  0  0  0  0
   -1.5372    1.1900    0.0000 H   0  0  0  0  0  0  0  0  0  0  0  0
   -1.1670    0.5487    0.0000 H   0  0  0  0  0  0  0  0  0  0  0  0
  1  2  1  0  0  0  0
  2  3  4  0  0  0  0
  3  4  4  0  0  0  0
  4  5  4  0  0  0  0
  5  6  4  0  0  0  0
  6  7  4  0  0  0  0
  2  7  4  0  0  0  0
  7  8  1  0  0  0  0
  8  9  1  0  0  0  0
  5 10  1  0  0  0  0
 10 11  2  0  0  0  0
 10 12  2  0  0  0  0
  1 13  1  0  0  0  0
  3 14  1  0  0  0  0
  4 15  1  0  0  0  0
  6 16  1  0  0  0  0
  8 17  1  0  0  0  0
  8 18  1  0  0  0  0
M  END
>  <InChIKey>
PJNPZIYGODMAQE-UHFFFAOYSA-N

>  <UN GHS>
Non-irritant

>  <CASRN>
68783-41-5

> <Outcome>
0

>  <Index>
593

>  <StandardizerResult>
Dearomatize (ID: Dearomatize)
Clear Stereo (ID: ClearStereo)
Wedge Clean (ID: WedgeClean)
Mesomerize (ID: Mesomerize)
Tautomerize (ID: Tautomerize)
Aromatize (ID: Aromatize)
Add Explicit Hydrogens (ID: AddExplicitH)
Neutralize (ID: Neutralize)
Clean 2D (ID: Clean2D)

> <knn Distance>
3.87298345565796

> <CpId>
593

$$$$
612
  Mrv1532301301811342D          

176176  0  0  0  0            999 V2000
   -7.8501   -8.0744    0.0000 C   0  0  0  0  0  0  0  0  0  0  0  0
   -7.1356   -8.4869    0.0000 C   0  0  0  0  0  0  0  0  0  0  0  0
   -6.4211   -8.0744    0.0000 C   0  0  0  0  0  0  0  0  0  0  0  0
   -5.7067   -8.4869    0.0000 C   0  0  0  0  0  0  0  0  0  0  0  0
   -4.9922   -8.0744    0.0000 C   0  0  0  0  0  0  0  0  0  0  0  0
   -4.2777   -8.4869    0.0000 C   0  0  0  0  0  0  0  0  0  0  0  0
   -3.5632   -8.0744    0.0000 C   0  0  0  0  0  0  0  0  0  0  0  0
   -2.8488   -8.4869    0.0000 C   0  0  0  0  0  0  0  0  0  0  0  0
   -2.1343   -8.0744    0.0000 C   0  0  0  0  0  0  0  0  0  0  0  0
   -1.4198   -8.4869    0.0000 C   0  0  0  0  0  0  0  0  0  0  0  0
   -0.7054   -8.0744    0.0000 C   0  0  0  0  0  0  0  0  0  0  0  0
   -0.7054   -7.2494    0.0000 C   0  0  0  0  0  0  0  0  0  0  0  0
    0.0091   -6.8369    0.0000 C   0  0  0  0  0  0  0  0  0  0  0  0
    0.0091   -6.0119    0.0000 C   0  0  0  0  0  0  0  0  0  0  0  0
    0.7236   -5.5994    0.0000 C   0  0  0  0  0  0  0  0  0  0  0  0
    0.7236   -4.7744    0.0000 C   0  0  0  0  0  0  0  0  0  0  0  0
    1.4380   -4.3619    0.0000 C   0  0  0  0  0  0  0  0  0  0  0  0
    1.4380   -3.5369    0.0000 C   0  0  0  0  0  0  0  0  0  0  0  0
    0.7236   -3.1244    0.0000 O   0  0  0  0  0  0  0  0  0  0  0  0
    2.1525   -3.1244    0.0000 O   0  0  0  0  0  0  0  0  0  0  0  0
    2.1525   -2.2994    0.0000 C   0  0  0  0  0  0  0  0  0  0  0  0
    2.8670   -1.8869    0.0000 C   0  0  0  0  0  0  0  0  0  0  0  0
    3.5815   -2.2994    0.0000 O   0  0  0  0  0  0  0  0  0  0  0  0
    3.5815   -3.1244    0.0000 C   0  0  0  0  0  0  0  0  0  0  0  0
    2.8670   -3.5369    0.0000 O   0  0  0  0  0  0  0  0  0  0  0  0
    4.2959   -3.5369    0.0000 C   0  0  0  0  0  0  0  0  0  0  0  0
    4.2959   -4.3619    0.0000 C   0  0  0  0  0  0  0  0  0  0  0  0
    5.0104   -4.7744    0.0000 C   0  0  0  0  0  0  0  0  0  0  0  0
    5.0104   -5.5994    0.0000 C   0  0  0  0  0  0  0  0  0  0  0  0
    5.7249   -6.0119    0.0000 C   0  0  0  0  0  0  0  0  0  0  0  0
    5.7249   -6.8369    0.0000 C   0  0  0  0  0  0  0  0  0  0  0  0
    6.4393   -7.2494    0.0000 C   0  0  0  0  0  0  0  0  0  0  0  0
    6.4393   -8.0744    0.0000 C   0  0  0  0  0  0  0  0  0  0  0  0
    7.1538   -8.4869    0.0000 C   0  0  0  0  0  0  0  0  0  0  0  0
    7.1538   -9.3119    0.0000 C   0  0  0  0  0  0  0  0  0  0  0  0
    6.4393   -9.7244    0.0000 C   0  0  0  0  0  0  0  0  0  0  0  0
    6.4393  -10.5494    0.0000 C   0  0  0  0  0  0  0  0  0  0  0  0
    5.7249  -10.9619    0.0000 C   0  0  0  0  0  0  0  0  0  0  0  0
    5.7249  -11.7869    0.0000 C   0  0  0  0  0  0  0  0  0  0  0  0
    5.0104  -12.1994    0.0000 C   0  0  0  0  0  0  0  0  0  0  0  0
    5.0104  -13.0244    0.0000 C   0  0  0  0  0  0  0  0  0  0  0  0
    4.2959  -13.4369    0.0000 C   0  0  0  0  0  0  0  0  0  0  0  0
    2.8670   -1.0619    0.0000 C   0  0  0  0  0  0  0  0  0  0  0  0
    2.1996   -0.5770    0.0000 O   0  0  0  0  0  0  0  0  0  0  0  0
    2.4545    0.2076    0.0000 C   0  0  0  0  0  0  0  0  0  0  0  0
    3.2795    0.2076    0.0000 C   0  0  0  0  0  0  0  0  0  0  0  0
    3.7644    0.8751    0.0000 O   0  0  0  0  0  0  0  0  0  0  0  0
    3.5344   -0.5770    0.0000 C   0  0  0  0  0  0  0  0  0  0  0  0
    4.3191   -0.8319    0.0000 O   0  0  0  0  0  0  0  0  0  0  0  0
    4.9321   -0.2799    0.0000 C   0  0  0  0  0  0  0  0  0  0  0  0
    4.7606    0.5271    0.0000 O   0  0  0  0  0  0  0  0  0  0  0  0
    5.7168   -0.5348    0.0000 C   0  0  0  0  0  0  0  0  0  0  0  0
    6.3299    0.0172    0.0000 C   0  0  0  0  0  0  0  0  0  0  0  0
    7.1145   -0.2377    0.0000 C   0  0  0  0  0  0  0  0  0  0  0  0
    7.7276    0.3143    0.0000 C   0  0  0  0  0  0  0  0  0  0  0  0
    8.5122    0.0594    0.0000 C   0  0  0  0  0  0  0  0  0  0  0  0
    9.1253    0.6114    0.0000 C   0  0  0  0  0  0  0  0  0  0  0  0
    9.9099    0.3565    0.0000 C   0  0  0  0  0  0  0  0  0  0  0  0
   10.5230    0.9085    0.0000 C   0  0  0  0  0  0  0  0  0  0  0  0
   11.3076    0.6536    0.0000 C   0  0  0  0  0  0  0  0  0  0  0  0
   11.9207    1.2056    0.0000 C   0  0  0  0  0  0  0  0  0  0  0  0
   11.7492    2.0126    0.0000 C   0  0  0  0  0  0  0  0  0  0  0  0
   12.3623    2.5646    0.0000 C   0  0  0  0  0  0  0  0  0  0  0  0
   12.1908    3.3716    0.0000 C   0  0  0  0  0  0  0  0  0  0  0  0
   12.8039    3.9236    0.0000 C   0  0  0  0  0  0  0  0  0  0  0  0
   12.6323    4.7306    0.0000 C   0  0  0  0  0  0  0  0  0  0  0  0
   13.2454    5.2826    0.0000 C   0  0  0  0  0  0  0  0  0  0  0  0
   13.0739    6.0896    0.0000 C   0  0  0  0  0  0  0  0  0  0  0  0
   -7.4376   -7.3599    0.0000 H   0  0  0  0  0  0  0  0  0  0  0  0
   -8.5645   -7.6619    0.0000 H   0  0  0  0  0  0  0  0  0  0  0  0
   -8.2626   -8.7889    0.0000 H   0  0  0  0  0  0  0  0  0  0  0  0
   -7.5059   -9.2241    0.0000 H   0  0  0  0  0  0  0  0  0  0  0  0
   -6.7653   -9.2241    0.0000 H   0  0  0  0  0  0  0  0  0  0  0  0
   -6.0509   -7.3372    0.0000 H   0  0  0  0  0  0  0  0  0  0  0  0
   -6.7914   -7.3372    0.0000 H   0  0  0  0  0  0  0  0  0  0  0  0
   -6.0769   -9.2241    0.0000 H   0  0  0  0  0  0  0  0  0  0  0  0
   -5.3364   -9.2241    0.0000 H   0  0  0  0  0  0  0  0  0  0  0  0
   -4.6219   -7.3372    0.0000 H   0  0  0  0  0  0  0  0  0  0  0  0
   -5.3624   -7.3372    0.0000 H   0  0  0  0  0  0  0  0  0  0  0  0
   -4.6480   -9.2241    0.0000 H   0  0  0  0  0  0  0  0  0  0  0  0
   -3.9075   -9.2241    0.0000 H   0  0  0  0  0  0  0  0  0  0  0  0
   -3.1930   -7.3372    0.0000 H   0  0  0  0  0  0  0  0  0  0  0  0
   -3.9335   -7.3372    0.0000 H   0  0  0  0  0  0  0  0  0  0  0  0
   -3.2190   -9.2241    0.0000 H   0  0  0  0  0  0  0  0  0  0  0  0
   -2.4785   -9.2241    0.0000 H   0  0  0  0  0  0  0  0  0  0  0  0
   -2.1343   -7.2494    0.0000 H   0  0  0  0  0  0  0  0  0  0  0  0
   -1.4198   -9.3119    0.0000 H   0  0  0  0  0  0  0  0  0  0  0  0
   -0.2520   -8.7637    0.0000 H   0  0  0  0  0  0  0  0  0  0  0  0
    0.1182   -8.1224    0.0000 H   0  0  0  0  0  0  0  0  0  0  0  0
   -1.1587   -6.5601    0.0000 H   0  0  0  0  0  0  0  0  0  0  0  0
   -1.5290   -7.2014    0.0000 H   0  0  0  0  0  0  0  0  0  0  0  0
    0.4625   -7.5262    0.0000 H   0  0  0  0  0  0  0  0  0  0  0  0
    0.8327   -6.8849    0.0000 H   0  0  0  0  0  0  0  0  0  0  0  0
   -0.4442   -5.3226    0.0000 H   0  0  0  0  0  0  0  0  0  0  0  0
   -0.8145   -5.9639    0.0000 H   0  0  0  0  0  0  0  0  0  0  0  0
    1.1769   -6.2887    0.0000 H   0  0  0  0  0  0  0  0  0  0  0  0
    1.5472   -5.6474    0.0000 H   0  0  0  0  0  0  0  0  0  0  0  0
    0.2702   -4.0851    0.0000 H   0  0  0  0  0  0  0  0  0  0  0  0
   -0.1000   -4.7264    0.0000 H   0  0  0  0  0  0  0  0  0  0  0  0
    1.8914   -5.0512    0.0000 H   0  0  0  0  0  0  0  0  0  0  0  0
    2.2617   -4.4099    0.0000 H   0  0  0  0  0  0  0  0  0  0  0  0
    1.6992   -1.6101    0.0000 H   0  0  0  0  0  0  0  0  0  0  0  0
    1.3289   -2.2514    0.0000 H   0  0  0  0  0  0  0  0  0  0  0  0
    2.8670   -2.7119    0.0000 H   0  0  0  0  0  0  0  0  0  0  0  0
    5.1195   -3.4889    0.0000 H   0  0  0  0  0  0  0  0  0  0  0  0
    4.7493   -2.8476    0.0000 H   0  0  0  0  0  0  0  0  0  0  0  0
    3.4723   -4.4099    0.0000 H   0  0  0  0  0  0  0  0  0  0  0  0
    3.8426   -5.0512    0.0000 H   0  0  0  0  0  0  0  0  0  0  0  0
    5.8340   -4.7264    0.0000 H   0  0  0  0  0  0  0  0  0  0  0  0
    5.4637   -4.0851    0.0000 H   0  0  0  0  0  0  0  0  0  0  0  0
    4.1868   -5.6474    0.0000 H   0  0  0  0  0  0  0  0  0  0  0  0
    4.5571   -6.2887    0.0000 H   0  0  0  0  0  0  0  0  0  0  0  0
    6.5485   -5.9639    0.0000 H   0  0  0  0  0  0  0  0  0  0  0  0
    6.1782   -5.3226    0.0000 H   0  0  0  0  0  0  0  0  0  0  0  0
    4.9013   -6.8849    0.0000 H   0  0  0  0  0  0  0  0  0  0  0  0
    5.2715   -7.5262    0.0000 H   0  0  0  0  0  0  0  0  0  0  0  0
    7.2630   -7.2014    0.0000 H   0  0  0  0  0  0  0  0  0  0  0  0
    6.8927   -6.5601    0.0000 H   0  0  0  0  0  0  0  0  0  0  0  0
    5.7249   -8.4869    0.0000 H   0  0  0  0  0  0  0  0  0  0  0  0
    7.8683   -8.0744    0.0000 H   0  0  0  0  0  0  0  0  0  0  0  0
    7.6072  -10.0012    0.0000 H   0  0  0  0  0  0  0  0  0  0  0  0
    7.9774   -9.3599    0.0000 H   0  0  0  0  0  0  0  0  0  0  0  0
    5.9860   -9.0351    0.0000 H   0  0  0  0  0  0  0  0  0  0  0  0
    5.6157   -9.6764    0.0000 H   0  0  0  0  0  0  0  0  0  0  0  0
    6.8927  -11.2387    0.0000 H   0  0  0  0  0  0  0  0  0  0  0  0
    7.2630  -10.5974    0.0000 H   0  0  0  0  0  0  0  0  0  0  0  0
    5.2715  -10.2726    0.0000 H   0  0  0  0  0  0  0  0  0  0  0  0
    4.9013  -10.9139    0.0000 H   0  0  0  0  0  0  0  0  0  0  0  0
    6.1782  -12.4762    0.0000 H   0  0  0  0  0  0  0  0  0  0  0  0
    6.5485  -11.8349    0.0000 H   0  0  0  0  0  0  0  0  0  0  0  0
    4.5571  -11.5101    0.0000 H   0  0  0  0  0  0  0  0  0  0  0  0
    4.1868  -12.1514    0.0000 H   0  0  0  0  0  0  0  0  0  0  0  0
    5.4637  -13.7137    0.0000 H   0  0  0  0  0  0  0  0  0  0  0  0
    5.8340  -13.0724    0.0000 H   0  0  0  0  0  0  0  0  0  0  0  0
    3.8834  -12.7224    0.0000 H   0  0  0  0  0  0  0  0  0  0  0  0
    3.5815  -13.8494    0.0000 H   0  0  0  0  0  0  0  0  0  0  0  0
    4.7084  -14.1514    0.0000 H   0  0  0  0  0  0  0  0  0  0  0  0
    3.6021   -1.4364    0.0000 H   0  0  0  0  0  0  0  0  0  0  0  0
    2.3397    1.0246    0.0000 H   0  0  0  0  0  0  0  0  0  0  0  0
    1.7130    0.5693    0.0000 H   0  0  0  0  0  0  0  0  0  0  0  0
    4.0943    0.0786    0.0000 H   0  0  0  0  0  0  0  0  0  0  0  0
    3.8614    1.6944    0.0000 H   0  0  0  0  0  0  0  0  0  0  0  0
    2.7498   -0.3220    0.0000 H   0  0  0  0  0  0  0  0  0  0  0  0
    5.5079   -1.3329    0.0000 H   0  0  0  0  0  0  0  0  0  0  0  0
    6.2322   -1.1790    0.0000 H   0  0  0  0  0  0  0  0  0  0  0  0
    6.5387    0.8153    0.0000 H   0  0  0  0  0  0  0  0  0  0  0  0
    5.8144    0.6614    0.0000 H   0  0  0  0  0  0  0  0  0  0  0  0
    6.9056   -1.0358    0.0000 H   0  0  0  0  0  0  0  0  0  0  0  0
    7.6299   -0.8819    0.0000 H   0  0  0  0  0  0  0  0  0  0  0  0
    7.9365    1.1124    0.0000 H   0  0  0  0  0  0  0  0  0  0  0  0
    7.2121    0.9585    0.0000 H   0  0  0  0  0  0  0  0  0  0  0  0
    8.3033   -0.7388    0.0000 H   0  0  0  0  0  0  0  0  0  0  0  0
    9.0277   -0.5848    0.0000 H   0  0  0  0  0  0  0  0  0  0  0  0
    9.3342    1.4095    0.0000 H   0  0  0  0  0  0  0  0  0  0  0  0
    8.6098    1.2556    0.0000 H   0  0  0  0  0  0  0  0  0  0  0  0
    9.7010   -0.4417    0.0000 H   0  0  0  0  0  0  0  0  0  0  0  0
   10.4254   -0.2877    0.0000 H   0  0  0  0  0  0  0  0  0  0  0  0
   10.3515    1.7155    0.0000 H   0  0  0  0  0  0  0  0  0  0  0  0
   11.4792   -0.1534    0.0000 H   0  0  0  0  0  0  0  0  0  0  0  0
   12.5075    0.6256    0.0000 H   0  0  0  0  0  0  0  0  0  0  0  0
   12.7363    1.3299    0.0000 H   0  0  0  0  0  0  0  0  0  0  0  0
   11.1625    2.5925    0.0000 H   0  0  0  0  0  0  0  0  0  0  0  0
   10.9336    1.8882    0.0000 H   0  0  0  0  0  0  0  0  0  0  0  0
   12.9490    1.9846    0.0000 H   0  0  0  0  0  0  0  0  0  0  0  0
   13.1779    2.6889    0.0000 H   0  0  0  0  0  0  0  0  0  0  0  0
   11.6040    3.9515    0.0000 H   0  0  0  0  0  0  0  0  0  0  0  0
   11.3752    3.2472    0.0000 H   0  0  0  0  0  0  0  0  0  0  0  0
   13.3906    3.3436    0.0000 H   0  0  0  0  0  0  0  0  0  0  0  0
   13.6194    4.0479    0.0000 H   0  0  0  0  0  0  0  0  0  0  0  0
   12.0456    5.3105    0.0000 H   0  0  0  0  0  0  0  0  0  0  0  0
   11.8168    4.6063    0.0000 H   0  0  0  0  0  0  0  0  0  0  0  0
   13.8322    4.7026    0.0000 H   0  0  0  0  0  0  0  0  0  0  0  0
   14.0610    5.4069    0.0000 H   0  0  0  0  0  0  0  0  0  0  0  0
   13.8809    6.2611    0.0000 H   0  0  0  0  0  0  0  0  0  0  0  0
   12.9024    6.8965    0.0000 H   0  0  0  0  0  0  0  0  0  0  0  0
   12.2669    5.9180    0.0000 H   0  0  0  0  0  0  0  0  0  0  0  0
  1  2  1  0  0  0  0
  2  3  1  0  0  0  0
  3  4  1  0  0  0  0
  4  5  1  0  0  0  0
  5  6  1  0  0  0  0
  6  7  1  0  0  0  0
  7  8  1  0  0  0  0
  9  8  1  0  0  0  0
  9 10  2  0  0  0  0
 10 11  1  0  0  0  0
 11 12  1  0  0  0  0
 12 13  1  0  0  0  0
 13 14  1  0  0  0  0
 14 15  1  0  0  0  0
 15 16  1  0  0  0  0
 16 17  1  0  0  0  0
 17 18  1  0  0  0  0
 18 19  2  0  0  0  0
 18 20  1  0  0  0  0
 20 21  1  0  0  0  0
 21 22  1  0  0  0  0
 22 23  1  0  0  0  0
 23 24  1  0  0  0  0
 24 25  2  0  0  0  0
 24 26  1  0  0  0  0
 26 27  1  0  0  0  0
 27 28  1  0  0  0  0
 28 29  1  0  0  0  0
 29 30  1  0  0  0  0
 30 31  1  0  0  0  0
 31 32  1  0  0  0  0
 33 32  1  0  0  0  0
 33 34  2  0  0  0  0
 34 35  1  0  0  0  0
 35 36  1  0  0  0  0
 36 37  1  0  0  0  0
 37 38  1  0  0  0  0
 38 39  1  0  0  0  0
 39 40  1  0  0  0  0
 40 41  1  0  0  0  0
 41 42  1  0  0  0  0
 22 43  1  0  0  0  0
 43 44  1  0  0  0  0
 44 45  1  0  0  0  0
 45 46  1  0  0  0  0
 46 47  1  0  0  0  0
 46 48  1  0  0  0  0
 43 48  1  0  0  0  0
 48 49  1  0  0  0  0
 49 50  1  0  0  0  0
 50 51  2  0  0  0  0
 50 52  1  0  0  0  0
 52 53  1  0  0  0  0
 53 54  1  0  0  0  0
 54 55  1  0  0  0  0
 55 56  1  0  0  0  0
 56 57  1  0  0  0  0
 57 58  1  0  0  0  0
 59 58  1  0  0  0  0
 59 60  2  0  0  0  0
 60 61  1  0  0  0  0
 61 62  1  0  0  0  0
 62 63  1  0  0  0  0
 63 64  1  0  0  0  0
 64 65  1  0  0  0  0
 65 66  1  0  0  0  0
 66 67  1  0  0  0  0
 67 68  1  0  0  0  0
  1 69  1  0  0  0  0
  1 70  1  0  0  0  0
  1 71  1  0  0  0  0
  2 72  1  0  0  0  0
  2 73  1  0  0  0  0
  3 74  1  0  0  0  0
  3 75  1  0  0  0  0
  4 76  1  0  0  0  0
  4 77  1  0  0  0  0
  5 78  1  0  0  0  0
  5 79  1  0  0  0  0
  6 80  1  0  0  0  0
  6 81  1  0  0  0  0
  7 82  1  0  0  0  0
  7 83  1  0  0  0  0
  8 84  1  0  0  0  0
  8 85  1  0  0  0  0
  9 86  1  4  0  0  0
 10 87  1  0  0  0  0
 11 88  1  0  0  0  0
 11 89  1  0  0  0  0
 12 90  1  0  0  0  0
 12 91  1  0  0  0  0
 13 92  1  0  0  0  0
 13 93  1  0  0  0  0
 14 94  1  0  0  0  0
 14 95  1  0  0  0  0
 15 96  1  0  0  0  0
 15 97  1  0  0  0  0
 16 98  1  0  0  0  0
 16 99  1  0  0  0  0
 17100  1  0  0  0  0
 17101  1  0  0  0  0
 21102  1  0  0  0  0
 21103  1  0  0  0  0
 22104  1  0  0  0  0
 26105  1  0  0  0  0
 26106  1  0  0  0  0
 27107  1  0  0  0  0
 27108  1  0  0  0  0
 28109  1  0  0  0  0
 28110  1  0  0  0  0
 29111  1  0  0  0  0
 29112  1  0  0  0  0
 30113  1  0  0  0  0
 30114  1  0  0  0  0
 31115  1  0  0  0  0
 31116  1  0  0  0  0
 32117  1  0  0  0  0
 32118  1  0  0  0  0
 33119  1  4  0  0  0
 34120  1  0  0  0  0
 35121  1  0  0  0  0
 35122  1  0  0  0  0
 36123  1  0  0  0  0
 36124  1  0  0  0  0
 37125  1  0  0  0  0
 37126  1  0  0  0  0
 38127  1  0  0  0  0
 38128  1  0  0  0  0
 39129  1  0  0  0  0
 39130  1  0  0  0  0
 40131  1  0  0  0  0
 40132  1  0  0  0  0
 41133  1  0  0  0  0
 41134  1  0  0  0  0
 42135  1  0  0  0  0
 42136  1  0  0  0  0
 42137  1  0  0  0  0
 43138  1  0  0  0  0
 45139  1  0  0  0  0
 45140  1  0  0  0  0
 46141  1  0  0  0  0
 47142  1  0  0  0  0
 48143  1  0  0  0  0
 52144  1  0  0  0  0
 52145  1  0  0  0  0
 53146  1  0  0  0  0
 53147  1  0  0  0  0
 54148  1  0  0  0  0
 54149  1  0  0  0  0
 55150  1  0  0  0  0
 55151  1  0  0  0  0
 56152  1  0  0  0  0
 56153  1  0  0  0  0
 57154  1  0  0  0  0
 57155  1  0  0  0  0
 58156  1  0  0  0  0
 58157  1  0  0  0  0
 59158  1  4  0  0  0
 60159  1  0  0  0  0
 61160  1  0  0  0  0
 61161  1  0  0  0  0
 62162  1  0  0  0  0
 62163  1  0  0  0  0
 63164  1  0  0  0  0
 63165  1  0  0  0  0
 64166  1  0  0  0  0
 64167  1  0  0  0  0
 65168  1  0  0  0  0
 65169  1  0  0  0  0
 66170  1  0  0  0  0
 66171  1  0  0  0  0
 67172  1  0  0  0  0
 67173  1  0  0  0  0
 68174  1  0  0  0  0
 68175  1  0  0  0  0
 68176  1  0  0  0  0
M  END
>  <InChIKey>
PRXRUNOAOLTIEF-UHFFFAOYSA-N

>  <UN GHS>
Non-irritant

>  <CASRN>
26266-58-0

> <Outcome>
0

>  <Index>
612

>  <StandardizerResult>
Clear Stereo (ID: ClearStereo)
Wedge Clean (ID: WedgeClean)
Mesomerize (ID: Mesomerize)
Tautomerize (ID: Tautomerize)
Add Explicit Hydrogens (ID: AddExplicitH)
Neutralize (ID: Neutralize)
Clean 2D (ID: Clean2D)

> <knn Distance>
3.87298345565796

> <CpId>
612

$$$$
628
  Mrv1532301301811342D          

  7  6  0  0  0  0            999 V2000
    0.8250   -0.8250    0.0000 O   0  0  0  0  0  0  0  0  0  0  0  0
    0.8250    0.0000    0.0000 S   0  0  0  0  0  0  0  0  0  0  0  0
    0.8250    0.8250    0.0000 O   0  0  0  0  0  0  0  0  0  0  0  0
    1.6500   -0.0000    0.0000 O   0  0  0  0  0  0  0  0  0  0  0  0
    0.0000    0.0000    0.0000 O   0  0  0  0  0  0  0  0  0  0  0  0
    0.1105   -1.2375    0.0000 H   0  0  0  0  0  0  0  0  0  0  0  0
    1.5395    1.2375    0.0000 H   0  0  0  0  0  0  0  0  0  0  0  0
  1  2  1  0  0  0  0
  2  3  1  0  0  0  0
  2  4  2  0  0  0  0
  2  5  2  0  0  0  0
  1  6  1  0  0  0  0
  3  7  1  0  0  0  0
M  END
>  <InChIKey>
QAOWNCQODCNURD-UHFFFAOYSA-N

>  <UN GHS>
Non-irritant

>  <CASRN>
12777-87-6

> <Outcome>
0

>  <Index>
628

>  <StandardizerResult>
Clear Stereo (ID: ClearStereo)
Wedge Clean (ID: WedgeClean)
Mesomerize (ID: Mesomerize)
Tautomerize (ID: Tautomerize)
Add Explicit Hydrogens (ID: AddExplicitH)
Neutralize (ID: Neutralize)
Clean 2D (ID: Clean2D)

> <knn Distance>
3.87298345565796

> <CpId>
628

$$$$
647
  Mrv1532301301811342D          

 50 49  0  0  0  0            999 V2000
    9.2391    5.3719    0.0000 O   0  0  0  0  0  0  0  0  0  0  0  0
    8.5246    5.7844    0.0000 C   0  0  0  0  0  0  0  0  0  0  0  0
    8.5246    6.6094    0.0000 O   0  0  0  0  0  0  0  0  0  0  0  0
    7.8102    5.3719    0.0000 C   0  0  0  0  0  0  0  0  0  0  0  0
    7.8102    4.5469    0.0000 N   0  0  0  0  0  0  0  0  0  0  0  0
    7.0957    4.1344    0.0000 C   0  0  0  0  0  0  0  0  0  0  0  0
    6.3812    4.5469    0.0000 C   0  0  0  0  0  0  0  0  0  0  0  0
    5.6668    4.1344    0.0000 N   0  0  0  0  0  0  0  0  0  0  0  0
    4.9523    4.5469    0.0000 C   0  0  0  0  0  0  0  0  0  0  0  0
    4.9523    5.3719    0.0000 C   0  0  0  0  0  0  0  0  0  0  0  0
    5.6668    5.7844    0.0000 O   0  0  0  0  0  0  0  0  0  0  0  0
    4.2378    5.7844    0.0000 O   0  0  0  0  0  0  0  0  0  0  0  0
    5.6668    3.3094    0.0000 C   0  0  0  0  0  0  0  0  0  0  0  0
    4.9523    2.8969    0.0000 C   0  0  0  0  0  0  0  0  0  0  0  0
    4.2378    3.3094    0.0000 O   0  0  0  0  0  0  0  0  0  0  0  0
    4.9523    2.0719    0.0000 O   0  0  0  0  0  0  0  0  0  0  0  0
    8.5246    4.1344    0.0000 C   0  0  0  0  0  0  0  0  0  0  0  0
    9.2391    4.5469    0.0000 C   0  0  0  0  0  0  0  0  0  0  0  0
    9.9536    4.1344    0.0000 N   0  0  0  0  0  0  0  0  0  0  0  0
   10.6681    4.5469    0.0000 C   0  0  0  0  0  0  0  0  0  0  0  0
   10.6681    5.3719    0.0000 C   0  0  0  0  0  0  0  0  0  0  0  0
    9.9536    5.7844    0.0000 O   0  0  0  0  0  0  0  0  0  0  0  0
   11.3825    5.7844    0.0000 O   0  0  0  0  0  0  0  0  0  0  0  0
    9.9536    3.3094    0.0000 C   0  0  0  0  0  0  0  0  0  0  0  0
   10.6681    2.8969    0.0000 C   0  0  0  0  0  0  0  0  0  0  0  0
   11.3825    3.3094    0.0000 O   0  0  0  0  0  0  0  0  0  0  0  0
   10.6681    2.0719    0.0000 O   0  0  0  0  0  0  0  0  0  0  0  0
    9.9536    4.9594    0.0000 H   0  0  0  0  0  0  0  0  0  0  0  0
    7.3568    6.0612    0.0000 H   0  0  0  0  0  0  0  0  0  0  0  0
    6.9866    5.4199    0.0000 H   0  0  0  0  0  0  0  0  0  0  0  0
    6.7254    3.3972    0.0000 H   0  0  0  0  0  0  0  0  0  0  0  0
    7.4660    3.3972    0.0000 H   0  0  0  0  0  0  0  0  0  0  0  0
    6.7515    5.2842    0.0000 H   0  0  0  0  0  0  0  0  0  0  0  0
    6.0110    5.2842    0.0000 H   0  0  0  0  0  0  0  0  0  0  0  0
    4.1287    4.4990    0.0000 H   0  0  0  0  0  0  0  0  0  0  0  0
    4.4989    3.8577    0.0000 H   0  0  0  0  0  0  0  0  0  0  0  0
    5.8486    6.5891    0.0000 H   0  0  0  0  0  0  0  0  0  0  0  0
    6.1201    2.6202    0.0000 H   0  0  0  0  0  0  0  0  0  0  0  0
    6.4904    3.2615    0.0000 H   0  0  0  0  0  0  0  0  0  0  0  0
    3.4500    3.0646    0.0000 H   0  0  0  0  0  0  0  0  0  0  0  0
    8.1544    3.3972    0.0000 H   0  0  0  0  0  0  0  0  0  0  0  0
    8.8949    3.3972    0.0000 H   0  0  0  0  0  0  0  0  0  0  0  0
    8.5246    4.9594    0.0000 H   0  0  0  0  0  0  0  0  0  0  0  0
    9.2391    3.7219    0.0000 H   0  0  0  0  0  0  0  0  0  0  0  0
   11.1214    3.8577    0.0000 H   0  0  0  0  0  0  0  0  0  0  0  0
   11.4917    4.4990    0.0000 H   0  0  0  0  0  0  0  0  0  0  0  0
    9.9536    6.6094    0.0000 H   0  0  0  0  0  0  0  0  0  0  0  0
    9.3216    2.7791    0.0000 H   0  0  0  0  0  0  0  0  0  0  0  0
    9.8103    2.4970    0.0000 H   0  0  0  0  0  0  0  0  0  0  0  0
   12.1704    3.0646    0.0000 H   0  0  0  0  0  0  0  0  0  0  0  0
  1  2  1  0  0  0  0
  2  3  2  0  0  0  0
  2  4  1  0  0  0  0
  4  5  1  0  0  0  0
  5  6  1  0  0  0  0
  6  7  1  0  0  0  0
  7  8  1  0  0  0  0
  8  9  1  0  0  0  0
  9 10  1  0  0  0  0
 10 11  1  0  0  0  0
 10 12  2  0  0  0  0
  8 13  1  0  0  0  0
 13 14  1  0  0  0  0
 14 15  1  0  0  0  0
 14 16  2  0  0  0  0
  5 17  1  0  0  0  0
 17 18  1  0  0  0  0
 18 19  1  0  0  0  0
 19 20  1  0  0  0  0
 20 21  1  0  0  0  0
 21 22  1  0  0  0  0
 21 23  2  0  0  0  0
 19 24  1  0  0  0  0
 24 25  1  0  0  0  0
 25 26  1  0  0  0  0
 25 27  2  0  0  0  0
  1 28  1  0  0  0  0
  4 29  1  0  0  0  0
  4 30  1  0  0  0  0
  6 31  1  0  0  0  0
  6 32  1  0  0  0  0
  7 33  1  0  0  0  0
  7 34  1  0  0  0  0
  9 35  1  0  0  0  0
  9 36  1  0  0  0  0
 11 37  1  0  0  0  0
 13 38  1  0  0  0  0
 13 39  1  0  0  0  0
 15 40  1  0  0  0  0
 17 41  1  0  0  0  0
 17 42  1  0  0  0  0
 18 43  1  0  0  0  0
 18 44  1  0  0  0  0
 20 45  1  0  0  0  0
 20 46  1  0  0  0  0
 22 47  1  0  0  0  0
 24 48  1  0  0  0  0
 24 49  1  0  0  0  0
 26 50  1  0  0  0  0
M  END
>  <InChIKey>
QPCDCPDFJACHGM-UHFFFAOYSA-I

>  <UN GHS>
Non-irritant

>  <CASRN>
140-01-2

> <Outcome>
0

>  <Index>
647

>  <StandardizerResult>
Clear Stereo (ID: ClearStereo)
Wedge Clean (ID: WedgeClean)
Mesomerize (ID: Mesomerize)
Tautomerize (ID: Tautomerize)
Add Explicit Hydrogens (ID: AddExplicitH)
Neutralize (ID: Neutralize)
Clean 2D (ID: Clean2D)

> <knn Distance>
3.87298345565796

> <CpId>
647

$$$$
688
  Mrv1532301301811342D          

 52 54  0  0  0  0            999 V2000
   -3.4933   -0.1322    0.0000 C   0  0  0  0  0  0  0  0  0  0  0  0
   -3.0808   -0.8467    0.0000 C   0  0  0  0  0  0  0  0  0  0  0  0
   -3.4933   -1.5611    0.0000 C   0  0  0  0  0  0  0  0  0  0  0  0
   -2.2558   -0.8467    0.0000 C   0  0  0  0  0  0  0  0  0  0  0  0
   -1.8433   -1.5611    0.0000 C   0  0  0  0  0  0  0  0  0  0  0  0
   -1.0183   -1.5611    0.0000 C   0  0  0  0  0  0  0  0  0  0  0  0
   -0.6058   -2.2756    0.0000 C   0  0  0  0  0  0  0  0  0  0  0  0
    0.2192   -2.2756    0.0000 C   0  0  0  0  0  0  0  0  0  0  0  0
    0.6317   -1.5611    0.0000 C   0  0  0  0  0  0  0  0  0  0  0  0
    0.2192   -0.8467    0.0000 C   0  0  0  0  0  0  0  0  0  0  0  0
   -0.1933   -0.1322    0.0000 C   0  0  0  0  0  0  0  0  0  0  0  0
    0.6317   -0.1322    0.0000 C   0  0  0  0  0  0  0  0  0  0  0  0
    1.4567   -0.1322    0.0000 C   0  0  0  0  0  0  0  0  0  0  0  0
    1.8692   -0.8467    0.0000 C   0  0  0  0  0  0  0  0  0  0  0  0
    1.4567   -1.5611    0.0000 C   0  0  0  0  0  0  0  0  0  0  0  0
    2.1564   -1.9983    0.0000 C   0  0  0  0  0  0  0  0  0  0  0  0
    1.4855   -2.3856    0.0000 C   0  0  0  0  0  0  0  0  0  0  0  0
    2.2140   -2.7730    0.0000 O   0  0  0  0  0  0  0  0  0  0  0  0
    0.7859   -2.8228    0.0000 O   0  0  0  0  0  0  0  0  0  0  0  0
   -0.6058   -0.8467    0.0000 C   0  0  0  0  0  0  0  0  0  0  0  0
   -1.0183   -0.1322    0.0000 C   0  0  0  0  0  0  0  0  0  0  0  0
   -1.8433   -0.1322    0.0000 C   0  0  0  0  0  0  0  0  0  0  0  0
   -2.7788    0.2803    0.0000 H   0  0  0  0  0  0  0  0  0  0  0  0
   -3.9058    0.5823    0.0000 H   0  0  0  0  0  0  0  0  0  0  0  0
   -4.2077   -0.5447    0.0000 H   0  0  0  0  0  0  0  0  0  0  0  0
   -3.9058   -0.8467    0.0000 H   0  0  0  0  0  0  0  0  0  0  0  0
   -4.2901   -1.7747    0.0000 H   0  0  0  0  0  0  0  0  0  0  0  0
   -3.4933   -2.3861    0.0000 H   0  0  0  0  0  0  0  0  0  0  0  0
   -2.6964   -1.7747    0.0000 H   0  0  0  0  0  0  0  0  0  0  0  0
   -1.7423   -2.3799    0.0000 H   0  0  0  0  0  0  0  0  0  0  0  0
   -1.0183   -2.9901    0.0000 H   0  0  0  0  0  0  0  0  0  0  0  0
   -0.0898   -3.0405    0.0000 H   0  0  0  0  0  0  0  0  0  0  0  0
   -0.1933   -1.5611    0.0000 H   0  0  0  0  0  0  0  0  0  0  0  0
    1.0442   -0.8467    0.0000 H   0  0  0  0  0  0  0  0  0  0  0  0
    0.3901    0.4512    0.0000 H   0  0  0  0  0  0  0  0  0  0  0  0
   -0.1933    0.6928    0.0000 H   0  0  0  0  0  0  0  0  0  0  0  0
   -0.7766    0.4512    0.0000 H   0  0  0  0  0  0  0  0  0  0  0  0
    1.2863    0.3700    0.0000 H   0  0  0  0  0  0  0  0  0  0  0  0
    0.8453    0.6647    0.0000 H   0  0  0  0  0  0  0  0  0  0  0  0
    2.2800   -0.1862    0.0000 H   0  0  0  0  0  0  0  0  0  0  0  0
    1.9590    0.5223    0.0000 H   0  0  0  0  0  0  0  0  0  0  0  0
    2.2739   -1.5656    0.0000 H   0  0  0  0  0  0  0  0  0  0  0  0
    2.6940   -0.8647    0.0000 H   0  0  0  0  0  0  0  0  0  0  0  0
    2.7335   -2.5879    0.0000 H   0  0  0  0  0  0  0  0  0  0  0  0
    2.9776   -2.0770    0.0000 H   0  0  0  0  0  0  0  0  0  0  0  0
    2.8349   -1.5291    0.0000 H   0  0  0  0  0  0  0  0  0  0  0  0
    2.1536   -3.5957    0.0000 H   0  0  0  0  0  0  0  0  0  0  0  0
   -1.4308   -0.8467    0.0000 H   0  0  0  0  0  0  0  0  0  0  0  0
   -1.2318    0.6647    0.0000 H   0  0  0  0  0  0  0  0  0  0  0  0
   -1.6728    0.3700    0.0000 H   0  0  0  0  0  0  0  0  0  0  0  0
   -2.3455    0.5223    0.0000 H   0  0  0  0  0  0  0  0  0  0  0  0
   -2.6665   -0.1862    0.0000 H   0  0  0  0  0  0  0  0  0  0  0  0
  1  2  1  0  0  0  0
  2  3  1  0  0  0  0
  2  4  1  0  0  0  0
  4  5  2  0  0  0  0
  5  6  1  0  0  0  0
  6  7  2  0  0  0  0
  7  8  1  0  0  0  0
  8  9  1  0  0  0  0
  9 10  1  0  0  0  0
 10 11  1  0  0  0  0
 10 12  1  0  0  0  0
 12 13  1  0  0  0  0
 13 14  1  0  0  0  0
 14 15  1  0  0  0  0
  9 15  1  0  0  0  0
 15 16  1  0  0  0  0
 15 17  1  0  0  0  0
 17 18  1  0  0  0  0
 17 19  2  0  0  0  0
 10 20  1  0  0  0  0
  6 20  1  0  0  0  0
 20 21  1  0  0  0  0
 21 22  1  0  0  0  0
  4 22  1  0  0  0  0
  1 23  1  0  0  0  0
  1 24  1  0  0  0  0
  1 25  1  0  0  0  0
  2 26  1  0  0  0  0
  3 27  1  0  0  0  0
  3 28  1  0  0  0  0
  3 29  1  0  0  0  0
  5 30  1  0  0  0  0
  7 31  1  0  0  0  0
  8 32  1  0  0  0  0
  8 33  1  0  0  0  0
  9 34  1  0  0  0  0
 11 35  1  0  0  0  0
 11 36  1  0  0  0  0
 11 37  1  0  0  0  0
 12 38  1  0  0  0  0
 12 39  1  0  0  0  0
 13 40  1  0  0  0  0
 13 41  1  0  0  0  0
 14 42  1  0  0  0  0
 14 43  1  0  0  0  0
 16 44  1  0  0  0  0
 16 45  1  0  0  0  0
 16 46  1  0  0  0  0
 18 47  1  0  0  0  0
 20 48  1  0  0  0  0
 21 49  1  0  0  0  0
 21 50  1  0  0  0  0
 22 51  1  0  0  0  0
 22 52  1  0  0  0  0
M  END
>  <InChIKey>
RSWGJHLUYNHPMX-SAOIUIGASA-N

>  <UN GHS>
Non-irritant

>  <CASRN>
8050-09-07

> <Outcome>
0

>  <Index>
688

>  <StandardizerResult>
Clear Stereo (ID: ClearStereo)
Wedge Clean (ID: WedgeClean)
Mesomerize (ID: Mesomerize)
Tautomerize (ID: Tautomerize)
Add Explicit Hydrogens (ID: AddExplicitH)
Neutralize (ID: Neutralize)
Clean 2D (ID: Clean2D)

> <knn Distance>
3.87298345565796

> <CpId>
688

$$$$
778
  Mrv1532301301811342D          

 65 64  0  0  0  0            999 V2000
    2.6071    9.7664    0.0000 C   0  0  0  0  0  0  0  0  0  0  0  0
    2.6071    8.9414    0.0000 C   0  0  0  0  0  0  0  0  0  0  0  0
    3.3216    8.5289    0.0000 C   0  0  0  0  0  0  0  0  0  0  0  0
    3.3216    7.7039    0.0000 C   0  0  0  0  0  0  0  0  0  0  0  0
    4.0360    7.2914    0.0000 C   0  0  0  0  0  0  0  0  0  0  0  0
    4.0360    6.4664    0.0000 C   0  0  0  0  0  0  0  0  0  0  0  0
    4.7505    6.0539    0.0000 C   0  0  0  0  0  0  0  0  0  0  0  0
    4.7505    5.2289    0.0000 C   0  0  0  0  0  0  0  0  0  0  0  0
    5.4650    4.8164    0.0000 C   0  0  0  0  0  0  0  0  0  0  0  0
    5.4650    3.9914    0.0000 C   0  0  0  0  0  0  0  0  0  0  0  0
    6.1795    3.5789    0.0000 C   0  0  0  0  0  0  0  0  0  0  0  0
    6.8939    3.9914    0.0000 C   0  0  0  0  0  0  0  0  0  0  0  0
    7.6084    3.5789    0.0000 C   0  0  0  0  0  0  0  0  0  0  0  0
    8.3229    3.9914    0.0000 C   0  0  0  0  0  0  0  0  0  0  0  0
    9.0373    3.5789    0.0000 C   0  0  0  0  0  0  0  0  0  0  0  0
    9.7518    3.9914    0.0000 C   0  0  0  0  0  0  0  0  0  0  0  0
   10.4663    3.5789    0.0000 C   0  0  0  0  0  0  0  0  0  0  0  0
   11.1808    3.9914    0.0000 C   0  0  0  0  0  0  0  0  0  0  0  0
   11.1808    4.8164    0.0000 O   0  0  0  0  0  0  0  0  0  0  0  0
   11.8952    3.5789    0.0000 N   0  0  0  0  0  0  0  0  0  0  0  0
   12.6097    3.9914    0.0000 C   0  0  0  0  0  0  0  0  0  0  0  0
   13.3242    3.5789    0.0000 C   0  0  0  0  0  0  0  0  0  0  0  0
   14.0386    3.9914    0.0000 C   0  0  0  0  0  0  0  0  0  0  0  0
   13.3242    2.7539    0.0000 O   0  0  0  0  0  0  0  0  0  0  0  0
    3.4321    9.7664    0.0000 H   0  0  0  0  0  0  0  0  0  0  0  0
    2.6071   10.5914    0.0000 H   0  0  0  0  0  0  0  0  0  0  0  0
    1.7821    9.7664    0.0000 H   0  0  0  0  0  0  0  0  0  0  0  0
    1.7835    8.8934    0.0000 H   0  0  0  0  0  0  0  0  0  0  0  0
    2.1538    8.2521    0.0000 H   0  0  0  0  0  0  0  0  0  0  0  0
    4.1452    8.5769    0.0000 H   0  0  0  0  0  0  0  0  0  0  0  0
    3.7749    9.2182    0.0000 H   0  0  0  0  0  0  0  0  0  0  0  0
    2.4980    7.6559    0.0000 H   0  0  0  0  0  0  0  0  0  0  0  0
    2.8682    7.0146    0.0000 H   0  0  0  0  0  0  0  0  0  0  0  0
    4.8597    7.3394    0.0000 H   0  0  0  0  0  0  0  0  0  0  0  0
    4.4894    7.9807    0.0000 H   0  0  0  0  0  0  0  0  0  0  0  0
    3.2124    6.4184    0.0000 H   0  0  0  0  0  0  0  0  0  0  0  0
    3.5827    5.7771    0.0000 H   0  0  0  0  0  0  0  0  0  0  0  0
    5.5741    6.1019    0.0000 H   0  0  0  0  0  0  0  0  0  0  0  0
    5.2039    6.7432    0.0000 H   0  0  0  0  0  0  0  0  0  0  0  0
    3.9269    5.1809    0.0000 H   0  0  0  0  0  0  0  0  0  0  0  0
    4.2972    4.5396    0.0000 H   0  0  0  0  0  0  0  0  0  0  0  0
    6.1795    5.2289    0.0000 H   0  0  0  0  0  0  0  0  0  0  0  0
    4.7505    3.5789    0.0000 H   0  0  0  0  0  0  0  0  0  0  0  0
    5.8092    2.8416    0.0000 H   0  0  0  0  0  0  0  0  0  0  0  0
    6.5497    2.8416    0.0000 H   0  0  0  0  0  0  0  0  0  0  0  0
    7.2642    4.7286    0.0000 H   0  0  0  0  0  0  0  0  0  0  0  0
    6.5237    4.7286    0.0000 H   0  0  0  0  0  0  0  0  0  0  0  0
    7.2381    2.8416    0.0000 H   0  0  0  0  0  0  0  0  0  0  0  0
    7.9787    2.8416    0.0000 H   0  0  0  0  0  0  0  0  0  0  0  0
    8.6931    4.7286    0.0000 H   0  0  0  0  0  0  0  0  0  0  0  0
    7.9526    4.7286    0.0000 H   0  0  0  0  0  0  0  0  0  0  0  0
    8.6671    2.8416    0.0000 H   0  0  0  0  0  0  0  0  0  0  0  0
    9.4076    2.8416    0.0000 H   0  0  0  0  0  0  0  0  0  0  0  0
   10.1221    4.7286    0.0000 H   0  0  0  0  0  0  0  0  0  0  0  0
    9.3816    4.7286    0.0000 H   0  0  0  0  0  0  0  0  0  0  0  0
   10.0960    2.8416    0.0000 H   0  0  0  0  0  0  0  0  0  0  0  0
   10.8365    2.8416    0.0000 H   0  0  0  0  0  0  0  0  0  0  0  0
   11.8952    2.7539    0.0000 H   0  0  0  0  0  0  0  0  0  0  0  0
   12.9800    4.7286    0.0000 H   0  0  0  0  0  0  0  0  0  0  0  0
   12.2394    4.7286    0.0000 H   0  0  0  0  0  0  0  0  0  0  0  0
   13.3242    4.4039    0.0000 H   0  0  0  0  0  0  0  0  0  0  0  0
   14.2522    3.1945    0.0000 H   0  0  0  0  0  0  0  0  0  0  0  0
   14.8636    3.9914    0.0000 H   0  0  0  0  0  0  0  0  0  0  0  0
   14.2522    4.7883    0.0000 H   0  0  0  0  0  0  0  0  0  0  0  0
   12.6097    2.3414    0.0000 H   0  0  0  0  0  0  0  0  0  0  0  0
  1  2  1  0  0  0  0
  2  3  1  0  0  0  0
  3  4  1  0  0  0  0
  4  5  1  0  0  0  0
  5  6  1  0  0  0  0
  6  7  1  0  0  0  0
  7  8  1  0  0  0  0
  9  8  1  4  0  0  0
  9 10  2  0  0  0  0
 10 11  1  0  0  0  0
 11 12  1  0  0  0  0
 12 13  1  0  0  0  0
 13 14  1  0  0  0  0
 14 15  1  0  0  0  0
 15 16  1  0  0  0  0
 16 17  1  0  0  0  0
 17 18  1  0  0  0  0
 18 19  2  0  0  0  0
 18 20  1  0  0  0  0
 20 21  1  0  0  0  0
 21 22  1  0  0  0  0
 22 23  1  0  0  0  0
 22 24  1  0  0  0  0
  1 25  1  0  0  0  0
  1 26  1  0  0  0  0
  1 27  1  0  0  0  0
  2 28  1  0  0  0  0
  2 29  1  0  0  0  0
  3 30  1  0  0  0  0
  3 31  1  0  0  0  0
  4 32  1  0  0  0  0
  4 33  1  0  0  0  0
  5 34  1  0  0  0  0
  5 35  1  0  0  0  0
  6 36  1  0  0  0  0
  6 37  1  0  0  0  0
  7 38  1  0  0  0  0
  7 39  1  0  0  0  0
  8 40  1  0  0  0  0
  8 41  1  0  0  0  0
  9 42  1  0  0  0  0
 10 43  1  0  0  0  0
 11 44  1  0  0  0  0
 11 45  1  0  0  0  0
 12 46  1  0  0  0  0
 12 47  1  0  0  0  0
 13 48  1  0  0  0  0
 13 49  1  0  0  0  0
 14 50  1  0  0  0  0
 14 51  1  0  0  0  0
 15 52  1  0  0  0  0
 15 53  1  0  0  0  0
 16 54  1  0  0  0  0
 16 55  1  0  0  0  0
 17 56  1  0  0  0  0
 17 57  1  0  0  0  0
 20 58  1  0  0  0  0
 21 59  1  0  0  0  0
 21 60  1  0  0  0  0
 22 61  1  0  0  0  0
 23 62  1  0  0  0  0
 23 63  1  0  0  0  0
 23 64  1  0  0  0  0
 24 65  1  0  0  0  0
M  END
>  <InChIKey>
UDZAXLGLNUMCRX-KHPPLWFESA-N

>  <UN GHS>
Non-irritant

>  <CASRN>
111-05-7

> <Outcome>
0

>  <Index>
778

>  <StandardizerResult>
Clear Stereo (ID: ClearStereo)
Wedge Clean (ID: WedgeClean)
Mesomerize (ID: Mesomerize)
Tautomerize (ID: Tautomerize)
Add Explicit Hydrogens (ID: AddExplicitH)
Neutralize (ID: Neutralize)
Clean 2D (ID: Clean2D)

> <knn Distance>
3.87298345565796

> <CpId>
778

$$$$
957
  Mrv1532301301811342D          

 19 18  0  0  0  0            999 V2000
    1.2534    2.2027    0.0000 C   0  0  0  0  0  0  0  0  0  0  0  0
    0.8409    1.4882    0.0000 C   0  0  0  0  0  0  0  0  0  0  0  0
    0.0159    1.4882    0.0000 O   0  0  0  0  0  0  0  0  0  0  0  0
    1.2534    0.7738    0.0000 C   0  0  0  0  0  0  0  0  0  0  0  0
    2.0784    0.7738    0.0000 O   0  0  0  0  0  0  0  0  0  0  0  0
    0.8409    0.0593    0.0000 N   0  0  0  0  0  0  0  0  0  0  0  0
    1.2534   -0.6552    0.0000 C   0  0  0  0  0  0  0  0  0  0  0  0
    0.0159    0.0593    0.0000 C   0  0  0  0  0  0  0  0  0  0  0  0
    1.9679    1.7902    0.0000 H   0  0  0  0  0  0  0  0  0  0  0  0
    1.6659    2.9172    0.0000 H   0  0  0  0  0  0  0  0  0  0  0  0
    0.5389    2.6152    0.0000 H   0  0  0  0  0  0  0  0  0  0  0  0
    0.4284    2.2027    0.0000 H   0  0  0  0  0  0  0  0  0  0  0  0
   -0.6986    1.0757    0.0000 H   0  0  0  0  0  0  0  0  0  0  0  0
    0.5389   -1.0677    0.0000 H   0  0  0  0  0  0  0  0  0  0  0  0
    1.6659   -1.3696    0.0000 H   0  0  0  0  0  0  0  0  0  0  0  0
    1.9679   -0.2427    0.0000 H   0  0  0  0  0  0  0  0  0  0  0  0
    0.0159    0.8843    0.0000 H   0  0  0  0  0  0  0  0  0  0  0  0
   -0.8091    0.0593    0.0000 H   0  0  0  0  0  0  0  0  0  0  0  0
    0.0159   -0.7657    0.0000 H   0  0  0  0  0  0  0  0  0  0  0  0
  1  2  1  0  0  0  0
  2  3  1  0  0  0  0
  2  4  1  0  0  0  0
  4  5  2  0  0  0  0
  4  6  1  0  0  0  0
  6  7  1  0  0  0  0
  6  8  1  0  0  0  0
  1  9  1  0  0  0  0
  1 10  1  0  0  0  0
  1 11  1  0  0  0  0
  2 12  1  0  0  0  0
  3 13  1  0  0  0  0
  7 14  1  0  0  0  0
  7 15  1  0  0  0  0
  7 16  1  0  0  0  0
  8 17  1  0  0  0  0
  8 18  1  0  0  0  0
  8 19  1  0  0  0  0
M  END
>  <InChIKey>
YEBLAXBYYVCOLT-UHFFFAOYSA-N

>  <UN GHS>
Non-irritant

>  <CASRN>
35123-06-9

> <Outcome>
0

>  <Index>
957

>  <StandardizerResult>
Clear Stereo (ID: ClearStereo)
Wedge Clean (ID: WedgeClean)
Mesomerize (ID: Mesomerize)
Tautomerize (ID: Tautomerize)
Add Explicit Hydrogens (ID: AddExplicitH)
Neutralize (ID: Neutralize)
Clean 2D (ID: Clean2D)

> <knn Distance>
3.87298345565796

> <CpId>
957

$$$$
1034
  Mrv1532301301811342D          

 44 45  0  0  0  0            999 V2000
   -4.3438   -4.0693    0.0000 C   0  0  0  0  0  0  0  0  0  0  0  0
   -3.6294   -4.4818    0.0000 C   0  0  0  0  0  0  0  0  0  0  0  0
   -3.6294   -5.3068    0.0000 C   0  0  0  0  0  0  0  0  0  0  0  0
   -2.9149   -4.0693    0.0000 C   0  0  0  0  0  0  0  0  0  0  0  0
   -2.2004   -4.4818    0.0000 C   0  0  0  0  0  0  0  0  0  0  0  0
   -2.2004   -5.3068    0.0000 C   0  0  0  0  0  0  0  0  0  0  0  0
   -1.4860   -4.0693    0.0000 N   0  0  0  0  0  0  0  0  0  0  0  0
   -0.7715   -4.4818    0.0000 C   0  0  0  0  0  0  0  0  0  0  0  0
   -0.0570   -4.0693    0.0000 C   0  0  0  0  0  0  0  0  0  0  0  0
    0.6575   -4.4818    0.0000 C   0  0  0  0  0  0  0  0  0  0  0  0
    0.6575   -5.3068    0.0000 C   0  0  0  0  0  0  0  0  0  0  0  0
    1.3719   -5.7193    0.0000 N   0  0  0  0  0  0  0  0  0  0  0  0
    2.0864   -5.3068    0.0000 C   0  0  0  0  0  0  0  0  0  0  0  0
    2.0864   -4.4818    0.0000 C   0  0  0  0  0  0  0  0  0  0  0  0
    2.8009   -4.0693    0.0000 C   0  0  0  0  0  0  0  0  0  0  0  0
    3.5153   -4.4818    0.0000 C   0  0  0  0  0  0  0  0  0  0  0  0
    3.5153   -5.3068    0.0000 C   0  0  0  0  0  0  0  0  0  0  0  0
    2.8009   -5.7193    0.0000 C   0  0  0  0  0  0  0  0  0  0  0  0
   -0.0570   -5.7193    0.0000 C   0  0  0  0  0  0  0  0  0  0  0  0
   -0.7715   -5.3068    0.0000 C   0  0  0  0  0  0  0  0  0  0  0  0
   -3.9313   -3.3548    0.0000 H   0  0  0  0  0  0  0  0  0  0  0  0
   -5.0583   -3.6568    0.0000 H   0  0  0  0  0  0  0  0  0  0  0  0
   -4.7563   -4.7838    0.0000 H   0  0  0  0  0  0  0  0  0  0  0  0
   -4.3438   -4.8943    0.0000 H   0  0  0  0  0  0  0  0  0  0  0  0
   -4.2127   -5.8901    0.0000 H   0  0  0  0  0  0  0  0  0  0  0  0
   -3.2169   -6.0213    0.0000 H   0  0  0  0  0  0  0  0  0  0  0  0
   -2.8325   -5.0933    0.0000 H   0  0  0  0  0  0  0  0  0  0  0  0
   -2.5446   -3.3320    0.0000 H   0  0  0  0  0  0  0  0  0  0  0  0
   -3.2852   -3.3320    0.0000 H   0  0  0  0  0  0  0  0  0  0  0  0
   -1.4860   -4.8943    0.0000 H   0  0  0  0  0  0  0  0  0  0  0  0
   -2.8461   -5.8204    0.0000 H   0  0  0  0  0  0  0  0  0  0  0  0
   -2.1190   -6.1277    0.0000 H   0  0  0  0  0  0  0  0  0  0  0  0
   -1.4664   -5.6835    0.0000 H   0  0  0  0  0  0  0  0  0  0  0  0
   -1.4860   -3.2443    0.0000 H   0  0  0  0  0  0  0  0  0  0  0  0
   -0.0570   -3.2443    0.0000 H   0  0  0  0  0  0  0  0  0  0  0  0
    1.3719   -4.0693    0.0000 H   0  0  0  0  0  0  0  0  0  0  0  0
    1.3719   -6.5443    0.0000 H   0  0  0  0  0  0  0  0  0  0  0  0
    1.3719   -4.8943    0.0000 H   0  0  0  0  0  0  0  0  0  0  0  0
    2.8009   -3.2443    0.0000 H   0  0  0  0  0  0  0  0  0  0  0  0
    4.2298   -4.0693    0.0000 H   0  0  0  0  0  0  0  0  0  0  0  0
    4.2298   -5.7193    0.0000 H   0  0  0  0  0  0  0  0  0  0  0  0
    2.8009   -6.5443    0.0000 H   0  0  0  0  0  0  0  0  0  0  0  0
   -0.0570   -6.5443    0.0000 H   0  0  0  0  0  0  0  0  0  0  0  0
   -0.7826   -6.1317    0.0000 H   0  0  0  0  0  0  0  0  0  0  0  0
  1  2  1  0  0  0  0
  2  3  1  0  0  0  0
  2  4  1  0  0  0  0
  4  5  1  0  0  0  0
  5  6  1  0  0  0  0
  5  7  1  0  0  0  0
  7  8  1  0  0  0  0
  8  9  4  0  0  0  0
  9 10  4  0  0  0  0
 10 11  4  0  0  0  0
 11 12  1  0  0  0  0
 12 13  1  0  0  0  0
 13 14  4  0  0  0  0
 14 15  4  0  0  0  0
 15 16  4  0  0  0  0
 16 17  4  0  0  0  0
 17 18  4  0  0  0  0
 13 18  4  0  0  0  0
 11 19  4  0  0  0  0
 19 20  4  0  0  0  0
  8 20  4  0  0  0  0
  1 21  1  0  0  0  0
  1 22  1  0  0  0  0
  1 23  1  0  0  0  0
  2 24  1  0  0  0  0
  3 25  1  0  0  0  0
  3 26  1  0  0  0  0
  3 27  1  0  0  0  0
  4 28  1  0  0  0  0
  4 29  1  0  0  0  0
  5 30  1  0  0  0  0
  6 31  1  0  0  0  0
  6 32  1  0  0  0  0
  6 33  1  0  0  0  0
  7 34  1  0  0  0  0
  9 35  1  0  0  0  0
 10 36  1  0  0  0  0
 12 37  1  0  0  0  0
 14 38  1  0  0  0  0
 15 39  1  0  0  0  0
 16 40  1  0  0  0  0
 17 41  1  0  0  0  0
 18 42  1  0  0  0  0
 19 43  1  0  0  0  0
 20 44  1  0  0  0  0
M  END
>  <InChIKey>
ZZMVLMVFYMGSMY-UHFFFAOYSA-N

>  <UN GHS>
Non-irritant

>  <CASRN>
793-24-8

> <Outcome>
0

>  <Index>
1034

>  <StandardizerResult>
Dearomatize (ID: Dearomatize)
Clear Stereo (ID: ClearStereo)
Wedge Clean (ID: WedgeClean)
Mesomerize (ID: Mesomerize)
Tautomerize (ID: Tautomerize)
Aromatize (ID: Aromatize)
Add Explicit Hydrogens (ID: AddExplicitH)
Neutralize (ID: Neutralize)
Clean 2D (ID: Clean2D)

> <knn Distance>
3.87298345565796

> <CpId>
1034

$$$$
1104
  Mrv1532301301811342D          

 53 56  0  0  0  0            999 V2000
    1.7067   -1.9717    0.0000 C   0  0  0  0  0  0  0  0  0  0  0  0
    2.2385   -2.6024    0.0000 C   0  0  0  0  0  0  0  0  0  0  0  0
    3.0507   -2.4572    0.0000 C   0  0  0  0  0  0  0  0  0  0  0  0
    3.1102   -3.2801    0.0000 O   0  0  0  0  0  0  0  0  0  0  0  0
    2.8214   -1.6647    0.0000 C   0  0  0  0  0  0  0  0  0  0  0  0
    3.5042   -1.2018    0.0000 C   0  0  0  0  0  0  0  0  0  0  0  0
    4.1555   -1.7081    0.0000 C   0  0  0  0  0  0  0  0  0  0  0  0
    4.9676   -1.5629    0.0000 C   0  0  0  0  0  0  0  0  0  0  0  0
    5.2479   -0.7870    0.0000 C   0  0  0  0  0  0  0  0  0  0  0  0
    6.0601   -0.6418    0.0000 C   0  0  0  0  0  0  0  0  0  0  0  0
    6.5919   -1.2725    0.0000 C   0  0  0  0  0  0  0  0  0  0  0  0
    7.4040   -1.1272    0.0000 C   0  0  0  0  0  0  0  0  0  0  0  0
    7.9358   -1.7580    0.0000 C   0  0  0  0  0  0  0  0  0  0  0  0
    7.6555   -2.5339    0.0000 C   0  0  0  0  0  0  0  0  0  0  0  0
    6.8434   -2.6791    0.0000 C   0  0  0  0  0  0  0  0  0  0  0  0
    6.3116   -2.0484    0.0000 C   0  0  0  0  0  0  0  0  0  0  0  0
    5.4995   -2.1936    0.0000 C   0  0  0  0  0  0  0  0  0  0  0  0
    5.2192   -2.9695    0.0000 C   0  0  0  0  0  0  0  0  0  0  0  0
    4.4070   -3.1147    0.0000 C   0  0  0  0  0  0  0  0  0  0  0  0
    3.8752   -2.4840    0.0000 C   0  0  0  0  0  0  0  0  0  0  0  0
    3.5154   -3.2264    0.0000 C   0  0  0  0  0  0  0  0  0  0  0  0
    2.3374   -1.4399    0.0000 H   0  0  0  0  0  0  0  0  0  0  0  0
    1.1749   -1.3410    0.0000 H   0  0  0  0  0  0  0  0  0  0  0  0
    1.0760   -2.5036    0.0000 H   0  0  0  0  0  0  0  0  0  0  0  0
    1.6398   -3.1700    0.0000 H   0  0  0  0  0  0  0  0  0  0  0  0
    2.3363   -3.4216    0.0000 H   0  0  0  0  0  0  0  0  0  0  0  0
    3.2386   -4.0950    0.0000 H   0  0  0  0  0  0  0  0  0  0  0  0
    2.1950   -2.2017    0.0000 H   0  0  0  0  0  0  0  0  0  0  0  0
    2.7551   -0.8424    0.0000 H   0  0  0  0  0  0  0  0  0  0  0  0
    4.1640   -0.7065    0.0000 H   0  0  0  0  0  0  0  0  0  0  0  0
    3.6529   -0.3903    0.0000 H   0  0  0  0  0  0  0  0  0  0  0  0
    4.6873   -2.3388    0.0000 H   0  0  0  0  0  0  0  0  0  0  0  0
    4.4358   -0.9322    0.0000 H   0  0  0  0  0  0  0  0  0  0  0  0
    5.3892    0.0258    0.0000 H   0  0  0  0  0  0  0  0  0  0  0  0
    4.8337   -0.0735    0.0000 H   0  0  0  0  0  0  0  0  0  0  0  0
    6.8245   -0.3316    0.0000 H   0  0  0  0  0  0  0  0  0  0  0  0
    6.4321    0.0946    0.0000 H   0  0  0  0  0  0  0  0  0  0  0  0
    7.6843   -0.3513    0.0000 H   0  0  0  0  0  0  0  0  0  0  0  0
    8.7267   -1.9927    0.0000 H   0  0  0  0  0  0  0  0  0  0  0  0
    8.5964   -1.2637    0.0000 H   0  0  0  0  0  0  0  0  0  0  0  0
    7.8477   -3.3362    0.0000 H   0  0  0  0  0  0  0  0  0  0  0  0
    8.4138   -2.8588    0.0000 H   0  0  0  0  0  0  0  0  0  0  0  0
    6.2447   -3.2467    0.0000 H   0  0  0  0  0  0  0  0  0  0  0  0
    6.9412   -3.4983    0.0000 H   0  0  0  0  0  0  0  0  0  0  0  0
    6.0313   -2.8243    0.0000 H   0  0  0  0  0  0  0  0  0  0  0  0
    5.7798   -1.4177    0.0000 H   0  0  0  0  0  0  0  0  0  0  0  0
    5.0779   -3.7823    0.0000 H   0  0  0  0  0  0  0  0  0  0  0  0
    5.6334   -3.6830    0.0000 H   0  0  0  0  0  0  0  0  0  0  0  0
    3.8746   -3.7449    0.0000 H   0  0  0  0  0  0  0  0  0  0  0  0
    4.4426   -3.9390    0.0000 H   0  0  0  0  0  0  0  0  0  0  0  0
    3.6376   -4.0423    0.0000 H   0  0  0  0  0  0  0  0  0  0  0  0
    2.7717   -2.8692    0.0000 H   0  0  0  0  0  0  0  0  0  0  0  0
    2.8828   -3.7560    0.0000 H   0  0  0  0  0  0  0  0  0  0  0  0
  1  2  1  0  0  0  0
  2  3  1  0  0  0  0
  3  4  1  0  0  0  0
  3  5  1  0  0  0  0
  5  6  1  0  0  0  0
  6  7  1  0  0  0  0
  7  8  1  0  0  0  0
  8  9  1  0  0  0  0
  9 10  1  0  0  0  0
 10 11  1  0  0  0  0
 11 12  2  0  0  0  0
 12 13  1  0  0  0  0
 13 14  1  0  0  0  0
 14 15  1  0  0  0  0
 15 16  1  0  0  0  0
 11 16  1  0  0  0  0
 16 17  1  0  0  0  0
  8 17  1  0  0  0  0
 17 18  1  0  0  0  0
 18 19  1  0  0  0  0
 19 20  1  0  0  0  0
  3 20  1  0  0  0  0
  7 20  1  0  0  0  0
 20 21  1  0  0  0  0
  1 22  1  0  0  0  0
  1 23  1  0  0  0  0
  1 24  1  0  0  0  0
  2 25  1  0  0  0  0
  2 26  1  0  0  0  0
  4 27  1  0  0  0  0
  5 28  1  0  0  0  0
  5 29  1  0  0  0  0
  6 30  1  0  0  0  0
  6 31  1  0  0  0  0
  7 32  1  0  0  0  0
  8 33  1  0  0  0  0
  9 34  1  0  0  0  0
  9 35  1  0  0  0  0
 10 36  1  0  0  0  0
 10 37  1  0  0  0  0
 12 38  1  0  0  0  0
 13 39  1  0  0  0  0
 13 40  1  0  0  0  0
 14 41  1  0  0  0  0
 14 42  1  0  0  0  0
 15 43  1  0  0  0  0
 15 44  1  0  0  0  0
 16 45  1  0  0  0  0
 17 46  1  0  0  0  0
 18 47  1  0  0  0  0
 18 48  1  0  0  0  0
 19 49  1  0  0  0  0
 19 50  1  0  0  0  0
 21 51  1  0  0  0  0
 21 52  1  0  0  0  0
 21 53  1  0  0  0  0
M  END
>  <InChIKey>
InChI=1S/C20H32O/c1-3-20(21)13-11-18-17-9-8-14-6-4-5-7-15(14)16(17)10-12-19(18,20)2/h6,15-18,21H,3-5,7-13H2,1-2H3

>  <CASRN>
965-90-2

> <Outcome>
0

>  <Index>
1104

>  <StandardizerResult>
Clear Stereo (ID: ClearStereo)
Wedge Clean (ID: WedgeClean)
Mesomerize (ID: Mesomerize)
Tautomerize (ID: Tautomerize)
Add Explicit Hydrogens (ID: AddExplicitH)
Neutralize (ID: Neutralize)
Clean 2D (ID: Clean2D)

> <knn Distance>
3.87298345565796

> <CpId>
1104

$$$$
1143
  Mrv1532301301811342D          

 50 49  0  0  0  0            999 V2000
   -1.1647    1.0196    0.0000 C   0  0  0  0  0  0  0  0  0  0  0  0
   -0.4503    1.4321    0.0000 N   0  3  0  0  0  0  0  0  0  0  0  0
   -0.0378    0.7176    0.0000 C   0  0  0  0  0  0  0  0  0  0  0  0
   -0.8628    2.1465    0.0000 C   0  0  0  0  0  0  0  0  0  0  0  0
    0.2642    1.8446    0.0000 C   0  0  0  0  0  0  0  0  0  0  0  0
    0.9787    1.4321    0.0000 C   0  0  0  0  0  0  0  0  0  0  0  0
    1.6932    1.8446    0.0000 O   0  0  0  0  0  0  0  0  0  0  0  0
    2.4076    1.4321    0.0000 C   0  0  0  0  0  0  0  0  0  0  0  0
    2.4076    0.6071    0.0000 O   0  0  0  0  0  0  0  0  0  0  0  0
    3.1221    1.8446    0.0000 C   0  0  0  0  0  0  0  0  0  0  0  0
    3.8366    1.4321    0.0000 C   0  0  0  0  0  0  0  0  0  0  0  0
    4.5510    1.8446    0.0000 C   0  0  0  0  0  0  0  0  0  0  0  0
    4.5510    2.6696    0.0000 O   0  0  0  0  0  0  0  0  0  0  0  0
    5.2655    1.4321    0.0000 O   0  0  0  0  0  0  0  0  0  0  0  0
    5.9800    1.8446    0.0000 C   0  0  0  0  0  0  0  0  0  0  0  0
    6.6944    1.4321    0.0000 C   0  0  0  0  0  0  0  0  0  0  0  0
    7.4089    1.8446    0.0000 N   0  3  0  0  0  0  0  0  0  0  0  0
    8.1234    2.2571    0.0000 C   0  0  0  0  0  0  0  0  0  0  0  0
    7.8214    1.1301    0.0000 C   0  0  0  0  0  0  0  0  0  0  0  0
    6.9964    2.5590    0.0000 C   0  0  0  0  0  0  0  0  0  0  0  0
   -1.5772    1.7340    0.0000 H   0  0  0  0  0  0  0  0  0  0  0  0
   -1.8792    0.6071    0.0000 H   0  0  0  0  0  0  0  0  0  0  0  0
   -0.7522    0.3051    0.0000 H   0  0  0  0  0  0  0  0  0  0  0  0
    0.0699   -0.1004    0.0000 H   0  0  0  0  0  0  0  0  0  0  0  0
    0.7591    0.5041    0.0000 H   0  0  0  0  0  0  0  0  0  0  0  0
    0.4645    1.3721    0.0000 H   0  0  0  0  0  0  0  0  0  0  0  0
   -0.0448    2.2542    0.0000 H   0  0  0  0  0  0  0  0  0  0  0  0
   -0.6492    2.9434    0.0000 H   0  0  0  0  0  0  0  0  0  0  0  0
   -1.5173    2.6488    0.0000 H   0  0  0  0  0  0  0  0  0  0  0  0
    1.0273    2.1582    0.0000 H   0  0  0  0  0  0  0  0  0  0  0  0
    0.4821    2.6403    0.0000 H   0  0  0  0  0  0  0  0  0  0  0  0
    1.4051    0.7258    0.0000 H   0  0  0  0  0  0  0  0  0  0  0  0
    1.7776    1.2264    0.0000 H   0  0  0  0  0  0  0  0  0  0  0  0
    3.4924    2.5818    0.0000 H   0  0  0  0  0  0  0  0  0  0  0  0
    2.7518    2.5818    0.0000 H   0  0  0  0  0  0  0  0  0  0  0  0
    3.4663    0.6948    0.0000 H   0  0  0  0  0  0  0  0  0  0  0  0
    4.2068    0.6948    0.0000 H   0  0  0  0  0  0  0  0  0  0  0  0
    6.3502    2.5818    0.0000 H   0  0  0  0  0  0  0  0  0  0  0  0
    5.6097    2.5818    0.0000 H   0  0  0  0  0  0  0  0  0  0  0  0
    6.3242    0.6948    0.0000 H   0  0  0  0  0  0  0  0  0  0  0  0
    7.0647    0.6948    0.0000 H   0  0  0  0  0  0  0  0  0  0  0  0
    8.5359    1.5426    0.0000 H   0  0  0  0  0  0  0  0  0  0  0  0
    8.8379    2.6696    0.0000 H   0  0  0  0  0  0  0  0  0  0  0  0
    7.7109    2.9715    0.0000 H   0  0  0  0  0  0  0  0  0  0  0  0
    7.6069    0.3335    0.0000 H   0  0  0  0  0  0  0  0  0  0  0  0
    8.2333    0.4153    0.0000 H   0  0  0  0  0  0  0  0  0  0  0  0
    8.6182    0.9162    0.0000 H   0  0  0  0  0  0  0  0  0  0  0  0
    7.1492    3.3698    0.0000 H   0  0  0  0  0  0  0  0  0  0  0  0
    6.4811    3.2033    0.0000 H   0  0  0  0  0  0  0  0  0  0  0  0
    6.5714    1.8519    0.0000 H   0  0  0  0  0  0  0  0  0  0  0  0
  1  2  1  0  0  0  0
  2  3  1  0  0  0  0
  2  4  1  0  0  0  0
  2  5  1  0  0  0  0
  5  6  1  0  0  0  0
  6  7  1  0  0  0  0
  7  8  1  0  0  0  0
  8  9  2  0  0  0  0
  8 10  1  0  0  0  0
 10 11  1  0  0  0  0
 11 12  1  0  0  0  0
 12 13  2  0  0  0  0
 12 14  1  0  0  0  0
 14 15  1  0  0  0  0
 15 16  1  0  0  0  0
 16 17  1  0  0  0  0
 17 18  1  0  0  0  0
 17 19  1  0  0  0  0
 17 20  1  0  0  0  0
  1 21  1  0  0  0  0
  1 22  1  0  0  0  0
  1 23  1  0  0  0  0
  3 24  1  0  0  0  0
  3 25  1  0  0  0  0
  3 26  1  0  0  0  0
  4 27  1  0  0  0  0
  4 28  1  0  0  0  0
  4 29  1  0  0  0  0
  5 30  1  0  0  0  0
  5 31  1  0  0  0  0
  6 32  1  0  0  0  0
  6 33  1  0  0  0  0
 10 34  1  0  0  0  0
 10 35  1  0  0  0  0
 11 36  1  0  0  0  0
 11 37  1  0  0  0  0
 15 38  1  0  0  0  0
 15 39  1  0  0  0  0
 16 40  1  0  0  0  0
 16 41  1  0  0  0  0
 18 42  1  0  0  0  0
 18 43  1  0  0  0  0
 18 44  1  0  0  0  0
 19 45  1  0  0  0  0
 19 46  1  0  0  0  0
 19 47  1  0  0  0  0
 20 48  1  0  0  0  0
 20 49  1  0  0  0  0
 20 50  1  0  0  0  0
M  CHG  2   2   1  17   1
M  END
>  <InChIKey>
InChI=1S/C14H30N2O4/c1-15(2,3)9-11-19-13(17)7-8-14(18)20-12-10-16(4,5)6/h7-12H2,1-6H3/q+2

>  <CASRN>
306-40-1

> <Outcome>
0

>  <Index>
1143

>  <StandardizerResult>
Clear Stereo (ID: ClearStereo)
Wedge Clean (ID: WedgeClean)
Mesomerize (ID: Mesomerize)
Tautomerize (ID: Tautomerize)
Add Explicit Hydrogens (ID: AddExplicitH)
Clean 2D (ID: Clean2D)

> <knn Distance>
3.87298345565796

> <CpId>
1143

$$$$
1180
  Mrv1532301301811342D          

 62 66  0  0  0  0            999 V2000
   -0.7586   -5.3320    0.0000 C   0  0  0  0  0  0  0  0  0  0  0  0
   -0.0441   -4.9195    0.0000 C   0  0  0  0  0  0  0  0  0  0  0  0
   -0.0441   -4.0945    0.0000 C   0  0  0  0  0  0  0  0  0  0  0  0
    0.6704   -3.6820    0.0000 C   0  0  0  0  0  0  0  0  0  0  0  0
    1.3848   -4.0945    0.0000 C   0  0  0  0  0  0  0  0  0  0  0  0
    2.0993   -3.6820    0.0000 N   0  0  0  0  0  0  0  0  0  0  0  0
    2.0993   -2.8570    0.0000 C   0  0  0  0  0  0  0  0  0  0  0  0
    1.3848   -2.4445    0.0000 C   0  0  0  0  0  0  0  0  0  0  0  0
    1.3848   -1.6195    0.0000 C   0  0  0  0  0  0  0  0  0  0  0  0
    2.0993   -1.2070    0.0000 C   0  0  0  0  0  0  0  0  0  0  0  0
    2.0993   -0.3820    0.0000 N   0  0  0  0  0  0  0  0  0  0  0  0
    1.3848    0.0305    0.0000 C   0  0  0  0  0  0  0  0  0  0  0  0
    0.6704   -0.3820    0.0000 C   0  0  0  0  0  0  0  0  0  0  0  0
   -0.0441    0.0305    0.0000 C   0  0  0  0  0  0  0  0  0  0  0  0
   -0.0441    0.8555    0.0000 C   0  0  0  0  0  0  0  0  0  0  0  0
   -0.7586    1.2680    0.0000 C   0  0  0  0  0  0  0  0  0  0  0  0
    0.6704    1.2680    0.0000 C   0  0  0  0  0  0  0  0  0  0  0  0
    1.3848    0.8555    0.0000 C   0  0  0  0  0  0  0  0  0  0  0  0
    2.0993    1.2680    0.0000 S   0  0  0  0  0  0  0  0  0  0  0  0
    2.8138    1.6805    0.0000 O   0  0  0  0  0  0  0  0  0  0  0  0
    2.5118    0.5536    0.0000 O   0  0  0  0  0  0  0  0  0  0  0  0
    1.6868    1.9825    0.0000 O   0  0  0  0  0  0  0  0  0  0  0  0
    2.8138   -1.6195    0.0000 C   0  0  0  0  0  0  0  0  0  0  0  0
    3.5283   -1.2070    0.0000 C   0  0  0  0  0  0  0  0  0  0  0  0
    3.5283   -0.3820    0.0000 O   0  0  0  0  0  0  0  0  0  0  0  0
    4.2427   -1.6195    0.0000 C   0  0  0  0  0  0  0  0  0  0  0  0
    4.9572   -1.2070    0.0000 C   0  0  0  0  0  0  0  0  0  0  0  0
    5.6717   -1.6195    0.0000 C   0  0  0  0  0  0  0  0  0  0  0  0
    5.6717   -2.4445    0.0000 C   0  0  0  0  0  0  0  0  0  0  0  0
    4.9572   -2.8570    0.0000 C   0  0  0  0  0  0  0  0  0  0  0  0
    4.2427   -2.4445    0.0000 C   0  0  0  0  0  0  0  0  0  0  0  0
    3.5283   -2.8570    0.0000 C   0  0  0  0  0  0  0  0  0  0  0  0
    3.5283   -3.6820    0.0000 O   0  0  0  0  0  0  0  0  0  0  0  0
    2.8138   -2.4445    0.0000 C   0  0  0  0  0  0  0  0  0  0  0  0
    1.3848   -4.9195    0.0000 C   0  0  0  0  0  0  0  0  0  0  0  0
    0.6704   -5.3320    0.0000 C   0  0  0  0  0  0  0  0  0  0  0  0
    2.0993   -5.3320    0.0000 S   0  0  0  0  0  0  0  0  0  0  0  0
    2.8138   -5.7445    0.0000 O   0  0  0  0  0  0  0  0  0  0  0  0
    1.6868   -6.0464    0.0000 O   0  0  0  0  0  0  0  0  0  0  0  0
    2.5118   -4.6175    0.0000 O   0  0  0  0  0  0  0  0  0  0  0  0
   -1.1711   -4.6175    0.0000 H   0  0  0  0  0  0  0  0  0  0  0  0
   -1.4730   -5.7445    0.0000 H   0  0  0  0  0  0  0  0  0  0  0  0
   -0.3461   -6.0464    0.0000 H   0  0  0  0  0  0  0  0  0  0  0  0
   -0.7586   -3.6820    0.0000 H   0  0  0  0  0  0  0  0  0  0  0  0
    0.6704   -2.8570    0.0000 H   0  0  0  0  0  0  0  0  0  0  0  0
    2.8138   -4.0945    0.0000 H   0  0  0  0  0  0  0  0  0  0  0  0
    1.3848   -3.2695    0.0000 H   0  0  0  0  0  0  0  0  0  0  0  0
    0.6704   -1.2070    0.0000 H   0  0  0  0  0  0  0  0  0  0  0  0
    2.8138    0.0305    0.0000 H   0  0  0  0  0  0  0  0  0  0  0  0
    1.3848   -0.7945    0.0000 H   0  0  0  0  0  0  0  0  0  0  0  0
   -0.7586   -0.3820    0.0000 H   0  0  0  0  0  0  0  0  0  0  0  0
   -0.3461    1.9825    0.0000 H   0  0  0  0  0  0  0  0  0  0  0  0
   -1.4730    1.6805    0.0000 H   0  0  0  0  0  0  0  0  0  0  0  0
   -1.1711    0.5536    0.0000 H   0  0  0  0  0  0  0  0  0  0  0  0
    0.6704    2.0930    0.0000 H   0  0  0  0  0  0  0  0  0  0  0  0
    3.5283    1.2680    0.0000 H   0  0  0  0  0  0  0  0  0  0  0  0
    4.9572   -0.3820    0.0000 H   0  0  0  0  0  0  0  0  0  0  0  0
    6.3861   -1.2070    0.0000 H   0  0  0  0  0  0  0  0  0  0  0  0
    6.3861   -2.8570    0.0000 H   0  0  0  0  0  0  0  0  0  0  0  0
    4.9572   -3.6820    0.0000 H   0  0  0  0  0  0  0  0  0  0  0  0
    0.6704   -6.1570    0.0000 H   0  0  0  0  0  0  0  0  0  0  0  0
    2.8138   -6.5695    0.0000 H   0  0  0  0  0  0  0  0  0  0  0  0
  1  2  1  0  0  0  0
  2  3  4  0  0  0  0
  3  4  4  0  0  0  0
  4  5  4  0  0  0  0
  5  6  1  0  0  0  0
  6  7  1  0  0  0  0
  7  8  4  0  0  0  0
  8  9  4  0  0  0  0
  9 10  4  0  0  0  0
 10 11  1  0  0  0  0
 11 12  1  0  0  0  0
 12 13  4  0  0  0  0
 13 14  4  0  0  0  0
 14 15  4  0  0  0  0
 15 16  1  0  0  0  0
 15 17  4  0  0  0  0
 17 18  4  0  0  0  0
 12 18  4  0  0  0  0
 18 19  1  0  0  0  0
 19 20  1  0  0  0  0
 19 21  2  0  0  0  0
 19 22  2  0  0  0  0
 10 23  4  0  0  0  0
 23 24  1  0  0  0  0
 24 25  2  0  0  0  0
 24 26  1  0  0  0  0
 26 27  4  0  0  0  0
 27 28  4  0  0  0  0
 28 29  4  0  0  0  0
 29 30  4  0  0  0  0
 30 31  4  0  0  0  0
 26 31  4  0  0  0  0
 31 32  1  0  0  0  0
 32 33  2  0  0  0  0
 32 34  1  0  0  0  0
  7 34  4  0  0  0  0
 23 34  4  0  0  0  0
  5 35  4  0  0  0  0
 35 36  4  0  0  0  0
  2 36  4  0  0  0  0
 35 37  1  0  0  0  0
 37 38  1  0  0  0  0
 37 39  2  0  0  0  0
 37 40  2  0  0  0  0
  1 41  1  0  0  0  0
  1 42  1  0  0  0  0
  1 43  1  0  0  0  0
  3 44  1  0  0  0  0
  4 45  1  0  0  0  0
  6 46  1  0  0  0  0
  8 47  1  0  0  0  0
  9 48  1  0  0  0  0
 11 49  1  0  0  0  0
 13 50  1  0  0  0  0
 14 51  1  0  0  0  0
 16 52  1  0  0  0  0
 16 53  1  0  0  0  0
 16 54  1  0  0  0  0
 17 55  1  0  0  0  0
 20 56  1  0  0  0  0
 27 57  1  0  0  0  0
 28 58  1  0  0  0  0
 29 59  1  0  0  0  0
 30 60  1  0  0  0  0
 36 61  1  0  0  0  0
 38 62  1  0  0  0  0
M  END
>  <InChIKey>
InChI=1S/C28H22N2O8S2/c1-15-7-9-19(23(13-15)39(33,34)35)29-21-11-12-22(30-20-10-8-16(2)14-24(20)40(36,37)38)26-25(21)27(31)17-5-3-4-6-18(17)28(26)32/h3-14,29-30H,1-2H3,(H,33,34,35)(H,36,37,38)

>  <CASRN>
4403-90-1

> <Outcome>
0

>  <Index>
1180

>  <StandardizerResult>
Dearomatize (ID: Dearomatize)
Clear Stereo (ID: ClearStereo)
Wedge Clean (ID: WedgeClean)
Mesomerize (ID: Mesomerize)
Tautomerize (ID: Tautomerize)
Aromatize (ID: Aromatize)
Add Explicit Hydrogens (ID: AddExplicitH)
Neutralize (ID: Neutralize)
Clean 2D (ID: Clean2D)

> <knn Distance>
3.87298345565796

> <CpId>
1180

$$$$
1181
  Mrv1532301301811342D          

 12 12  0  0  0  0            999 V2000
    0.7145    1.2375    0.0000 C   0  0  0  0  0  0  0  0  0  0  0  0
    1.4289    0.8250    0.0000 O   0  0  0  0  0  0  0  0  0  0  0  0
    1.4289    0.0000    0.0000 C   0  0  0  0  0  0  0  0  0  0  0  0
    0.7145   -0.4125    0.0000 O   0  0  0  0  0  0  0  0  0  0  0  0
    0.0000    0.0000    0.0000 C   0  0  0  0  0  0  0  0  0  0  0  0
    0.0000    0.8250    0.0000 O   0  0  0  0  0  0  0  0  0  0  0  0
    1.0847    1.9747    0.0000 H   0  0  0  0  0  0  0  0  0  0  0  0
    0.3442    1.9747    0.0000 H   0  0  0  0  0  0  0  0  0  0  0  0
    1.8823   -0.6893    0.0000 H   0  0  0  0  0  0  0  0  0  0  0  0
    2.2525   -0.0480    0.0000 H   0  0  0  0  0  0  0  0  0  0  0  0
   -0.8236   -0.0480    0.0000 H   0  0  0  0  0  0  0  0  0  0  0  0
   -0.4533   -0.6893    0.0000 H   0  0  0  0  0  0  0  0  0  0  0  0
  1  2  1  0  0  0  0
  2  3  1  0  0  0  0
  3  4  1  0  0  0  0
  4  5  1  0  0  0  0
  5  6  1  0  0  0  0
  1  6  1  0  0  0  0
  1  7  1  0  0  0  0
  1  8  1  0  0  0  0
  3  9  1  0  0  0  0
  3 10  1  0  0  0  0
  5 11  1  0  0  0  0
  5 12  1  0  0  0  0
M  END
>  <InChIKey>
InChI=1S/C3H6O3/c1-4-2-6-3-5-1/h1-3H2

>  <UN GHS>
Non-irritant

>  <CASRN>
110-88-3

> <Outcome>
0

>  <Index>
1181

>  <StandardizerResult>
Clear Stereo (ID: ClearStereo)
Wedge Clean (ID: WedgeClean)
Mesomerize (ID: Mesomerize)
Tautomerize (ID: Tautomerize)
Add Explicit Hydrogens (ID: AddExplicitH)
Neutralize (ID: Neutralize)
Clean 2D (ID: Clean2D)

> <knn Distance>
3.87298345565796

> <CpId>
1181

$$$$
1387
  Mrv1532301301811342D          

 28 30  0  0  0  0            999 V2000
    0.8265   -2.5907    0.0000 N   0  0  0  0  0  0  0  0  0  0  0  0
    0.8265   -1.7657    0.0000 C   0  0  0  0  0  0  0  0  0  0  0  0
    0.0911   -2.1394    0.0000 C   0  0  0  0  0  0  0  0  0  0  0  0
    0.5405   -1.3491    0.0000 C   0  0  0  0  0  0  0  0  0  0  0  0
    1.2760   -1.7228    0.0000 C   0  0  0  0  0  0  0  0  0  0  0  0
    2.0116   -1.3491    0.0000 C   0  0  0  0  0  0  0  0  0  0  0  0
    2.0116   -0.6017    0.0000 C   0  0  0  0  0  0  0  0  0  0  0  0
    1.2760   -0.2280    0.0000 C   0  0  0  0  0  0  0  0  0  0  0  0
    0.5405   -0.6017    0.0000 C   0  0  0  0  0  0  0  0  0  0  0  0
    0.8265   -1.0183    0.0000 C   0  0  0  0  0  0  0  0  0  0  0  0
    1.5621   -2.1394    0.0000 C   0  0  0  0  0  0  0  0  0  0  0  0
    0.4518   -3.3258    0.0000 H   0  0  0  0  0  0  0  0  0  0  0  0
    1.2011   -3.3258    0.0000 H   0  0  0  0  0  0  0  0  0  0  0  0
   -0.7045   -1.9208    0.0000 H   0  0  0  0  0  0  0  0  0  0  0  0
   -0.5003   -2.7147    0.0000 H   0  0  0  0  0  0  0  0  0  0  0  0
   -0.2571   -1.1382    0.0000 H   0  0  0  0  0  0  0  0  0  0  0  0
    1.7033   -1.0172    0.0000 H   0  0  0  0  0  0  0  0  0  0  0  0
    1.2663   -0.8979    0.0000 H   0  0  0  0  0  0  0  0  0  0  0  0
    2.8091   -1.5601    0.0000 H   0  0  0  0  0  0  0  0  0  0  0  0
    2.8340   -0.5366    0.0000 H   0  0  0  0  0  0  0  0  0  0  0  0
    2.4421    0.1020    0.0000 H   0  0  0  0  0  0  0  0  0  0  0  0
    1.2759    0.5970    0.0000 H   0  0  0  0  0  0  0  0  0  0  0  0
    0.4021    0.2116    0.0000 H   0  0  0  0  0  0  0  0  0  0  0  0
   -0.1026   -0.0849    0.0000 H   0  0  0  0  0  0  0  0  0  0  0  0
    1.4780   -0.5122    0.0000 H   0  0  0  0  0  0  0  0  0  0  0  0
    0.0027   -0.9725    0.0000 H   0  0  0  0  0  0  0  0  0  0  0  0
    1.8810   -2.9003    0.0000 H   0  0  0  0  0  0  0  0  0  0  0  0
    2.3331   -2.4330    0.0000 H   0  0  0  0  0  0  0  0  0  0  0  0
  1  2  1  0  0  0  0
  2  3  1  0  0  0  0
  3  4  1  0  0  0  0
  6 11  1  0  0  0  0
  5  6  1  0  0  0  0
  2 11  1  0  0  0  0
  4  5  1  0  0  0  0
  8  9  1  0  0  0  0
  7  8  1  0  0  0  0
  8 10  1  0  0  0  0
  4  9  1  0  0  0  0
  2 10  1  0  0  0  0
  6  7  1  0  0  0  0
  1 12  1  0  0  0  0
  1 13  1  0  0  0  0
  3 14  1  0  0  0  0
  3 15  1  0  0  0  0
  4 16  1  0  0  0  0
  5 17  1  0  0  0  0
  5 18  1  0  0  0  0
  6 19  1  0  0  0  0
  7 20  1  0  0  0  0
  7 21  1  0  0  0  0
  8 22  1  0  0  0  0
  9 23  1  0  0  0  0
  9 24  1  0  0  0  0
 10 25  1  0  0  0  0
 10 26  1  0  0  0  0
 11 27  1  0  0  0  0
 11 28  1  0  0  0  0
M  END
>  <InChIKey>
InChI=1S/C10H17N/c11-10-4-7-1-8(5-10)3-9(2-7)6-10/h7-9H,1-6,11H2

>  <CASRN>
768-94-5

> <Outcome>
0

>  <Index>
1387

>  <StandardizerResult>
Clear Stereo (ID: ClearStereo)
Wedge Clean (ID: WedgeClean)
Mesomerize (ID: Mesomerize)
Tautomerize (ID: Tautomerize)
Add Explicit Hydrogens (ID: AddExplicitH)
Neutralize (ID: Neutralize)
Clean 2D (ID: Clean2D)

> <knn Distance>
3.87298345565796

> <CpId>
1387

$$$$
1415
  Mrv1532301301811342D          

 37 37  0  0  0  0            999 V2000
    1.4289   -4.9500    0.0000 C   0  0  0  0  0  0  0  0  0  0  0  0
    2.1434   -5.3625    0.0000 C   0  0  0  0  0  0  0  0  0  0  0  0
    2.8579   -4.9500    0.0000 C   0  0  0  0  0  0  0  0  0  0  0  0
    3.5724   -5.3625    0.0000 C   0  0  0  0  0  0  0  0  0  0  0  0
    4.2868   -4.9500    0.0000 C   0  0  0  0  0  0  0  0  0  0  0  0
    5.0013   -5.3625    0.0000 C   0  0  0  0  0  0  0  0  0  0  0  0
    5.7158   -4.9500    0.0000 C   0  0  0  0  0  0  0  0  0  0  0  0
    6.4302   -5.3625    0.0000 C   0  0  0  0  0  0  0  0  0  0  0  0
    6.4302   -6.1875    0.0000 O   0  0  0  0  0  0  0  0  0  0  0  0
    7.1447   -4.9500    0.0000 O   0  0  0  0  0  0  0  0  0  0  0  0
    7.8592   -5.3625    0.0000 C   0  0  0  0  0  0  0  0  0  0  0  0
    8.5737   -4.9500    0.0000 C   0  0  0  0  0  0  0  0  0  0  0  0
    8.5737   -4.1250    0.0000 Br  0  0  0  0  0  0  0  0  0  0  0  0
    9.2881   -5.3625    0.0000 C   0  0  0  0  0  0  0  0  0  0  0  0
    9.2881   -6.1875    0.0000 C   0  0  0  0  0  0  0  0  0  0  0  0
    8.5737   -6.6000    0.0000 C   0  0  0  0  0  0  0  0  0  0  0  0
    7.8592   -6.1875    0.0000 C   0  0  0  0  0  0  0  0  0  0  0  0
    7.1447   -6.6000    0.0000 Br  0  0  0  0  0  0  0  0  0  0  0  0
   10.0026   -6.6000    0.0000 C   0  0  0  0  0  0  0  0  0  0  0  0
   10.7171   -7.0125    0.0000 N   0  0  0  0  0  0  0  0  0  0  0  0
    1.8414   -4.2355    0.0000 H   0  0  0  0  0  0  0  0  0  0  0  0
    0.7145   -4.5375    0.0000 H   0  0  0  0  0  0  0  0  0  0  0  0
    1.0164   -5.6645    0.0000 H   0  0  0  0  0  0  0  0  0  0  0  0
    1.7732   -6.0997    0.0000 H   0  0  0  0  0  0  0  0  0  0  0  0
    2.5137   -6.0997    0.0000 H   0  0  0  0  0  0  0  0  0  0  0  0
    3.2281   -4.2128    0.0000 H   0  0  0  0  0  0  0  0  0  0  0  0
    2.4876   -4.2128    0.0000 H   0  0  0  0  0  0  0  0  0  0  0  0
    3.2021   -6.0997    0.0000 H   0  0  0  0  0  0  0  0  0  0  0  0
    3.9426   -6.0997    0.0000 H   0  0  0  0  0  0  0  0  0  0  0  0
    4.6571   -4.2128    0.0000 H   0  0  0  0  0  0  0  0  0  0  0  0
    3.9166   -4.2128    0.0000 H   0  0  0  0  0  0  0  0  0  0  0  0
    4.6310   -6.0997    0.0000 H   0  0  0  0  0  0  0  0  0  0  0  0
    5.3716   -6.0997    0.0000 H   0  0  0  0  0  0  0  0  0  0  0  0
    6.0860   -4.2128    0.0000 H   0  0  0  0  0  0  0  0  0  0  0  0
    5.3455   -4.2128    0.0000 H   0  0  0  0  0  0  0  0  0  0  0  0
   10.0026   -4.9500    0.0000 H   0  0  0  0  0  0  0  0  0  0  0  0
    8.5737   -7.4250    0.0000 H   0  0  0  0  0  0  0  0  0  0  0  0
  1  2  1  0  0  0  0
  2  3  1  0  0  0  0
  3  4  1  0  0  0  0
  4  5  1  0  0  0  0
  5  6  1  0  0  0  0
  6  7  1  0  0  0  0
  7  8  1  0  0  0  0
  8  9  2  0  0  0  0
  8 10  1  0  0  0  0
 10 11  1  0  0  0  0
 11 12  4  0  0  0  0
 12 13  1  0  0  0  0
 12 14  4  0  0  0  0
 14 15  4  0  0  0  0
 15 16  4  0  0  0  0
 16 17  4  0  0  0  0
 11 17  4  0  0  0  0
 17 18  1  0  0  0  0
 15 19  1  0  0  0  0
 19 20  3  0  0  0  0
  1 21  1  0  0  0  0
  1 22  1  0  0  0  0
  1 23  1  0  0  0  0
  2 24  1  0  0  0  0
  2 25  1  0  0  0  0
  3 26  1  0  0  0  0
  3 27  1  0  0  0  0
  4 28  1  0  0  0  0
  4 29  1  0  0  0  0
  5 30  1  0  0  0  0
  5 31  1  0  0  0  0
  6 32  1  0  0  0  0
  6 33  1  0  0  0  0
  7 34  1  0  0  0  0
  7 35  1  0  0  0  0
 14 36  1  0  0  0  0
 16 37  1  0  0  0  0
M  END
>  <InChIKey>
InChI=1S/C15H17Br2NO2/c1-2-3-4-5-6-7-14(19)20-15-12(16)8-11(10-18)9-13(15)17/h8-9H,2-7H2,1H3

>  <CASRN>
1689-99-2

> <Outcome>
0

>  <Index>
1415

>  <StandardizerResult>
Dearomatize (ID: Dearomatize)
Clear Stereo (ID: ClearStereo)
Wedge Clean (ID: WedgeClean)
Mesomerize (ID: Mesomerize)
Tautomerize (ID: Tautomerize)
Aromatize (ID: Aromatize)
Add Explicit Hydrogens (ID: AddExplicitH)
Neutralize (ID: Neutralize)
Clean 2D (ID: Clean2D)

> <knn Distance>
3.87298345565796

> <CpId>
1415

$$$$
1423
  Mrv1532301301811342D          

 75 77  0  0  0  0            999 V2000
   -2.6575   -1.4325    0.0000 C   0  0  0  0  0  0  0  0  0  0  0  0
   -1.8505   -1.2609    0.0000 C   0  0  0  0  0  0  0  0  0  0  0  0
   -1.5956   -0.4763    0.0000 C   0  0  0  0  0  0  0  0  0  0  0  0
   -1.2985   -1.8740    0.0000 C   0  0  0  0  0  0  0  0  0  0  0  0
   -1.5534   -2.6587    0.0000 C   0  0  0  0  0  0  0  0  0  0  0  0
   -0.4915   -1.7025    0.0000 C   0  0  0  0  0  0  0  0  0  0  0  0
    0.0605   -2.3156    0.0000 C   0  0  0  0  0  0  0  0  0  0  0  0
    0.8675   -2.1441    0.0000 C   0  0  0  0  0  0  0  0  0  0  0  0
    1.4195   -2.7572    0.0000 C   0  0  0  0  0  0  0  0  0  0  0  0
    1.1224   -1.3595    0.0000 C   0  0  0  0  0  0  0  0  0  0  0  0
    0.6375   -0.6920    0.0000 C   0  0  0  0  0  0  0  0  0  0  0  0
    1.1224   -0.0246    0.0000 C   0  0  0  0  0  0  0  0  0  0  0  0
    1.9071   -0.2795    0.0000 C   0  0  0  0  0  0  0  0  0  0  0  0
    2.6215    0.1330    0.0000 C   0  0  0  0  0  0  0  0  0  0  0  0
    3.3360   -0.2795    0.0000 C   0  0  0  0  0  0  0  0  0  0  0  0
    3.3360   -1.1045    0.0000 C   0  0  0  0  0  0  0  0  0  0  0  0
    2.6215   -1.5170    0.0000 C   0  0  0  0  0  0  0  0  0  0  0  0
    1.9071   -1.1045    0.0000 C   0  0  0  0  0  0  0  0  0  0  0  0
    1.8208   -1.9250    0.0000 C   0  0  0  0  0  0  0  0  0  0  0  0
    2.6215    0.9580    0.0000 C   0  0  0  0  0  0  0  0  0  0  0  0
    1.9071    1.3705    0.0000 C   0  0  0  0  0  0  0  0  0  0  0  0
    1.9071    2.1955    0.0000 C   0  0  0  0  0  0  0  0  0  0  0  0
    1.1926    2.6080    0.0000 C   0  0  0  0  0  0  0  0  0  0  0  0
    0.4781    2.1955    0.0000 C   0  0  0  0  0  0  0  0  0  0  0  0
    1.1926    3.4330    0.0000 C   0  0  0  0  0  0  0  0  0  0  0  0
    1.9071    3.8455    0.0000 C   0  0  0  0  0  0  0  0  0  0  0  0
    2.6215    3.4330    0.0000 C   0  0  0  0  0  0  0  0  0  0  0  0
    2.6215    2.6080    0.0000 C   0  0  0  0  0  0  0  0  0  0  0  0
    3.3360    2.1955    0.0000 O   0  0  0  0  0  0  0  0  0  0  0  0
   -2.8290   -0.6255    0.0000 H   0  0  0  0  0  0  0  0  0  0  0  0
   -3.4644   -1.6040    0.0000 H   0  0  0  0  0  0  0  0  0  0  0  0
   -2.4859   -2.2394    0.0000 H   0  0  0  0  0  0  0  0  0  0  0  0
   -2.4025   -0.6479    0.0000 H   0  0  0  0  0  0  0  0  0  0  0  0
   -0.9037   -0.9257    0.0000 H   0  0  0  0  0  0  0  0  0  0  0  0
   -0.9825    0.0757    0.0000 H   0  0  0  0  0  0  0  0  0  0  0  0
   -1.9701    0.2588    0.0000 H   0  0  0  0  0  0  0  0  0  0  0  0
   -2.1054   -2.0456    0.0000 H   0  0  0  0  0  0  0  0  0  0  0  0
   -2.2885   -3.0332    0.0000 H   0  0  0  0  0  0  0  0  0  0  0  0
   -1.3819   -3.4656    0.0000 H   0  0  0  0  0  0  0  0  0  0  0  0
   -0.7295   -2.7018    0.0000 H   0  0  0  0  0  0  0  0  0  0  0  0
    0.1845   -1.2296    0.0000 H   0  0  0  0  0  0  0  0  0  0  0  0
    0.3295   -3.0955    0.0000 H   0  0  0  0  0  0  0  0  0  0  0  0
    0.6126   -2.9287    0.0000 H   0  0  0  0  0  0  0  0  0  0  0  0
    1.1382   -3.5327    0.0000 H   0  0  0  0  0  0  0  0  0  0  0  0
    1.9289   -3.4062    0.0000 H   0  0  0  0  0  0  0  0  0  0  0  0
    2.2397   -2.6682    0.0000 H   0  0  0  0  0  0  0  0  0  0  0  0
    1.3774   -0.5748    0.0000 H   0  0  0  0  0  0  0  0  0  0  0  0
    0.3201    0.0695    0.0000 H   0  0  0  0  0  0  0  0  0  0  0  0
   -0.1779   -0.5666    0.0000 H   0  0  0  0  0  0  0  0  0  0  0  0
    1.5790    0.6626    0.0000 H   0  0  0  0  0  0  0  0  0  0  0  0
    0.9946    0.7905    0.0000 H   0  0  0  0  0  0  0  0  0  0  0  0
    2.6215   -0.6920    0.0000 H   0  0  0  0  0  0  0  0  0  0  0  0
    4.1596   -0.2316    0.0000 H   0  0  0  0  0  0  0  0  0  0  0  0
    3.7894    0.4098    0.0000 H   0  0  0  0  0  0  0  0  0  0  0  0
    3.7894   -1.7938    0.0000 H   0  0  0  0  0  0  0  0  0  0  0  0
    4.1596   -1.1525    0.0000 H   0  0  0  0  0  0  0  0  0  0  0  0
    2.7387   -2.3337    0.0000 H   0  0  0  0  0  0  0  0  0  0  0  0
    3.2426   -2.0601    0.0000 H   0  0  0  0  0  0  0  0  0  0  0  0
    0.9985   -1.8591    0.0000 H   0  0  0  0  0  0  0  0  0  0  0  0
    1.1052   -2.3355    0.0000 H   0  0  0  0  0  0  0  0  0  0  0  0
    2.6106   -2.1634    0.0000 H   0  0  0  0  0  0  0  0  0  0  0  0
    3.3360    1.3705    0.0000 H   0  0  0  0  0  0  0  0  0  0  0  0
    1.1014    1.5481    0.0000 H   0  0  0  0  0  0  0  0  0  0  0  0
    1.1926    1.7830    0.0000 H   0  0  0  0  0  0  0  0  0  0  0  0
    0.3210    3.0054    0.0000 H   0  0  0  0  0  0  0  0  0  0  0  0
   -0.3388    2.3109    0.0000 H   0  0  0  0  0  0  0  0  0  0  0  0
    0.1028    1.4608    0.0000 H   0  0  0  0  0  0  0  0  0  0  0  0
    0.7393    4.1223    0.0000 H   0  0  0  0  0  0  0  0  0  0  0  0
    0.3690    3.4809    0.0000 H   0  0  0  0  0  0  0  0  0  0  0  0
    2.2773    4.5827    0.0000 H   0  0  0  0  0  0  0  0  0  0  0  0
    1.5368    4.5827    0.0000 H   0  0  0  0  0  0  0  0  0  0  0  0
    3.4451    3.4809    0.0000 H   0  0  0  0  0  0  0  0  0  0  0  0
    3.0749    4.1223    0.0000 H   0  0  0  0  0  0  0  0  0  0  0  0
    2.6215    1.7830    0.0000 H   0  0  0  0  0  0  0  0  0  0  0  0
    4.0505    2.6080    0.0000 H   0  0  0  0  0  0  0  0  0  0  0  0
  1  2  1  0  0  0  0
  2  3  1  0  0  0  0
  2  4  1  0  0  0  0
  4  5  1  0  0  0  0
  6  4  1  4  0  0  0
  6  7  2  0  0  0  0
  7  8  1  0  0  0  0
  8  9  1  0  0  0  0
  8 10  1  0  0  0  0
 10 11  1  0  0  0  0
 11 12  1  0  0  0  0
 12 13  1  0  0  0  0
 13 14  1  0  0  0  0
 14 15  1  0  0  0  0
 15 16  1  0  0  0  0
 16 17  1  0  0  0  0
 17 18  1  0  0  0  0
 10 18  1  0  0  0  0
 13 18  1  0  0  0  0
 18 19  1  0  0  0  0
 14 20  2  0  0  0  0
 20 21  1  4  0  0  0
 21 22  2  0  0  0  0
 22 23  1  4  0  0  0
 23 24  1  0  0  0  0
 23 25  1  0  0  0  0
 25 26  1  0  0  0  0
 26 27  1  0  0  0  0
 27 28  1  0  0  0  0
 22 28  1  0  0  0  0
 28 29  1  0  0  0  0
  1 30  1  0  0  0  0
  1 31  1  0  0  0  0
  1 32  1  0  0  0  0
  2 33  1  0  0  0  0
  3 34  1  0  0  0  0
  3 35  1  0  0  0  0
  3 36  1  0  0  0  0
  4 37  1  0  0  0  0
  5 38  1  0  0  0  0
  5 39  1  0  0  0  0
  5 40  1  0  0  0  0
  6 41  1  0  0  0  0
  7 42  1  0  0  0  0
  8 43  1  0  0  0  0
  9 44  1  0  0  0  0
  9 45  1  0  0  0  0
  9 46  1  0  0  0  0
 10 47  1  0  0  0  0
 11 48  1  0  0  0  0
 11 49  1  0  0  0  0
 12 50  1  0  0  0  0
 12 51  1  0  0  0  0
 13 52  1  0  0  0  0
 15 53  1  0  0  0  0
 15 54  1  0  0  0  0
 16 55  1  0  0  0  0
 16 56  1  0  0  0  0
 17 57  1  0  0  0  0
 17 58  1  0  0  0  0
 19 59  1  0  0  0  0
 19 60  1  0  0  0  0
 19 61  1  0  0  0  0
 20 62  1  0  0  0  0
 21 63  1  0  0  0  0
 23 64  1  0  0  0  0
 24 65  1  0  0  0  0
 24 66  1  0  0  0  0
 24 67  1  0  0  0  0
 25 68  1  0  0  0  0
 25 69  1  0  0  0  0
 26 70  1  0  0  0  0
 26 71  1  0  0  0  0
 27 72  1  0  0  0  0
 27 73  1  0  0  0  0
 28 74  1  0  0  0  0
 29 75  1  0  0  0  0
M  END
>  <InChIKey>
InChI=1S/C28H46O/c1-19(2)20(3)12-13-22(5)25-16-17-26-23(10-8-18-28(25,26)6)14-15-24-21(4)9-7-11-27(24)29/h12-15,19-22,25-27,29H,7-11,16-18H2,1-6H3

>  <CASRN>
67-96-9

> <Outcome>
0

>  <Index>
1423

>  <StandardizerResult>
Clear Stereo (ID: ClearStereo)
Wedge Clean (ID: WedgeClean)
Mesomerize (ID: Mesomerize)
Tautomerize (ID: Tautomerize)
Add Explicit Hydrogens (ID: AddExplicitH)
Neutralize (ID: Neutralize)
Clean 2D (ID: Clean2D)

> <knn Distance>
3.87298345565796

> <CpId>
1423

$$$$
1426
  Mrv1532301301811342D          

 56 59  0  0  0  0            999 V2000
    1.7045   -2.9624    0.0000 C   0  0  0  0  0  0  0  0  0  0  0  0
    2.5217   -3.0752    0.0000 C   0  0  0  0  0  0  0  0  0  0  0  0
    2.8326   -3.8394    0.0000 O   0  0  0  0  0  0  0  0  0  0  0  0
    3.0281   -2.4239    0.0000 C   0  0  0  0  0  0  0  0  0  0  0  0
    2.7987   -1.6314    0.0000 C   0  0  0  0  0  0  0  0  0  0  0  0
    3.4816   -1.1684    0.0000 C   0  0  0  0  0  0  0  0  0  0  0  0
    4.1329   -1.6748    0.0000 C   0  0  0  0  0  0  0  0  0  0  0  0
    4.9450   -1.5296    0.0000 C   0  0  0  0  0  0  0  0  0  0  0  0
    5.2253   -0.7536    0.0000 C   0  0  0  0  0  0  0  0  0  0  0  0
    6.0375   -0.6084    0.0000 C   0  0  0  0  0  0  0  0  0  0  0  0
    6.5693   -1.2391    0.0000 C   0  0  0  0  0  0  0  0  0  0  0  0
    7.3814   -1.0939    0.0000 C   0  0  0  0  0  0  0  0  0  0  0  0
    7.9132   -1.7246    0.0000 C   0  0  0  0  0  0  0  0  0  0  0  0
    8.7253   -1.5794    0.0000 O   0  0  0  0  0  0  0  0  0  0  0  0
    7.6329   -2.5006    0.0000 C   0  0  0  0  0  0  0  0  0  0  0  0
    6.8208   -2.6458    0.0000 C   0  0  0  0  0  0  0  0  0  0  0  0
    6.2890   -2.0151    0.0000 C   0  0  0  0  0  0  0  0  0  0  0  0
    6.0087   -2.7910    0.0000 C   0  0  0  0  0  0  0  0  0  0  0  0
    5.4769   -2.1603    0.0000 C   0  0  0  0  0  0  0  0  0  0  0  0
    5.1966   -2.9362    0.0000 C   0  0  0  0  0  0  0  0  0  0  0  0
    5.7284   -3.5669    0.0000 O   0  0  0  0  0  0  0  0  0  0  0  0
    4.3844   -3.0814    0.0000 C   0  0  0  0  0  0  0  0  0  0  0  0
    3.8526   -2.4507    0.0000 C   0  0  0  0  0  0  0  0  0  0  0  0
    3.4928   -3.1931    0.0000 C   0  0  0  0  0  0  0  0  0  0  0  0
    1.8173   -2.1451    0.0000 H   0  0  0  0  0  0  0  0  0  0  0  0
    0.8872   -2.8495    0.0000 H   0  0  0  0  0  0  0  0  0  0  0  0
    1.5916   -3.7796    0.0000 H   0  0  0  0  0  0  0  0  0  0  0  0
    2.2178   -2.2684    0.0000 H   0  0  0  0  0  0  0  0  0  0  0  0
    2.5249   -0.8532    0.0000 H   0  0  0  0  0  0  0  0  0  0  0  0
    2.0677   -1.2490    0.0000 H   0  0  0  0  0  0  0  0  0  0  0  0
    3.8924   -0.4530    0.0000 H   0  0  0  0  0  0  0  0  0  0  0  0
    3.1182   -0.4278    0.0000 H   0  0  0  0  0  0  0  0  0  0  0  0
    4.6647   -2.3055    0.0000 H   0  0  0  0  0  0  0  0  0  0  0  0
    4.4132   -0.8989    0.0000 H   0  0  0  0  0  0  0  0  0  0  0  0
    5.3666    0.0592    0.0000 H   0  0  0  0  0  0  0  0  0  0  0  0
    4.8111   -0.0402    0.0000 H   0  0  0  0  0  0  0  0  0  0  0  0
    6.8019   -0.2983    0.0000 H   0  0  0  0  0  0  0  0  0  0  0  0
    6.4095    0.1279    0.0000 H   0  0  0  0  0  0  0  0  0  0  0  0
    7.1011   -1.8698    0.0000 H   0  0  0  0  0  0  0  0  0  0  0  0
    7.9801   -0.5263    0.0000 H   0  0  0  0  0  0  0  0  0  0  0  0
    7.2837   -0.2747    0.0000 H   0  0  0  0  0  0  0  0  0  0  0  0
    8.4450   -2.3553    0.0000 H   0  0  0  0  0  0  0  0  0  0  0  0
    9.3560   -1.0476    0.0000 H   0  0  0  0  0  0  0  0  0  0  0  0
    7.4916   -3.3134    0.0000 H   0  0  0  0  0  0  0  0  0  0  0  0
    8.0471   -3.2140    0.0000 H   0  0  0  0  0  0  0  0  0  0  0  0
    6.3107   -3.2941    0.0000 H   0  0  0  0  0  0  0  0  0  0  0  0
    6.8708   -3.4693    0.0000 H   0  0  0  0  0  0  0  0  0  0  0  0
    6.0885   -3.6121    0.0000 H   0  0  0  0  0  0  0  0  0  0  0  0
    5.3780   -3.3228    0.0000 H   0  0  0  0  0  0  0  0  0  0  0  0
    6.7597   -3.1324    0.0000 H   0  0  0  0  0  0  0  0  0  0  0  0
    5.7572   -1.3844    0.0000 H   0  0  0  0  0  0  0  0  0  0  0  0
    4.2172   -3.8893    0.0000 H   0  0  0  0  0  0  0  0  0  0  0  0
    4.7840   -3.8032    0.0000 H   0  0  0  0  0  0  0  0  0  0  0  0
    3.5212   -4.0176    0.0000 H   0  0  0  0  0  0  0  0  0  0  0  0
    4.1206   -3.7283    0.0000 H   0  0  0  0  0  0  0  0  0  0  0  0
    2.6743   -3.0892    0.0000 H   0  0  0  0  0  0  0  0  0  0  0  0
  1  2  1  0  0  0  0
  2  3  2  0  0  0  0
  2  4  1  0  0  0  0
  4  5  1  0  0  0  0
  5  6  1  0  0  0  0
  6  7  1  0  0  0  0
  7  8  1  0  0  0  0
  8  9  1  0  0  0  0
  9 10  1  0  0  0  0
 10 11  1  0  0  0  0
 11 12  1  0  0  0  0
 12 13  1  0  0  0  0
 13 14  1  0  0  0  0
 13 15  1  0  0  0  0
 15 16  1  0  0  0  0
 16 17  1  0  0  0  0
 11 17  1  0  0  0  0
 17 18  1  0  0  0  0
 17 19  1  0  0  0  0
  8 19  1  0  0  0  0
 19 20  1  0  0  0  0
 20 21  2  0  0  0  0
 20 22  1  0  0  0  0
 22 23  1  0  0  0  0
  4 23  1  0  0  0  0
  7 23  1  0  0  0  0
 23 24  1  0  0  0  0
  1 25  1  0  0  0  0
  1 26  1  0  0  0  0
  1 27  1  0  0  0  0
  4 28  1  0  0  0  0
  5 29  1  0  0  0  0
  5 30  1  0  0  0  0
  6 31  1  0  0  0  0
  6 32  1  0  0  0  0
  7 33  1  0  0  0  0
  8 34  1  0  0  0  0
  9 35  1  0  0  0  0
  9 36  1  0  0  0  0
 10 37  1  0  0  0  0
 10 38  1  0  0  0  0
 11 39  1  0  0  0  0
 12 40  1  0  0  0  0
 12 41  1  0  0  0  0
 13 42  1  0  0  0  0
 14 43  1  0  0  0  0
 15 44  1  0  0  0  0
 15 45  1  0  0  0  0
 16 46  1  0  0  0  0
 16 47  1  0  0  0  0
 18 48  1  0  0  0  0
 18 49  1  0  0  0  0
 18 50  1  0  0  0  0
 19 51  1  0  0  0  0
 22 52  1  0  0  0  0
 22 53  1  0  0  0  0
 24 54  1  0  0  0  0
 24 55  1  0  0  0  0
 24 56  1  0  0  0  0
M  END
>  <InChIKey>
InChI=1S/C21H32O3/c1-12(22)16-6-7-17-15-5-4-13-10-14(23)8-9-20(13,2)19(15)18(24)11-21(16,17)3/h13-17,19,23H,4-11H2,1-3H3

>  <CASRN>
23930-19-0

> <Outcome>
0

>  <Index>
1426

>  <StandardizerResult>
Clear Stereo (ID: ClearStereo)
Wedge Clean (ID: WedgeClean)
Mesomerize (ID: Mesomerize)
Tautomerize (ID: Tautomerize)
Add Explicit Hydrogens (ID: AddExplicitH)
Neutralize (ID: Neutralize)
Clean 2D (ID: Clean2D)

> <knn Distance>
3.87298345565796

> <CpId>
1426

$$$$
1468
  Mrv1532301301811342D          

 49 52  0  0  0  0            999 V2000
   -1.9505   -3.2532    0.0000 C   0  0  0  0  0  0  0  0  0  0  0  0
   -1.1384   -3.1080    0.0000 C   0  0  0  0  0  0  0  0  0  0  0  0
   -0.6065   -3.7387    0.0000 O   0  0  0  0  0  0  0  0  0  0  0  0
   -0.8581   -2.3320    0.0000 O   0  0  0  0  0  0  0  0  0  0  0  0
   -0.0459   -2.1868    0.0000 C   0  0  0  0  0  0  0  0  0  0  0  0
    0.2344   -1.4109    0.0000 C   0  0  0  0  0  0  0  0  0  0  0  0
    1.0465   -1.2657    0.0000 C   0  0  0  0  0  0  0  0  0  0  0  0
    1.5783   -1.8964    0.0000 C   0  0  0  0  0  0  0  0  0  0  0  0
    2.3904   -1.7512    0.0000 C   0  0  0  0  0  0  0  0  0  0  0  0
    2.6707   -0.9752    0.0000 C   0  0  0  0  0  0  0  0  0  0  0  0
    3.4828   -0.8300    0.0000 C   0  0  0  0  0  0  0  0  0  0  0  0
    4.0147   -1.4607    0.0000 C   0  0  0  0  0  0  0  0  0  0  0  0
    4.3745   -0.7184    0.0000 C   0  0  0  0  0  0  0  0  0  0  0  0
    4.8392   -1.4875    0.0000 C   0  0  0  0  0  0  0  0  0  0  0  0
    5.3456   -0.8362    0.0000 O   0  0  0  0  0  0  0  0  0  0  0  0
    5.0685   -2.2800    0.0000 C   0  0  0  0  0  0  0  0  0  0  0  0
    4.3857   -2.7430    0.0000 C   0  0  0  0  0  0  0  0  0  0  0  0
    3.7344   -2.2367    0.0000 C   0  0  0  0  0  0  0  0  0  0  0  0
    2.9222   -2.3819    0.0000 C   0  0  0  0  0  0  0  0  0  0  0  0
    2.6419   -3.1578    0.0000 C   0  0  0  0  0  0  0  0  0  0  0  0
    1.8298   -3.3030    0.0000 C   0  0  0  0  0  0  0  0  0  0  0  0
    1.2980   -2.6723    0.0000 C   0  0  0  0  0  0  0  0  0  0  0  0
    0.4859   -2.8175    0.0000 C   0  0  0  0  0  0  0  0  0  0  0  0
   -2.0957   -2.4411    0.0000 H   0  0  0  0  0  0  0  0  0  0  0  0
   -2.7626   -3.3984    0.0000 H   0  0  0  0  0  0  0  0  0  0  0  0
   -1.8053   -4.0653    0.0000 H   0  0  0  0  0  0  0  0  0  0  0  0
   -0.2975   -0.7802    0.0000 H   0  0  0  0  0  0  0  0  0  0  0  0
    1.3268   -0.4898    0.0000 H   0  0  0  0  0  0  0  0  0  0  0  0
    1.8586   -1.1205    0.0000 H   0  0  0  0  0  0  0  0  0  0  0  0
    2.8120   -0.1624    0.0000 H   0  0  0  0  0  0  0  0  0  0  0  0
    2.2565   -0.2618    0.0000 H   0  0  0  0  0  0  0  0  0  0  0  0
    3.7496   -0.0493    0.0000 H   0  0  0  0  0  0  0  0  0  0  0  0
    3.2025   -1.6060    0.0000 H   0  0  0  0  0  0  0  0  0  0  0  0
    5.1847   -0.8741    0.0000 H   0  0  0  0  0  0  0  0  0  0  0  0
    5.0326   -0.2208    0.0000 H   0  0  0  0  0  0  0  0  0  0  0  0
    4.4454    0.1036    0.0000 H   0  0  0  0  0  0  0  0  0  0  0  0
    5.6494   -1.6430    0.0000 H   0  0  0  0  0  0  0  0  0  0  0  0
    6.1004   -0.5033    0.0000 H   0  0  0  0  0  0  0  0  0  0  0  0
    5.3424   -3.0583    0.0000 H   0  0  0  0  0  0  0  0  0  0  0  0
    5.7996   -2.6624    0.0000 H   0  0  0  0  0  0  0  0  0  0  0  0
    3.9749   -3.4585    0.0000 H   0  0  0  0  0  0  0  0  0  0  0  0
    4.7491   -3.4836    0.0000 H   0  0  0  0  0  0  0  0  0  0  0  0
    3.5367   -3.0376    0.0000 H   0  0  0  0  0  0  0  0  0  0  0  0
    2.1101   -2.5271    0.0000 H   0  0  0  0  0  0  0  0  0  0  0  0
    2.3504   -3.9296    0.0000 H   0  0  0  0  0  0  0  0  0  0  0  0
    3.1553   -3.8036    0.0000 H   0  0  0  0  0  0  0  0  0  0  0  0
    1.0174   -3.4463    0.0000 H   0  0  0  0  0  0  0  0  0  0  0  0
    1.5458   -4.0776    0.0000 H   0  0  0  0  0  0  0  0  0  0  0  0
   -0.1445   -3.3497    0.0000 H   0  0  0  0  0  0  0  0  0  0  0  0
  1  2  1  0  0  0  0
  2  3  2  0  0  0  0
  2  4  1  0  0  0  0
  4  5  1  0  0  0  0
  5  6  4  0  0  0  0
  6  7  4  0  0  0  0
  7  8  4  0  0  0  0
  8  9  1  0  0  0  0
  9 10  1  0  0  0  0
 10 11  1  0  0  0  0
 11 12  1  0  0  0  0
 12 13  1  0  0  0  0
 12 14  1  0  0  0  0
 14 15  1  0  0  0  0
 14 16  1  0  0  0  0
 16 17  1  0  0  0  0
 17 18  1  0  0  0  0
 12 18  1  0  0  0  0
 18 19  1  0  0  0  0
  9 19  1  0  0  0  0
 19 20  1  0  0  0  0
 20 21  1  0  0  0  0
 21 22  1  0  0  0  0
  8 22  4  0  0  0  0
 22 23  4  0  0  0  0
  5 23  4  0  0  0  0
  1 24  1  0  0  0  0
  1 25  1  0  0  0  0
  1 26  1  0  0  0  0
  6 27  1  0  0  0  0
  7 28  1  0  0  0  0
  9 29  1  0  0  0  0
 10 30  1  0  0  0  0
 10 31  1  0  0  0  0
 11 32  1  0  0  0  0
 11 33  1  0  0  0  0
 13 34  1  0  0  0  0
 13 35  1  0  0  0  0
 13 36  1  0  0  0  0
 14 37  1  0  0  0  0
 15 38  1  0  0  0  0
 16 39  1  0  0  0  0
 16 40  1  0  0  0  0
 17 41  1  0  0  0  0
 17 42  1  0  0  0  0
 18 43  1  0  0  0  0
 19 44  1  0  0  0  0
 20 45  1  0  0  0  0
 20 46  1  0  0  0  0
 21 47  1  0  0  0  0
 21 48  1  0  0  0  0
 23 49  1  0  0  0  0
M  END
>  <InChIKey>
InChI=1S/C20H26O3/c1-12(21)23-14-4-6-15-13(11-14)3-5-17-16(15)9-10-20(2)18(17)7-8-19(20)22/h4,6,11,16-19,22H,3,5,7-10H2,1-2H3

>  <CASRN>
4245-41-4

> <Outcome>
0

>  <Index>
1468

>  <StandardizerResult>
Dearomatize (ID: Dearomatize)
Clear Stereo (ID: ClearStereo)
Wedge Clean (ID: WedgeClean)
Mesomerize (ID: Mesomerize)
Tautomerize (ID: Tautomerize)
Aromatize (ID: Aromatize)
Add Explicit Hydrogens (ID: AddExplicitH)
Neutralize (ID: Neutralize)
Clean 2D (ID: Clean2D)

> <knn Distance>
3.87298345565796

> <CpId>
1468

$$$$
1479
  Mrv1532301301811342D          

 49 52  0  0  0  0            999 V2000
    3.5455   -3.2991    0.0000 C   0  0  0  0  0  0  0  0  0  0  0  0
    3.9053   -2.5567    0.0000 C   0  0  0  0  0  0  0  0  0  0  0  0
    4.4372   -3.1874    0.0000 C   0  0  0  0  0  0  0  0  0  0  0  0
    5.2493   -3.0422    0.0000 C   0  0  0  0  0  0  0  0  0  0  0  0
    5.5296   -2.2663    0.0000 C   0  0  0  0  0  0  0  0  0  0  0  0
    4.9978   -1.6356    0.0000 C   0  0  0  0  0  0  0  0  0  0  0  0
    5.2781   -0.8596    0.0000 C   0  0  0  0  0  0  0  0  0  0  0  0
    6.0902   -0.7144    0.0000 C   0  0  0  0  0  0  0  0  0  0  0  0
    6.6220   -1.3451    0.0000 C   0  0  0  0  0  0  0  0  0  0  0  0
    7.4341   -1.1999    0.0000 C   0  0  0  0  0  0  0  0  0  0  0  0
    7.9659   -1.8306    0.0000 C   0  0  0  0  0  0  0  0  0  0  0  0
    8.7781   -1.6854    0.0000 O   0  0  0  0  0  0  0  0  0  0  0  0
    7.6856   -2.6065    0.0000 C   0  0  0  0  0  0  0  0  0  0  0  0
    6.8735   -2.7518    0.0000 C   0  0  0  0  0  0  0  0  0  0  0  0
    6.3417   -2.1211    0.0000 C   0  0  0  0  0  0  0  0  0  0  0  0
    6.0614   -2.8970    0.0000 C   0  0  0  0  0  0  0  0  0  0  0  0
    4.1856   -1.7808    0.0000 C   0  0  0  0  0  0  0  0  0  0  0  0
    3.5343   -1.2744    0.0000 C   0  0  0  0  0  0  0  0  0  0  0  0
    2.8515   -1.7374    0.0000 C   0  0  0  0  0  0  0  0  0  0  0  0
    3.0808   -2.5299    0.0000 C   0  0  0  0  0  0  0  0  0  0  0  0
    2.5744   -3.1812    0.0000 O   0  0  0  0  0  0  0  0  0  0  0  0
    2.7213   -3.3370    0.0000 H   0  0  0  0  0  0  0  0  0  0  0  0
    3.1856   -4.0414    0.0000 H   0  0  0  0  0  0  0  0  0  0  0  0
    4.0262   -3.9696    0.0000 H   0  0  0  0  0  0  0  0  0  0  0  0
    4.9245   -3.8531    0.0000 H   0  0  0  0  0  0  0  0  0  0  0  0
    4.7175   -2.4115    0.0000 H   0  0  0  0  0  0  0  0  0  0  0  0
    5.5155   -3.8230    0.0000 H   0  0  0  0  0  0  0  0  0  0  0  0
    5.9600   -3.4611    0.0000 H   0  0  0  0  0  0  0  0  0  0  0  0
    5.8099   -1.4903    0.0000 H   0  0  0  0  0  0  0  0  0  0  0  0
    4.4659   -1.0049    0.0000 H   0  0  0  0  0  0  0  0  0  0  0  0
    5.4194   -0.0468    0.0000 H   0  0  0  0  0  0  0  0  0  0  0  0
    4.8638   -0.1462    0.0000 H   0  0  0  0  0  0  0  0  0  0  0  0
    6.6971   -0.1556    0.0000 H   0  0  0  0  0  0  0  0  0  0  0  0
    8.0328   -0.6323    0.0000 H   0  0  0  0  0  0  0  0  0  0  0  0
    7.3364   -0.3807    0.0000 H   0  0  0  0  0  0  0  0  0  0  0  0
    8.4978   -2.4613    0.0000 H   0  0  0  0  0  0  0  0  0  0  0  0
    9.4088   -1.1536    0.0000 H   0  0  0  0  0  0  0  0  0  0  0  0
    7.5443   -3.4194    0.0000 H   0  0  0  0  0  0  0  0  0  0  0  0
    8.0999   -3.3200    0.0000 H   0  0  0  0  0  0  0  0  0  0  0  0
    6.6273   -3.5392    0.0000 H   0  0  0  0  0  0  0  0  0  0  0  0
    7.1538   -1.9758    0.0000 H   0  0  0  0  0  0  0  0  0  0  0  0
    6.2832   -3.6916    0.0000 H   0  0  0  0  0  0  0  0  0  0  0  0
    5.2855   -2.6167    0.0000 H   0  0  0  0  0  0  0  0  0  0  0  0
    5.4778   -3.4801    0.0000 H   0  0  0  0  0  0  0  0  0  0  0  0
    3.3932   -2.0101    0.0000 H   0  0  0  0  0  0  0  0  0  0  0  0
    3.4892   -0.4507    0.0000 H   0  0  0  0  0  0  0  0  0  0  0  0
    2.9296   -0.7132    0.0000 H   0  0  0  0  0  0  0  0  0  0  0  0
    2.2980   -1.1256    0.0000 H   0  0  0  0  0  0  0  0  0  0  0  0
    2.0348   -1.8542    0.0000 H   0  0  0  0  0  0  0  0  0  0  0  0
  1  2  1  0  0  0  0
  2  3  1  0  0  0  0
  3  4  1  0  0  0  0
  4  5  1  0  0  0  0
  5  6  1  0  0  0  0
  6  7  1  0  0  0  0
  7  8  1  0  0  0  0
  8  9  2  0  0  0  0
  9 10  1  0  0  0  0
 10 11  1  0  0  0  0
 11 12  1  0  0  0  0
 11 13  1  0  0  0  0
 13 14  1  0  0  0  0
 14 15  1  0  0  0  0
  5 15  1  0  0  0  0
  9 15  1  0  0  0  0
 15 16  1  0  0  0  0
  6 17  1  0  0  0  0
  2 17  1  0  0  0  0
 17 18  1  0  0  0  0
 18 19  1  0  0  0  0
 19 20  1  0  0  0  0
  2 20  1  0  0  0  0
 20 21  2  0  0  0  0
  1 22  1  0  0  0  0
  1 23  1  0  0  0  0
  1 24  1  0  0  0  0
  3 25  1  0  0  0  0
  3 26  1  0  0  0  0
  4 27  1  0  0  0  0
  4 28  1  0  0  0  0
  5 29  1  0  0  0  0
  6 30  1  0  0  0  0
  7 31  1  0  0  0  0
  7 32  1  0  0  0  0
  8 33  1  0  0  0  0
 10 34  1  0  0  0  0
 10 35  1  0  0  0  0
 11 36  1  0  0  0  0
 12 37  1  0  0  0  0
 13 38  1  0  0  0  0
 13 39  1  0  0  0  0
 14 40  1  0  0  0  0
 14 41  1  0  0  0  0
 16 42  1  0  0  0  0
 16 43  1  0  0  0  0
 16 44  1  0  0  0  0
 17 45  1  0  0  0  0
 18 46  1  0  0  0  0
 18 47  1  0  0  0  0
 19 48  1  0  0  0  0
 19 49  1  0  0  0  0
M  END
>  <InChIKey>
InChI=1S/C19H28O2/c1-18-9-7-13(20)11-12(18)3-4-14-15-5-6-17(21)19(15,2)10-8-16(14)18/h3,13-16,20H,4-11H2,1-2H3

>  <CASRN>
53-43-0

> <Outcome>
0

>  <Index>
1479

>  <StandardizerResult>
Clear Stereo (ID: ClearStereo)
Wedge Clean (ID: WedgeClean)
Mesomerize (ID: Mesomerize)
Tautomerize (ID: Tautomerize)
Add Explicit Hydrogens (ID: AddExplicitH)
Neutralize (ID: Neutralize)
Clean 2D (ID: Clean2D)

> <knn Distance>
3.87298345565796

> <CpId>
1479

$$$$
1480
  Mrv1532301301811342D          

 29 31  0  0  0  0            999 V2000
    0.5433   -1.9354    0.0000 C   0  0  0  0  0  0  0  0  0  0  0  0
    1.3683   -1.9354    0.0000 C   0  0  0  0  0  0  0  0  0  0  0  0
    1.8532   -1.2680    0.0000 C   0  0  0  0  0  0  0  0  0  0  0  0
    2.6378   -1.5229    0.0000 C   0  0  0  0  0  0  0  0  0  0  0  0
    3.3523   -1.1104    0.0000 C   0  0  0  0  0  0  0  0  0  0  0  0
    4.0668   -1.5229    0.0000 C   0  0  0  0  0  0  0  0  0  0  0  0
    4.7812   -1.1104    0.0000 C   0  0  0  0  0  0  0  0  0  0  0  0
    4.7812   -0.2854    0.0000 C   0  0  0  0  0  0  0  0  0  0  0  0
    5.4957   -1.5229    0.0000 C   0  0  0  0  0  0  0  0  0  0  0  0
    5.4957   -2.3479    0.0000 C   0  0  0  0  0  0  0  0  0  0  0  0
    6.2102   -2.7604    0.0000 O   0  0  0  0  0  0  0  0  0  0  0  0
    4.7812   -2.7604    0.0000 O   0  0  0  0  0  0  0  0  0  0  0  0
    4.0668   -2.3479    0.0000 C   0  0  0  0  0  0  0  0  0  0  0  0
    3.3523   -2.7604    0.0000 C   0  0  0  0  0  0  0  0  0  0  0  0
    3.3523   -3.5854    0.0000 C   0  0  0  0  0  0  0  0  0  0  0  0
    2.6378   -2.3479    0.0000 C   0  0  0  0  0  0  0  0  0  0  0  0
    1.8532   -2.6028    0.0000 O   0  0  0  0  0  0  0  0  0  0  0  0
    0.5433   -1.1104    0.0000 H   0  0  0  0  0  0  0  0  0  0  0  0
   -0.2817   -1.9354    0.0000 H   0  0  0  0  0  0  0  0  0  0  0  0
    0.5433   -2.7604    0.0000 H   0  0  0  0  0  0  0  0  0  0  0  0
    1.5983   -0.4833    0.0000 H   0  0  0  0  0  0  0  0  0  0  0  0
    3.3523   -0.2854    0.0000 H   0  0  0  0  0  0  0  0  0  0  0  0
    5.6062   -0.2854    0.0000 H   0  0  0  0  0  0  0  0  0  0  0  0
    4.7812    0.5396    0.0000 H   0  0  0  0  0  0  0  0  0  0  0  0
    3.9562   -0.2854    0.0000 H   0  0  0  0  0  0  0  0  0  0  0  0
    6.2102   -1.1104    0.0000 H   0  0  0  0  0  0  0  0  0  0  0  0
    2.5273   -3.5854    0.0000 H   0  0  0  0  0  0  0  0  0  0  0  0
    3.3523   -4.4104    0.0000 H   0  0  0  0  0  0  0  0  0  0  0  0
    4.1773   -3.5854    0.0000 H   0  0  0  0  0  0  0  0  0  0  0  0
  1  2  1  0  0  0  0
  2  3  4  0  0  0  0
  3  4  4  0  0  0  0
  4  5  4  0  0  0  0
  5  6  4  0  0  0  0
  6  7  1  0  0  0  0
  7  8  1  0  0  0  0
  7  9  2  0  0  0  0
  9 10  1  0  0  0  0
 10 11  2  0  0  0  0
 10 12  1  0  0  0  0
 12 13  1  0  0  0  0
  6 13  4  0  0  0  0
 13 14  4  0  0  0  0
 14 15  1  0  0  0  0
 14 16  4  0  0  0  0
  4 16  4  0  0  0  0
 16 17  4  0  0  0  0
  2 17  4  0  0  0  0
  1 18  1  0  0  0  0
  1 19  1  0  0  0  0
  1 20  1  0  0  0  0
  3 21  1  0  0  0  0
  5 22  1  0  0  0  0
  8 23  1  0  0  0  0
  8 24  1  0  0  0  0
  8 25  1  0  0  0  0
  9 26  1  0  0  0  0
 15 27  1  0  0  0  0
 15 28  1  0  0  0  0
 15 29  1  0  0  0  0
M  END
>  <InChIKey>
InChI=1S/C14H12O3/c1-7-4-12(15)17-14-9(3)13-10(6-11(7)14)5-8(2)16-13/h4-6H,1-3H3

>  <CASRN>
3902-71-4

> <Outcome>
0

>  <Index>
1480

>  <StandardizerResult>
Dearomatize (ID: Dearomatize)
Clear Stereo (ID: ClearStereo)
Wedge Clean (ID: WedgeClean)
Mesomerize (ID: Mesomerize)
Tautomerize (ID: Tautomerize)
Aromatize (ID: Aromatize)
Add Explicit Hydrogens (ID: AddExplicitH)
Neutralize (ID: Neutralize)
Clean 2D (ID: Clean2D)

> <knn Distance>
3.87298345565796

> <CpId>
1480

$$$$
1530
  Mrv1532301301811342D          

 56 58  0  0  0  0            999 V2000
    0.7424   -2.6882    0.0000 C   0  0  0  0  0  0  0  0  0  0  0  0
    0.3299   -1.9737    0.0000 C   0  0  0  0  0  0  0  0  0  0  0  0
   -0.4951   -1.9737    0.0000 C   0  0  0  0  0  0  0  0  0  0  0  0
    0.7424   -1.2592    0.0000 C   0  0  0  0  0  0  0  0  0  0  0  0
    1.5674   -1.2592    0.0000 C   0  0  0  0  0  0  0  0  0  0  0  0
    1.9799   -0.5448    0.0000 O   0  0  0  0  0  0  0  0  0  0  0  0
    1.9799   -1.9737    0.0000 O   0  0  0  0  0  0  0  0  0  0  0  0
    2.8049   -1.9737    0.0000 C   0  0  0  0  0  0  0  0  0  0  0  0
    3.2174   -1.2592    0.0000 C   0  0  0  0  0  0  0  0  0  0  0  0
    3.6299   -0.5448    0.0000 N   0  0  0  0  0  0  0  0  0  0  0  0
    3.2174   -2.6882    0.0000 C   0  0  0  0  0  0  0  0  0  0  0  0
    4.0424   -2.6882    0.0000 C   0  0  0  0  0  0  0  0  0  0  0  0
    4.4549   -3.4026    0.0000 C   0  0  0  0  0  0  0  0  0  0  0  0
    4.0424   -4.1171    0.0000 C   0  0  0  0  0  0  0  0  0  0  0  0
    3.2174   -4.1171    0.0000 C   0  0  0  0  0  0  0  0  0  0  0  0
    2.8049   -4.8316    0.0000 O   0  0  0  0  0  0  0  0  0  0  0  0
    3.2174   -5.5461    0.0000 C   0  0  0  0  0  0  0  0  0  0  0  0
    4.0424   -5.5461    0.0000 C   0  0  0  0  0  0  0  0  0  0  0  0
    4.4549   -6.2605    0.0000 C   0  0  0  0  0  0  0  0  0  0  0  0
    4.0424   -6.9750    0.0000 C   0  0  0  0  0  0  0  0  0  0  0  0
    3.2174   -6.9750    0.0000 C   0  0  0  0  0  0  0  0  0  0  0  0
    2.8049   -6.2605    0.0000 C   0  0  0  0  0  0  0  0  0  0  0  0
    2.8049   -3.4026    0.0000 C   0  0  0  0  0  0  0  0  0  0  0  0
    0.3299   -0.5448    0.0000 C   0  0  0  0  0  0  0  0  0  0  0  0
   -0.4951   -0.5448    0.0000 C   0  0  0  0  0  0  0  0  0  0  0  0
   -0.9076    0.1697    0.0000 C   0  0  0  0  0  0  0  0  0  0  0  0
   -0.4951    0.8842    0.0000 C   0  0  0  0  0  0  0  0  0  0  0  0
   -0.9076    1.5986    0.0000 O   0  0  0  0  0  0  0  0  0  0  0  0
   -0.4951    2.3131    0.0000 C   0  0  0  0  0  0  0  0  0  0  0  0
   -0.9076    3.0276    0.0000 F   0  0  0  0  0  0  0  0  0  0  0  0
    0.3299    2.3131    0.0000 F   0  0  0  0  0  0  0  0  0  0  0  0
    0.3299    0.8842    0.0000 C   0  0  0  0  0  0  0  0  0  0  0  0
    0.7424    0.1697    0.0000 C   0  0  0  0  0  0  0  0  0  0  0  0
    0.0280   -3.1007    0.0000 H   0  0  0  0  0  0  0  0  0  0  0  0
    1.1549   -3.4026    0.0000 H   0  0  0  0  0  0  0  0  0  0  0  0
    1.4569   -2.2757    0.0000 H   0  0  0  0  0  0  0  0  0  0  0  0
   -0.0826   -2.6882    0.0000 H   0  0  0  0  0  0  0  0  0  0  0  0
   -0.2815   -1.1768    0.0000 H   0  0  0  0  0  0  0  0  0  0  0  0
   -1.2095   -1.5612    0.0000 H   0  0  0  0  0  0  0  0  0  0  0  0
   -1.0784   -2.5571    0.0000 H   0  0  0  0  0  0  0  0  0  0  0  0
    1.1549   -1.9737    0.0000 H   0  0  0  0  0  0  0  0  0  0  0  0
    2.3924   -1.2592    0.0000 H   0  0  0  0  0  0  0  0  0  0  0  0
    4.4549   -1.9737    0.0000 H   0  0  0  0  0  0  0  0  0  0  0  0
    5.2799   -3.4026    0.0000 H   0  0  0  0  0  0  0  0  0  0  0  0
    4.4549   -4.8316    0.0000 H   0  0  0  0  0  0  0  0  0  0  0  0
    3.6299   -4.8316    0.0000 H   0  0  0  0  0  0  0  0  0  0  0  0
    5.2799   -6.2605    0.0000 H   0  0  0  0  0  0  0  0  0  0  0  0
    4.4549   -7.6895    0.0000 H   0  0  0  0  0  0  0  0  0  0  0  0
    2.8049   -7.6895    0.0000 H   0  0  0  0  0  0  0  0  0  0  0  0
    1.9799   -6.2605    0.0000 H   0  0  0  0  0  0  0  0  0  0  0  0
    1.9799   -3.4026    0.0000 H   0  0  0  0  0  0  0  0  0  0  0  0
   -1.2468   -0.8847    0.0000 H   0  0  0  0  0  0  0  0  0  0  0  0
   -1.7326    0.1697    0.0000 H   0  0  0  0  0  0  0  0  0  0  0  0
   -1.3201    2.3131    0.0000 H   0  0  0  0  0  0  0  0  0  0  0  0
    0.7424    1.5986    0.0000 H   0  0  0  0  0  0  0  0  0  0  0  0
    1.5674    0.1697    0.0000 H   0  0  0  0  0  0  0  0  0  0  0  0
  1  2  1  0  0  0  0
  2  3  1  0  0  0  0
  2  4  1  0  0  0  0
  4  5  1  0  0  0  0
  5  6  2  0  0  0  0
  5  7  1  0  0  0  0
  7  8  1  0  0  0  0
  8  9  1  0  0  0  0
  9 10  3  0  0  0  0
  8 11  1  0  0  0  0
 11 12  4  0  0  0  0
 12 13  4  0  0  0  0
 13 14  4  0  0  0  0
 14 15  4  0  0  0  0
 15 16  1  0  0  0  0
 16 17  1  0  0  0  0
 17 18  4  0  0  0  0
 18 19  4  0  0  0  0
 19 20  4  0  0  0  0
 20 21  4  0  0  0  0
 21 22  4  0  0  0  0
 17 22  4  0  0  0  0
 15 23  4  0  0  0  0
 11 23  4  0  0  0  0
  4 24  1  0  0  0  0
 24 25  4  0  0  0  0
 25 26  4  0  0  0  0
 26 27  4  0  0  0  0
 27 28  1  0  0  0  0
 28 29  1  0  0  0  0
 29 30  1  0  0  0  0
 29 31  1  0  0  0  0
 27 32  4  0  0  0  0
 32 33  4  0  0  0  0
 24 33  4  0  0  0  0
  1 34  1  0  0  0  0
  1 35  1  0  0  0  0
  1 36  1  0  0  0  0
  2 37  1  0  0  0  0
  3 38  1  0  0  0  0
  3 39  1  0  0  0  0
  3 40  1  0  0  0  0
  4 41  1  0  0  0  0
  8 42  1  0  0  0  0
 12 43  1  0  0  0  0
 13 44  1  0  0  0  0
 14 45  1  0  0  0  0
 18 46  1  0  0  0  0
 19 47  1  0  0  0  0
 20 48  1  0  0  0  0
 21 49  1  0  0  0  0
 22 50  1  0  0  0  0
 23 51  1  0  0  0  0
 25 52  1  0  0  0  0
 26 53  1  0  0  0  0
 29 54  1  0  0  0  0
 32 55  1  0  0  0  0
 33 56  1  0  0  0  0
M  END
>  <InChIKey>
InChI=1S/C26H23F2NO4/c1-17(2)24(18-11-13-21(14-12-18)32-26(27)28)25(30)33-23(16-29)19-7-6-10-22(15-19)31-20-8-4-3-5-9-20/h3-15,17,23-24,26H,1-2H3

>  <CASRN>
70124-77-5

> <Outcome>
0

>  <Index>
1530

>  <StandardizerResult>
Dearomatize (ID: Dearomatize)
Clear Stereo (ID: ClearStereo)
Wedge Clean (ID: WedgeClean)
Mesomerize (ID: Mesomerize)
Tautomerize (ID: Tautomerize)
Aromatize (ID: Aromatize)
Add Explicit Hydrogens (ID: AddExplicitH)
Neutralize (ID: Neutralize)
Clean 2D (ID: Clean2D)

> <knn Distance>
3.87298345565796

> <CpId>
1530

$$$$
1609
  Mrv1532301301811342D          

 81 82  0  0  0  0            999 V2000
    7.5456    0.5205    0.0000 C   0  0  0  0  0  0  0  0  0  0  0  0
    8.2600    0.9330    0.0000 C   0  0  0  0  0  0  0  0  0  0  0  0
    8.2600    1.7580    0.0000 C   0  0  0  0  0  0  0  0  0  0  0  0
    8.9745    0.5205    0.0000 C   0  0  0  0  0  0  0  0  0  0  0  0
    9.6890    0.9330    0.0000 C   0  0  0  0  0  0  0  0  0  0  0  0
   10.4035    0.5205    0.0000 C   0  0  0  0  0  0  0  0  0  0  0  0
   11.1179    0.9330    0.0000 C   0  0  0  0  0  0  0  0  0  0  0  0
   11.1179    1.7580    0.0000 C   0  0  0  0  0  0  0  0  0  0  0  0
   11.8324    0.5205    0.0000 C   0  0  0  0  0  0  0  0  0  0  0  0
   12.5469    0.9330    0.0000 C   0  0  0  0  0  0  0  0  0  0  0  0
   13.2613    0.5205    0.0000 C   0  0  0  0  0  0  0  0  0  0  0  0
   13.9758    0.9330    0.0000 C   0  0  0  0  0  0  0  0  0  0  0  0
   13.9758    1.7580    0.0000 C   0  0  0  0  0  0  0  0  0  0  0  0
   14.6903    0.5205    0.0000 C   0  0  0  0  0  0  0  0  0  0  0  0
   15.4048    0.9330    0.0000 C   0  0  0  0  0  0  0  0  0  0  0  0
   16.1192    0.5205    0.0000 C   0  0  0  0  0  0  0  0  0  0  0  0
   16.1192   -0.3045    0.0000 C   0  0  0  0  0  0  0  0  0  0  0  0
   15.3068   -0.1612    0.0000 C   0  0  0  0  0  0  0  0  0  0  0  0
   16.9317   -0.1612    0.0000 C   0  0  0  0  0  0  0  0  0  0  0  0
   17.4620   -0.7932    0.0000 C   0  0  0  0  0  0  0  0  0  0  0  0
   17.1798   -1.5684    0.0000 C   0  0  0  0  0  0  0  0  0  0  0  0
   17.7101   -2.2004    0.0000 C   0  0  0  0  0  0  0  0  0  0  0  0
   18.5226   -2.0572    0.0000 C   0  0  0  0  0  0  0  0  0  0  0  0
   17.4280   -2.9757    0.0000 C   0  0  0  0  0  0  0  0  0  0  0  0
   17.9583   -3.6077    0.0000 O   0  0  0  0  0  0  0  0  0  0  0  0
   16.6155   -3.1189    0.0000 C   0  0  0  0  0  0  0  0  0  0  0  0
   16.3333   -3.8942    0.0000 C   0  0  0  0  0  0  0  0  0  0  0  0
   16.0852   -2.4869    0.0000 C   0  0  0  0  0  0  0  0  0  0  0  0
   15.2727   -2.6302    0.0000 C   0  0  0  0  0  0  0  0  0  0  0  0
   16.3674   -1.7117    0.0000 C   0  0  0  0  0  0  0  0  0  0  0  0
   15.8371   -1.0797    0.0000 O   0  0  0  0  0  0  0  0  0  0  0  0
    7.1331    1.2350    0.0000 H   0  0  0  0  0  0  0  0  0  0  0  0
    6.8311    0.1080    0.0000 H   0  0  0  0  0  0  0  0  0  0  0  0
    7.9581   -0.1939    0.0000 H   0  0  0  0  0  0  0  0  0  0  0  0
    7.5456    1.3455    0.0000 H   0  0  0  0  0  0  0  0  0  0  0  0
    9.0569    1.5445    0.0000 H   0  0  0  0  0  0  0  0  0  0  0  0
    8.6725    2.4725    0.0000 H   0  0  0  0  0  0  0  0  0  0  0  0
    7.6767    2.3414    0.0000 H   0  0  0  0  0  0  0  0  0  0  0  0
    8.6043   -0.2167    0.0000 H   0  0  0  0  0  0  0  0  0  0  0  0
    9.3448   -0.2167    0.0000 H   0  0  0  0  0  0  0  0  0  0  0  0
   10.1858    1.5917    0.0000 H   0  0  0  0  0  0  0  0  0  0  0  0
    9.6890    0.1080    0.0000 H   0  0  0  0  0  0  0  0  0  0  0  0
   10.5467   -0.2919    0.0000 H   0  0  0  0  0  0  0  0  0  0  0  0
   11.0354   -0.0098    0.0000 H   0  0  0  0  0  0  0  0  0  0  0  0
   10.4035    1.3455    0.0000 H   0  0  0  0  0  0  0  0  0  0  0  0
   11.8933    1.4763    0.0000 H   0  0  0  0  0  0  0  0  0  0  0  0
   11.6476    2.3906    0.0000 H   0  0  0  0  0  0  0  0  0  0  0  0
   10.7043    2.4719    0.0000 H   0  0  0  0  0  0  0  0  0  0  0  0
   11.8673   -0.3037    0.0000 H   0  0  0  0  0  0  0  0  0  0  0  0
   12.5554    0.1233    0.0000 H   0  0  0  0  0  0  0  0  0  0  0  0
   13.2835    1.3044    0.0000 H   0  0  0  0  0  0  0  0  0  0  0  0
   12.6401    1.7528    0.0000 H   0  0  0  0  0  0  0  0  0  0  0  0
   13.3991   -0.2929    0.0000 H   0  0  0  0  0  0  0  0  0  0  0  0
   13.8911   -0.0125    0.0000 H   0  0  0  0  0  0  0  0  0  0  0  0
   14.6903    1.3455    0.0000 H   0  0  0  0  0  0  0  0  0  0  0  0
   14.6844    2.1806    0.0000 H   0  0  0  0  0  0  0  0  0  0  0  0
   13.9525    2.5827    0.0000 H   0  0  0  0  0  0  0  0  0  0  0  0
   13.2445    2.1399    0.0000 H   0  0  0  0  0  0  0  0  0  0  0  0
   14.5885   -0.2982    0.0000 H   0  0  0  0  0  0  0  0  0  0  0  0
   15.5053    0.3924    0.0000 H   0  0  0  0  0  0  0  0  0  0  0  0
   16.0367    1.4633    0.0000 H   0  0  0  0  0  0  0  0  0  0  0  0
   15.5480    1.7455    0.0000 H   0  0  0  0  0  0  0  0  0  0  0  0
   16.9036    0.2648    0.0000 H   0  0  0  0  0  0  0  0  0  0  0  0
   16.8783    0.8436    0.0000 H   0  0  0  0  0  0  0  0  0  0  0  0
   14.7831   -0.7987    0.0000 H   0  0  0  0  0  0  0  0  0  0  0  0
   15.3125   -0.9862    0.0000 H   0  0  0  0  0  0  0  0  0  0  0  0
   15.8392   -0.7913    0.0000 H   0  0  0  0  0  0  0  0  0  0  0  0
   17.6972    0.1463    0.0000 H   0  0  0  0  0  0  0  0  0  0  0  0
   16.6495   -0.9364    0.0000 H   0  0  0  0  0  0  0  0  0  0  0  0
   18.1149   -1.2976    0.0000 H   0  0  0  0  0  0  0  0  0  0  0  0
   18.2853   -0.7409    0.0000 H   0  0  0  0  0  0  0  0  0  0  0  0
   18.4086   -2.8742    0.0000 H   0  0  0  0  0  0  0  0  0  0  0  0
   19.2648   -2.4173    0.0000 H   0  0  0  0  0  0  0  0  0  0  0  0
   19.0939   -1.4620    0.0000 H   0  0  0  0  0  0  0  0  0  0  0  0
   18.0190   -4.4304    0.0000 H   0  0  0  0  0  0  0  0  0  0  0  0
   15.5581   -3.6120    0.0000 H   0  0  0  0  0  0  0  0  0  0  0  0
   16.0512   -4.6694    0.0000 H   0  0  0  0  0  0  0  0  0  0  0  0
   17.1086   -4.1763    0.0000 H   0  0  0  0  0  0  0  0  0  0  0  0
   15.1295   -1.8177    0.0000 H   0  0  0  0  0  0  0  0  0  0  0  0
   14.4603   -2.7735    0.0000 H   0  0  0  0  0  0  0  0  0  0  0  0
   15.4160   -3.4427    0.0000 H   0  0  0  0  0  0  0  0  0  0  0  0
  1  2  1  0  0  0  0
  2  3  1  0  0  0  0
  2  4  1  0  0  0  0
  4  5  1  0  0  0  0
  5  6  1  0  0  0  0
  6  7  1  0  0  0  0
  7  8  1  0  0  0  0
  7  9  1  0  0  0  0
  9 10  1  0  0  0  0
 10 11  1  0  0  0  0
 11 12  1  0  0  0  0
 12 13  1  0  0  0  0
 12 14  1  0  0  0  0
 14 15  1  0  0  0  0
 15 16  1  0  0  0  0
 16 17  1  0  0  0  0
 17 18  1  0  0  0  0
 17 19  1  0  0  0  0
 19 20  1  0  0  0  0
 20 21  1  0  0  0  0
 21 22  4  0  0  0  0
 22 23  1  0  0  0  0
 22 24  4  0  0  0  0
 24 25  1  0  0  0  0
 24 26  4  0  0  0  0
 26 27  1  0  0  0  0
 26 28  4  0  0  0  0
 28 29  1  0  0  0  0
 28 30  4  0  0  0  0
 21 30  4  0  0  0  0
 30 31  1  0  0  0  0
 17 31  1  0  0  0  0
  1 32  1  0  0  0  0
  1 33  1  0  0  0  0
  1 34  1  0  0  0  0
  2 35  1  0  0  0  0
  3 36  1  0  0  0  0
  3 37  1  0  0  0  0
  3 38  1  0  0  0  0
  4 39  1  0  0  0  0
  4 40  1  0  0  0  0
  5 41  1  0  0  0  0
  5 42  1  0  0  0  0
  6 43  1  0  0  0  0
  6 44  1  0  0  0  0
  7 45  1  0  0  0  0
  8 46  1  0  0  0  0
  8 47  1  0  0  0  0
  8 48  1  0  0  0  0
  9 49  1  0  0  0  0
  9 50  1  0  0  0  0
 10 51  1  0  0  0  0
 10 52  1  0  0  0  0
 11 53  1  0  0  0  0
 11 54  1  0  0  0  0
 12 55  1  0  0  0  0
 13 56  1  0  0  0  0
 13 57  1  0  0  0  0
 13 58  1  0  0  0  0
 14 59  1  0  0  0  0
 14 60  1  0  0  0  0
 15 61  1  0  0  0  0
 15 62  1  0  0  0  0
 16 63  1  0  0  0  0
 16 64  1  0  0  0  0
 18 65  1  0  0  0  0
 18 66  1  0  0  0  0
 18 67  1  0  0  0  0
 19 68  1  0  0  0  0
 19 69  1  0  0  0  0
 20 70  1  0  0  0  0
 20 71  1  0  0  0  0
 23 72  1  0  0  0  0
 23 73  1  0  0  0  0
 23 74  1  0  0  0  0
 25 75  1  0  0  0  0
 27 76  1  0  0  0  0
 27 77  1  0  0  0  0
 27 78  1  0  0  0  0
 29 79  1  0  0  0  0
 29 80  1  0  0  0  0
 29 81  1  0  0  0  0
M  END
>  <InChIKey>
InChI=1S/C29H50O2/c1-20(2)12-9-13-21(3)14-10-15-22(4)16-11-18-29(8)19-17-26-25(7)27(30)23(5)24(6)28(26)31-29/h20-22,30H,9-19H2,1-8H3

>  <CASRN>
59-02-9

> <Outcome>
0

>  <Index>
1609

>  <StandardizerResult>
Dearomatize (ID: Dearomatize)
Clear Stereo (ID: ClearStereo)
Wedge Clean (ID: WedgeClean)
Mesomerize (ID: Mesomerize)
Tautomerize (ID: Tautomerize)
Aromatize (ID: Aromatize)
Add Explicit Hydrogens (ID: AddExplicitH)
Neutralize (ID: Neutralize)
Clean 2D (ID: Clean2D)

> <knn Distance>
3.87298345565796

> <CpId>
1609

$$$$
1612
  Mrv1532301301811342D          

 76 78  0  0  0  0            999 V2000
   -2.5787   -6.4938    0.0000 C   0  0  0  0  0  0  0  0  0  0  0  0
   -1.8643   -6.9063    0.0000 C   0  0  0  0  0  0  0  0  0  0  0  0
   -1.8643   -7.7313    0.0000 O   0  0  0  0  0  0  0  0  0  0  0  0
   -1.1498   -6.4938    0.0000 O   0  0  0  0  0  0  0  0  0  0  0  0
   -1.1498   -5.6688    0.0000 C   0  0  0  0  0  0  0  0  0  0  0  0
   -1.8643   -5.2563    0.0000 C   0  0  0  0  0  0  0  0  0  0  0  0
   -1.8643   -4.4313    0.0000 C   0  0  0  0  0  0  0  0  0  0  0  0
   -1.1498   -4.0188    0.0000 C   0  0  0  0  0  0  0  0  0  0  0  0
   -0.4353   -4.4313    0.0000 C   0  0  0  0  0  0  0  0  0  0  0  0
   -0.4353   -5.2563    0.0000 C   0  0  0  0  0  0  0  0  0  0  0  0
    0.2792   -5.6688    0.0000 C   0  0  0  0  0  0  0  0  0  0  0  0
    0.2792   -6.4938    0.0000 O   0  0  0  0  0  0  0  0  0  0  0  0
    0.9936   -5.2563    0.0000 O   0  0  0  0  0  0  0  0  0  0  0  0
    1.7081   -5.6688    0.0000 C   0  0  0  0  0  0  0  0  0  0  0  0
    1.7081   -6.4938    0.0000 C   0  0  0  0  0  0  0  0  0  0  0  0
    2.4226   -6.9063    0.0000 O   0  0  0  0  0  0  0  0  0  0  0  0
    2.4226   -7.7313    0.0000 C   0  0  0  0  0  0  0  0  0  0  0  0
    1.7081   -8.1438    0.0000 O   0  0  0  0  0  0  0  0  0  0  0  0
    3.1370   -8.1438    0.0000 C   0  0  0  0  0  0  0  0  0  0  0  0
    2.7245   -8.8583    0.0000 C   0  0  0  0  0  0  0  0  0  0  0  0
    3.8515   -8.5563    0.0000 C   0  0  0  0  0  0  0  0  0  0  0  0
    3.5495   -7.4294    0.0000 O   0  0  0  0  0  0  0  0  0  0  0  0
    4.3745   -7.4294    0.0000 C   0  0  0  0  0  0  0  0  0  0  0  0
    4.7870   -6.7149    0.0000 C   0  0  0  0  0  0  0  0  0  0  0  0
    5.6120   -6.7149    0.0000 C   0  0  0  0  0  0  0  0  0  0  0  0
    6.0245   -7.4294    0.0000 C   0  0  0  0  0  0  0  0  0  0  0  0
    6.8495   -7.4294    0.0000 Cl  0  0  0  0  0  0  0  0  0  0  0  0
    5.6120   -8.1438    0.0000 C   0  0  0  0  0  0  0  0  0  0  0  0
    4.7870   -8.1438    0.0000 C   0  0  0  0  0  0  0  0  0  0  0  0
    2.4226   -5.2563    0.0000 C   0  0  0  0  0  0  0  0  0  0  0  0
    3.1370   -5.6688    0.0000 O   0  0  0  0  0  0  0  0  0  0  0  0
    3.8515   -5.2563    0.0000 C   0  0  0  0  0  0  0  0  0  0  0  0
    3.8515   -4.4313    0.0000 O   0  0  0  0  0  0  0  0  0  0  0  0
    4.5660   -5.6688    0.0000 C   0  0  0  0  0  0  0  0  0  0  0  0
    4.1535   -6.3833    0.0000 C   0  0  0  0  0  0  0  0  0  0  0  0
    5.2805   -6.0813    0.0000 C   0  0  0  0  0  0  0  0  0  0  0  0
    4.9785   -4.9544    0.0000 O   0  0  0  0  0  0  0  0  0  0  0  0
    5.8035   -4.9544    0.0000 C   0  0  0  0  0  0  0  0  0  0  0  0
    6.2160   -4.2399    0.0000 C   0  0  0  0  0  0  0  0  0  0  0  0
    7.0410   -4.2399    0.0000 C   0  0  0  0  0  0  0  0  0  0  0  0
    7.4535   -4.9544    0.0000 C   0  0  0  0  0  0  0  0  0  0  0  0
    8.2785   -4.9544    0.0000 Cl  0  0  0  0  0  0  0  0  0  0  0  0
    7.0410   -5.6688    0.0000 C   0  0  0  0  0  0  0  0  0  0  0  0
    6.2160   -5.6688    0.0000 C   0  0  0  0  0  0  0  0  0  0  0  0
   -2.1662   -5.7794    0.0000 H   0  0  0  0  0  0  0  0  0  0  0  0
   -3.2932   -6.0813    0.0000 H   0  0  0  0  0  0  0  0  0  0  0  0
   -2.9912   -7.2083    0.0000 H   0  0  0  0  0  0  0  0  0  0  0  0
   -2.6611   -5.0428    0.0000 H   0  0  0  0  0  0  0  0  0  0  0  0
   -2.5787   -4.0188    0.0000 H   0  0  0  0  0  0  0  0  0  0  0  0
   -1.1498   -3.1938    0.0000 H   0  0  0  0  0  0  0  0  0  0  0  0
    0.2792   -4.0188    0.0000 H   0  0  0  0  0  0  0  0  0  0  0  0
    0.9936   -6.0813    0.0000 H   0  0  0  0  0  0  0  0  0  0  0  0
    1.0761   -7.0241    0.0000 H   0  0  0  0  0  0  0  0  0  0  0  0
    1.5648   -7.3063    0.0000 H   0  0  0  0  0  0  0  0  0  0  0  0
    2.0101   -8.4458    0.0000 H   0  0  0  0  0  0  0  0  0  0  0  0
    2.3120   -9.5728    0.0000 H   0  0  0  0  0  0  0  0  0  0  0  0
    3.4390   -9.2708    0.0000 H   0  0  0  0  0  0  0  0  0  0  0  0
    4.3537   -9.2109    0.0000 H   0  0  0  0  0  0  0  0  0  0  0  0
    4.6484   -8.3428    0.0000 H   0  0  0  0  0  0  0  0  0  0  0  0
    3.9592   -7.7384    0.0000 H   0  0  0  0  0  0  0  0  0  0  0  0
    5.1995   -7.4294    0.0000 H   0  0  0  0  0  0  0  0  0  0  0  0
    6.3349   -6.3173    0.0000 H   0  0  0  0  0  0  0  0  0  0  0  0
    6.0245   -8.8583    0.0000 H   0  0  0  0  0  0  0  0  0  0  0  0
    5.1688   -8.8752    0.0000 H   0  0  0  0  0  0  0  0  0  0  0  0
    2.7928   -4.5191    0.0000 H   0  0  0  0  0  0  0  0  0  0  0  0
    2.0523   -4.5191    0.0000 H   0  0  0  0  0  0  0  0  0  0  0  0
    3.6445   -5.7340    0.0000 H   0  0  0  0  0  0  0  0  0  0  0  0
    3.3612   -6.6133    0.0000 H   0  0  0  0  0  0  0  0  0  0  0  0
    4.0713   -7.2042    0.0000 H   0  0  0  0  0  0  0  0  0  0  0  0
    6.0947   -6.2144    0.0000 H   0  0  0  0  0  0  0  0  0  0  0  0
    5.8758   -5.5102    0.0000 H   0  0  0  0  0  0  0  0  0  0  0  0
    5.1812   -5.2623    0.0000 H   0  0  0  0  0  0  0  0  0  0  0  0
    5.8035   -3.5254    0.0000 H   0  0  0  0  0  0  0  0  0  0  0  0
    7.4535   -3.5254    0.0000 H   0  0  0  0  0  0  0  0  0  0  0  0
    7.6847   -6.1849    0.0000 H   0  0  0  0  0  0  0  0  0  0  0  0
    6.6285   -4.9544    0.0000 H   0  0  0  0  0  0  0  0  0  0  0  0
  1  2  1  0  0  0  0
  2  3  2  0  0  0  0
  2  4  1  0  0  0  0
  4  5  1  0  0  0  0
  5  6  4  0  0  0  0
  6  7  4  0  0  0  0
  7  8  4  0  0  0  0
  8  9  4  0  0  0  0
  9 10  4  0  0  0  0
  5 10  4  0  0  0  0
 10 11  1  0  0  0  0
 11 12  2  0  0  0  0
 11 13  1  0  0  0  0
 13 14  1  0  0  0  0
 14 15  1  0  0  0  0
 15 16  1  0  0  0  0
 16 17  1  0  0  0  0
 17 18  2  0  0  0  0
 17 19  1  0  0  0  0
 19 20  1  0  0  0  0
 19 21  1  0  0  0  0
 19 22  1  0  0  0  0
 22 23  1  0  0  0  0
 23 24  4  0  0  0  0
 24 25  4  0  0  0  0
 25 26  4  0  0  0  0
 26 27  1  0  0  0  0
 26 28  4  0  0  0  0
 28 29  4  0  0  0  0
 23 29  4  0  0  0  0
 14 30  1  0  0  0  0
 30 31  1  0  0  0  0
 31 32  1  0  0  0  0
 32 33  2  0  0  0  0
 32 34  1  0  0  0  0
 34 35  1  0  0  0  0
 34 36  1  0  0  0  0
 34 37  1  0  0  0  0
 37 38  1  0  0  0  0
 38 39  4  0  0  0  0
 39 40  4  0  0  0  0
 40 41  4  0  0  0  0
 41 42  1  0  0  0  0
 41 43  4  0  0  0  0
 43 44  4  0  0  0  0
 38 44  4  0  0  0  0
  1 45  1  0  0  0  0
  1 46  1  0  0  0  0
  1 47  1  0  0  0  0
  6 48  1  0  0  0  0
  7 49  1  0  0  0  0
  8 50  1  0  0  0  0
  9 51  1  0  0  0  0
 14 52  1  0  0  0  0
 15 53  1  0  0  0  0
 15 54  1  0  0  0  0
 20 55  1  0  0  0  0
 20 56  1  0  0  0  0
 20 57  1  0  0  0  0
 21 58  1  0  0  0  0
 21 59  1  0  0  0  0
 21 60  1  0  0  0  0
 24 61  1  0  0  0  0
 25 62  1  0  0  0  0
 28 63  1  0  0  0  0
 29 64  1  0  0  0  0
 30 65  1  0  0  0  0
 30 66  1  0  0  0  0
 35 67  1  0  0  0  0
 35 68  1  0  0  0  0
 35 69  1  0  0  0  0
 36 70  1  0  0  0  0
 36 71  1  0  0  0  0
 36 72  1  0  0  0  0
 39 73  1  0  0  0  0
 40 74  1  0  0  0  0
 43 75  1  0  0  0  0
 44 76  1  0  0  0  0
M  END
>  <InChIKey>
InChI=1S/C32H32Cl2O10/c1-20(35)41-27-9-7-6-8-26(27)28(36)42-25(18-39-29(37)31(2,3)43-23-14-10-21(33)11-15-23)19-40-30(38)32(4,5)44-24-16-12-22(34)13-17-24/h6-17,25H,18-19H2,1-5H3

>  <CASRN>
64496-66-8

> <Outcome>
0

>  <Index>
1612

>  <StandardizerResult>
Dearomatize (ID: Dearomatize)
Clear Stereo (ID: ClearStereo)
Wedge Clean (ID: WedgeClean)
Mesomerize (ID: Mesomerize)
Tautomerize (ID: Tautomerize)
Aromatize (ID: Aromatize)
Add Explicit Hydrogens (ID: AddExplicitH)
Neutralize (ID: Neutralize)
Clean 2D (ID: Clean2D)

> <knn Distance>
3.87298345565796

> <CpId>
1612

$$$$
1887
  Mrv1532301301811342D          

 26 25  0  0  0  0            999 V2000
    1.9380   -0.4968    0.0000 C   0  0  0  0  0  0  0  0  0  0  0  0
    1.9380    0.3282    0.0000 O   0  0  0  0  0  0  0  0  0  0  0  0
    1.2235    0.7407    0.0000 Si  0  0  0  0  0  0  0  0  0  0  0  0
    0.5091    1.1532    0.0000 C   0  0  0  0  0  0  0  0  0  0  0  0
    0.5091    1.9782    0.0000 C   0  0  0  0  0  0  0  0  0  0  0  0
   -0.2054    2.3907    0.0000 C   0  0  0  0  0  0  0  0  0  0  0  0
   -0.9199    2.8032    0.0000 F   0  0  0  0  0  0  0  0  0  0  0  0
    0.2071    3.1051    0.0000 F   0  0  0  0  0  0  0  0  0  0  0  0
   -0.6179    1.6762    0.0000 F   0  0  0  0  0  0  0  0  0  0  0  0
    1.6360    1.4551    0.0000 O   0  0  0  0  0  0  0  0  0  0  0  0
    1.2235    2.1696    0.0000 C   0  0  0  0  0  0  0  0  0  0  0  0
    0.8110    0.0262    0.0000 O   0  0  0  0  0  0  0  0  0  0  0  0
   -0.0140    0.0262    0.0000 C   0  0  0  0  0  0  0  0  0  0  0  0
    1.1130   -0.4968    0.0000 H   0  0  0  0  0  0  0  0  0  0  0  0
    1.9380   -1.3218    0.0000 H   0  0  0  0  0  0  0  0  0  0  0  0
    2.7630   -0.4968    0.0000 H   0  0  0  0  0  0  0  0  0  0  0  0
   -0.3145    1.1052    0.0000 H   0  0  0  0  0  0  0  0  0  0  0  0
    0.0557    0.4639    0.0000 H   0  0  0  0  0  0  0  0  0  0  0  0
    0.6168    2.7961    0.0000 H   0  0  0  0  0  0  0  0  0  0  0  0
    1.1636    1.4759    0.0000 H   0  0  0  0  0  0  0  0  0  0  0  0
    2.0320    2.0054    0.0000 H   0  0  0  0  0  0  0  0  0  0  0  0
    1.8821    2.6666    0.0000 H   0  0  0  0  0  0  0  0  0  0  0  0
    1.2874    2.9921    0.0000 H   0  0  0  0  0  0  0  0  0  0  0  0
   -0.7335    0.4297    0.0000 H   0  0  0  0  0  0  0  0  0  0  0  0
   -0.6415   -0.5094    0.0000 H   0  0  0  0  0  0  0  0  0  0  0  0
    0.2714   -0.7479    0.0000 H   0  0  0  0  0  0  0  0  0  0  0  0
  1  2  1  0  0  0  0
  2  3  1  0  0  0  0
  3  4  1  0  0  0  0
  4  5  1  0  0  0  0
  5  6  1  0  0  0  0
  6  7  1  0  0  0  0
  6  8  1  0  0  0  0
  6  9  1  0  0  0  0
  3 10  1  0  0  0  0
 10 11  1  0  0  0  0
  3 12  1  0  0  0  0
 12 13  1  0  0  0  0
  1 14  1  0  0  0  0
  1 15  1  0  0  0  0
  1 16  1  0  0  0  0
  4 17  1  0  0  0  0
  4 18  1  0  0  0  0
  5 19  1  0  0  0  0
  5 20  1  0  0  0  0
 11 21  1  0  0  0  0
 11 22  1  0  0  0  0
 11 23  1  0  0  0  0
 13 24  1  0  0  0  0
 13 25  1  0  0  0  0
 13 26  1  0  0  0  0
M  END
>  <InChIKey>
InChI=1S/C6H13F3O3Si/c1-10-13(11-2,12-3)5-4-6(7,8)9/h4-5H2,1-3H3

>  <UN GHS>
Non-irritant

>  <CASRN>
429-60-7

> <Outcome>
0

>  <Index>
1887

>  <StandardizerResult>
Clear Stereo (ID: ClearStereo)
Wedge Clean (ID: WedgeClean)
Mesomerize (ID: Mesomerize)
Tautomerize (ID: Tautomerize)
Add Explicit Hydrogens (ID: AddExplicitH)
Neutralize (ID: Neutralize)
Clean 2D (ID: Clean2D)

> <knn Distance>
3.87298345565796

> <CpId>
1887

$$$$
1891
  Mrv1532301301811342D          

 57 58  0  0  0  0            999 V2000
    6.8598   -6.9429    0.0000 C   0  0  0  0  0  0  0  0  0  0  0  0
    6.4473   -6.2284    0.0000 C   0  0  0  0  0  0  0  0  0  0  0  0
    6.0348   -5.5139    0.0000 C   0  0  0  0  0  0  0  0  0  0  0  0
    5.7329   -6.6409    0.0000 O   0  0  0  0  0  0  0  0  0  0  0  0
    5.7329   -7.4659    0.0000 C   0  0  0  0  0  0  0  0  0  0  0  0
    6.4473   -7.8784    0.0000 C   0  0  0  0  0  0  0  0  0  0  0  0
    6.4473   -8.7034    0.0000 C   0  0  0  0  0  0  0  0  0  0  0  0
    5.7329   -9.1159    0.0000 C   0  0  0  0  0  0  0  0  0  0  0  0
    5.7329   -9.9409    0.0000 Cl  0  0  0  0  0  0  0  0  0  0  0  0
    5.0184   -8.7034    0.0000 C   0  0  0  0  0  0  0  0  0  0  0  0
    5.0184   -7.8784    0.0000 C   0  0  0  0  0  0  0  0  0  0  0  0
    7.1618   -5.8159    0.0000 C   0  0  0  0  0  0  0  0  0  0  0  0
    7.8763   -6.2284    0.0000 O   0  0  0  0  0  0  0  0  0  0  0  0
    7.1618   -4.9909    0.0000 O   0  0  0  0  0  0  0  0  0  0  0  0
    7.8763   -4.5784    0.0000 C   0  0  0  0  0  0  0  0  0  0  0  0
    7.8763   -3.7534    0.0000 C   0  0  0  0  0  0  0  0  0  0  0  0
    8.5907   -3.3409    0.0000 C   0  0  0  0  0  0  0  0  0  0  0  0
    8.5907   -2.5159    0.0000 O   0  0  0  0  0  0  0  0  0  0  0  0
    9.3052   -2.1034    0.0000 C   0  0  0  0  0  0  0  0  0  0  0  0
   10.0197   -2.5159    0.0000 O   0  0  0  0  0  0  0  0  0  0  0  0
    9.3052   -1.2784    0.0000 C   0  0  0  0  0  0  0  0  0  0  0  0
   10.1302   -1.2784    0.0000 C   0  0  0  0  0  0  0  0  0  0  0  0
    8.4802   -1.2784    0.0000 C   0  0  0  0  0  0  0  0  0  0  0  0
    9.3052   -0.4534    0.0000 O   0  0  0  0  0  0  0  0  0  0  0  0
   10.0197   -0.0409    0.0000 C   0  0  0  0  0  0  0  0  0  0  0  0
   10.0197    0.7841    0.0000 C   0  0  0  0  0  0  0  0  0  0  0  0
   10.7342    1.1966    0.0000 C   0  0  0  0  0  0  0  0  0  0  0  0
   11.4486    0.7841    0.0000 C   0  0  0  0  0  0  0  0  0  0  0  0
   12.1631    1.1966    0.0000 Cl  0  0  0  0  0  0  0  0  0  0  0  0
   11.4486   -0.0409    0.0000 C   0  0  0  0  0  0  0  0  0  0  0  0
   10.7342   -0.4534    0.0000 C   0  0  0  0  0  0  0  0  0  0  0  0
    6.1454   -7.3554    0.0000 H   0  0  0  0  0  0  0  0  0  0  0  0
    7.2723   -7.6574    0.0000 H   0  0  0  0  0  0  0  0  0  0  0  0
    7.5743   -6.5304    0.0000 H   0  0  0  0  0  0  0  0  0  0  0  0
    6.7493   -5.1014    0.0000 H   0  0  0  0  0  0  0  0  0  0  0  0
    5.6223   -4.7995    0.0000 H   0  0  0  0  0  0  0  0  0  0  0  0
    5.3204   -5.9264    0.0000 H   0  0  0  0  0  0  0  0  0  0  0  0
    6.7630   -7.1162    0.0000 H   0  0  0  0  0  0  0  0  0  0  0  0
    7.1618   -9.1159    0.0000 H   0  0  0  0  0  0  0  0  0  0  0  0
    4.3039   -9.1159    0.0000 H   0  0  0  0  0  0  0  0  0  0  0  0
    4.3039   -7.4659    0.0000 H   0  0  0  0  0  0  0  0  0  0  0  0
    8.3296   -5.2677    0.0000 H   0  0  0  0  0  0  0  0  0  0  0  0
    8.6999   -4.6264    0.0000 H   0  0  0  0  0  0  0  0  0  0  0  0
    7.4229   -3.0641    0.0000 H   0  0  0  0  0  0  0  0  0  0  0  0
    7.0527   -3.7054    0.0000 H   0  0  0  0  0  0  0  0  0  0  0  0
    9.0441   -4.0302    0.0000 H   0  0  0  0  0  0  0  0  0  0  0  0
    9.4143   -3.3889    0.0000 H   0  0  0  0  0  0  0  0  0  0  0  0
   10.1302   -2.1034    0.0000 H   0  0  0  0  0  0  0  0  0  0  0  0
   10.9552   -1.2784    0.0000 H   0  0  0  0  0  0  0  0  0  0  0  0
   10.1302   -0.4534    0.0000 H   0  0  0  0  0  0  0  0  0  0  0  0
    8.4802   -0.4534    0.0000 H   0  0  0  0  0  0  0  0  0  0  0  0
    7.6552   -1.2784    0.0000 H   0  0  0  0  0  0  0  0  0  0  0  0
    8.4802   -2.1034    0.0000 H   0  0  0  0  0  0  0  0  0  0  0  0
    9.3052    1.1966    0.0000 H   0  0  0  0  0  0  0  0  0  0  0  0
   10.7342    2.0216    0.0000 H   0  0  0  0  0  0  0  0  0  0  0  0
   12.1631   -0.4534    0.0000 H   0  0  0  0  0  0  0  0  0  0  0  0
   10.7342    0.3716    0.0000 H   0  0  0  0  0  0  0  0  0  0  0  0
  1  2  1  0  0  0  0
  2  3  1  0  0  0  0
  2  4  1  0  0  0  0
  4  5  1  0  0  0  0
  5  6  4  0  0  0  0
  6  7  4  0  0  0  0
  7  8  4  0  0  0  0
  8  9  1  0  0  0  0
  8 10  4  0  0  0  0
 10 11  4  0  0  0  0
  5 11  4  0  0  0  0
  2 12  1  0  0  0  0
 12 13  2  0  0  0  0
 12 14  1  0  0  0  0
 14 15  1  0  0  0  0
 15 16  1  0  0  0  0
 16 17  1  0  0  0  0
 17 18  1  0  0  0  0
 18 19  1  0  0  0  0
 19 20  2  0  0  0  0
 19 21  1  0  0  0  0
 21 22  1  0  0  0  0
 21 23  1  0  0  0  0
 21 24  1  0  0  0  0
 24 25  1  0  0  0  0
 25 26  4  0  0  0  0
 26 27  4  0  0  0  0
 27 28  4  0  0  0  0
 28 29  1  0  0  0  0
 28 30  4  0  0  0  0
 30 31  4  0  0  0  0
 25 31  4  0  0  0  0
  1 32  1  0  0  0  0
  1 33  1  0  0  0  0
  1 34  1  0  0  0  0
  3 35  1  0  0  0  0
  3 36  1  0  0  0  0
  3 37  1  0  0  0  0
  6 38  1  0  0  0  0
  7 39  1  0  0  0  0
 10 40  1  0  0  0  0
 11 41  1  0  0  0  0
 15 42  1  0  0  0  0
 15 43  1  0  0  0  0
 16 44  1  0  0  0  0
 16 45  1  0  0  0  0
 17 46  1  0  0  0  0
 17 47  1  0  0  0  0
 22 48  1  0  0  0  0
 22 49  1  0  0  0  0
 22 50  1  0  0  0  0
 23 51  1  0  0  0  0
 23 52  1  0  0  0  0
 23 53  1  0  0  0  0
 26 54  1  0  0  0  0
 27 55  1  0  0  0  0
 30 56  1  0  0  0  0
 31 57  1  0  0  0  0
M  END
>  <InChIKey>
InChI=1S/C23H26Cl2O6/c1-22(2,30-18-10-6-16(24)7-11-18)20(26)28-14-5-15-29-21(27)23(3,4)31-19-12-8-17(25)9-13-19/h6-13H,5,14-15H2,1-4H3

>  <CASRN>
14929-11-4

> <Outcome>
0

>  <Index>
1891

>  <StandardizerResult>
Dearomatize (ID: Dearomatize)
Clear Stereo (ID: ClearStereo)
Wedge Clean (ID: WedgeClean)
Mesomerize (ID: Mesomerize)
Tautomerize (ID: Tautomerize)
Aromatize (ID: Aromatize)
Add Explicit Hydrogens (ID: AddExplicitH)
Neutralize (ID: Neutralize)
Clean 2D (ID: Clean2D)

> <knn Distance>
3.87298345565796

> <CpId>
1891

$$$$
1918
  Mrv1532301301811342D          

 13 12  0  0  0  0            999 V2000
    1.2375    2.1434    0.0000 C   0  0  0  0  0  0  0  0  0  0  0  0
    0.8250    1.4289    0.0000 C   0  0  0  0  0  0  0  0  0  0  0  0
    1.2375    0.7145    0.0000 C   0  0  0  0  0  0  0  0  0  0  0  0
    0.8250   -0.0000    0.0000 N   0  0  0  0  0  0  0  0  0  0  0  0
    1.2375   -0.7145    0.0000 O   0  0  0  0  0  0  0  0  0  0  0  0
   -0.0000   -0.0000    0.0000 O   0  0  0  0  0  0  0  0  0  0  0  0
    1.9520    1.7309    0.0000 H   0  0  0  0  0  0  0  0  0  0  0  0
    1.6500    2.8579    0.0000 H   0  0  0  0  0  0  0  0  0  0  0  0
    0.5230    2.5559    0.0000 H   0  0  0  0  0  0  0  0  0  0  0  0
    0.0878    1.7992    0.0000 H   0  0  0  0  0  0  0  0  0  0  0  0
    0.0878    1.0587    0.0000 H   0  0  0  0  0  0  0  0  0  0  0  0
    1.9747    0.3442    0.0000 H   0  0  0  0  0  0  0  0  0  0  0  0
    1.9747    1.0847    0.0000 H   0  0  0  0  0  0  0  0  0  0  0  0
  1  2  1  0  0  0  0
  2  3  1  0  0  0  0
  3  4  1  0  0  0  0
  4  5  2  0  0  0  0
  4  6  2  0  0  0  0
  1  7  1  0  0  0  0
  1  8  1  0  0  0  0
  1  9  1  0  0  0  0
  2 10  1  0  0  0  0
  2 11  1  0  0  0  0
  3 12  1  0  0  0  0
  3 13  1  0  0  0  0
M  END
>  <InChIKey>
InChI=1S/C3H7NO2/c1-2-3-4(5)6/h2-3H2,1H3

>  <UN GHS>
Non-irritant

>  <CASRN>
108-03-2

> <Outcome>
0

>  <Index>
1918

>  <StandardizerResult>
Clear Stereo (ID: ClearStereo)
Wedge Clean (ID: WedgeClean)
Mesomerize (ID: Mesomerize)
Tautomerize (ID: Tautomerize)
Add Explicit Hydrogens (ID: AddExplicitH)
Neutralize (ID: Neutralize)
Clean 2D (ID: Clean2D)

> <knn Distance>
3.87298345565796

> <CpId>
1918

$$$$
2176
  Mrv1532301301811342D          

 31 32  0  0  0  0            999 V2000
    2.1739   -0.4442    0.0000 C   0  0  0  0  0  0  0  0  0  0  0  0
    2.1739   -1.2692    0.0000 C   0  0  0  0  0  0  0  0  0  0  0  0
    2.8883   -1.6817    0.0000 C   0  0  0  0  0  0  0  0  0  0  0  0
    2.8883   -2.5067    0.0000 C   0  0  0  0  0  0  0  0  0  0  0  0
    2.1739   -2.9192    0.0000 C   0  0  0  0  0  0  0  0  0  0  0  0
    1.4594   -2.5067    0.0000 C   0  0  0  0  0  0  0  0  0  0  0  0
    1.4594   -1.6817    0.0000 C   0  0  0  0  0  0  0  0  0  0  0  0
    2.1739   -3.7442    0.0000 C   0  0  0  0  0  0  0  0  0  0  0  0
    2.8883   -4.1567    0.0000 O   0  0  0  0  0  0  0  0  0  0  0  0
    1.4594   -4.1567    0.0000 C   0  0  0  0  0  0  0  0  0  0  0  0
    1.4594   -4.9817    0.0000 C   0  0  0  0  0  0  0  0  0  0  0  0
    0.7449   -5.3942    0.0000 C   0  0  0  0  0  0  0  0  0  0  0  0
    0.7449   -6.2192    0.0000 O   0  0  0  0  0  0  0  0  0  0  0  0
    0.0304   -4.9817    0.0000 C   0  0  0  0  0  0  0  0  0  0  0  0
   -0.6840   -5.3942    0.0000 O   0  0  0  0  0  0  0  0  0  0  0  0
    0.0304   -4.1567    0.0000 C   0  0  0  0  0  0  0  0  0  0  0  0
    0.7449   -3.7442    0.0000 C   0  0  0  0  0  0  0  0  0  0  0  0
   -0.6840   -3.7442    0.0000 N   0  0  0  0  0  0  0  0  0  0  0  0
   -0.6840   -2.9192    0.0000 O   0  0  0  0  0  0  0  0  0  0  0  0
   -1.3985   -4.1567    0.0000 O   0  0  0  0  0  0  0  0  0  0  0  0
    2.9989   -0.4442    0.0000 H   0  0  0  0  0  0  0  0  0  0  0  0
    2.1739    0.3808    0.0000 H   0  0  0  0  0  0  0  0  0  0  0  0
    1.3489   -0.4442    0.0000 H   0  0  0  0  0  0  0  0  0  0  0  0
    3.6028   -1.2692    0.0000 H   0  0  0  0  0  0  0  0  0  0  0  0
    3.6028   -2.9192    0.0000 H   0  0  0  0  0  0  0  0  0  0  0  0
    0.7449   -2.9192    0.0000 H   0  0  0  0  0  0  0  0  0  0  0  0
    0.7449   -1.2692    0.0000 H   0  0  0  0  0  0  0  0  0  0  0  0
    2.1739   -5.3942    0.0000 H   0  0  0  0  0  0  0  0  0  0  0  0
    0.0304   -6.6317    0.0000 H   0  0  0  0  0  0  0  0  0  0  0  0
   -1.3985   -4.9817    0.0000 H   0  0  0  0  0  0  0  0  0  0  0  0
    1.4594   -3.3317    0.0000 H   0  0  0  0  0  0  0  0  0  0  0  0
  1  2  1  0  0  0  0
  2  3  4  0  0  0  0
  3  4  4  0  0  0  0
  4  5  4  0  0  0  0
  5  6  4  0  0  0  0
  6  7  4  0  0  0  0
  2  7  4  0  0  0  0
  5  8  1  0  0  0  0
  8  9  2  0  0  0  0
  8 10  1  0  0  0  0
 10 11  4  0  0  0  0
 11 12  4  0  0  0  0
 12 13  1  0  0  0  0
 12 14  4  0  0  0  0
 14 15  1  0  0  0  0
 14 16  4  0  0  0  0
 16 17  4  0  0  0  0
 10 17  4  0  0  0  0
 16 18  1  0  0  0  0
 18 19  2  0  0  0  0
 18 20  2  0  0  0  0
  1 21  1  0  0  0  0
  1 22  1  0  0  0  0
  1 23  1  0  0  0  0
  3 24  1  0  0  0  0
  4 25  1  0  0  0  0
  6 26  1  0  0  0  0
  7 27  1  0  0  0  0
 11 28  1  0  0  0  0
 13 29  1  0  0  0  0
 15 30  1  0  0  0  0
 17 31  1  0  0  0  0
M  END
>  <InChIKey>
InChI=1S/C14H11NO5/c1-8-2-4-9(5-3-8)13(17)10-6-11(15(19)20)14(18)12(16)7-10/h2-7,16,18H,1H3

>  <CASRN>
134308-13-7

> <Outcome>
0

>  <Index>
2176

>  <StandardizerResult>
Dearomatize (ID: Dearomatize)
Clear Stereo (ID: ClearStereo)
Wedge Clean (ID: WedgeClean)
Mesomerize (ID: Mesomerize)
Tautomerize (ID: Tautomerize)
Aromatize (ID: Aromatize)
Add Explicit Hydrogens (ID: AddExplicitH)
Neutralize (ID: Neutralize)
Clean 2D (ID: Clean2D)

> <knn Distance>
3.87298345565796

> <CpId>
2176

$$$$
2307
  Mrv1532301301811342D          

 46 49  0  0  0  0            999 V2000
    3.5287   -3.3471    0.0000 C   0  0  0  0  0  0  0  0  0  0  0  0
    3.8885   -2.6047    0.0000 C   0  0  0  0  0  0  0  0  0  0  0  0
    4.4204   -3.2355    0.0000 C   0  0  0  0  0  0  0  0  0  0  0  0
    5.2325   -3.0902    0.0000 C   0  0  0  0  0  0  0  0  0  0  0  0
    5.5128   -2.3143    0.0000 C   0  0  0  0  0  0  0  0  0  0  0  0
    4.9809   -1.6836    0.0000 C   0  0  0  0  0  0  0  0  0  0  0  0
    5.2612   -0.9077    0.0000 C   0  0  0  0  0  0  0  0  0  0  0  0
    6.0734   -0.7625    0.0000 C   0  0  0  0  0  0  0  0  0  0  0  0
    6.6052   -1.3932    0.0000 C   0  0  0  0  0  0  0  0  0  0  0  0
    7.4173   -1.2480    0.0000 C   0  0  0  0  0  0  0  0  0  0  0  0
    7.9491   -1.8787    0.0000 C   0  0  0  0  0  0  0  0  0  0  0  0
    8.7612   -1.7335    0.0000 O   0  0  0  0  0  0  0  0  0  0  0  0
    7.6688   -2.6546    0.0000 C   0  0  0  0  0  0  0  0  0  0  0  0
    6.8567   -2.7998    0.0000 C   0  0  0  0  0  0  0  0  0  0  0  0
    6.3249   -2.1691    0.0000 C   0  0  0  0  0  0  0  0  0  0  0  0
    4.1688   -1.8288    0.0000 C   0  0  0  0  0  0  0  0  0  0  0  0
    3.5175   -1.3225    0.0000 C   0  0  0  0  0  0  0  0  0  0  0  0
    2.8347   -1.7854    0.0000 C   0  0  0  0  0  0  0  0  0  0  0  0
    3.0640   -2.5779    0.0000 C   0  0  0  0  0  0  0  0  0  0  0  0
    2.5576   -3.2293    0.0000 O   0  0  0  0  0  0  0  0  0  0  0  0
    2.7045   -3.3851    0.0000 H   0  0  0  0  0  0  0  0  0  0  0  0
    3.1688   -4.0895    0.0000 H   0  0  0  0  0  0  0  0  0  0  0  0
    4.0094   -4.0176    0.0000 H   0  0  0  0  0  0  0  0  0  0  0  0
    4.9077   -3.9011    0.0000 H   0  0  0  0  0  0  0  0  0  0  0  0
    4.7006   -2.4595    0.0000 H   0  0  0  0  0  0  0  0  0  0  0  0
    5.8545   -3.6322    0.0000 H   0  0  0  0  0  0  0  0  0  0  0  0
    6.0574   -3.0993    0.0000 H   0  0  0  0  0  0  0  0  0  0  0  0
    5.7931   -1.5384    0.0000 H   0  0  0  0  0  0  0  0  0  0  0  0
    4.4491   -1.0529    0.0000 H   0  0  0  0  0  0  0  0  0  0  0  0
    5.4026   -0.0949    0.0000 H   0  0  0  0  0  0  0  0  0  0  0  0
    4.8470   -0.1942    0.0000 H   0  0  0  0  0  0  0  0  0  0  0  0
    6.8378   -0.4523    0.0000 H   0  0  0  0  0  0  0  0  0  0  0  0
    6.4454   -0.0261    0.0000 H   0  0  0  0  0  0  0  0  0  0  0  0
    7.6976   -0.4720    0.0000 H   0  0  0  0  0  0  0  0  0  0  0  0
    7.8610   -3.4569    0.0000 H   0  0  0  0  0  0  0  0  0  0  0  0
    8.4271   -2.9795    0.0000 H   0  0  0  0  0  0  0  0  0  0  0  0
    7.0749   -3.5954    0.0000 H   0  0  0  0  0  0  0  0  0  0  0  0
    7.1370   -2.0239    0.0000 H   0  0  0  0  0  0  0  0  0  0  0  0
    5.7123   -2.7216    0.0000 H   0  0  0  0  0  0  0  0  0  0  0  0
    3.3763   -2.0581    0.0000 H   0  0  0  0  0  0  0  0  0  0  0  0
    3.4723   -0.4987    0.0000 H   0  0  0  0  0  0  0  0  0  0  0  0
    2.9128   -0.7613    0.0000 H   0  0  0  0  0  0  0  0  0  0  0  0
    2.2811   -1.1737    0.0000 H   0  0  0  0  0  0  0  0  0  0  0  0
    2.0180   -1.9022    0.0000 H   0  0  0  0  0  0  0  0  0  0  0  0
    2.2537   -2.4225    0.0000 H   0  0  0  0  0  0  0  0  0  0  0  0
    1.8578   -3.6662    0.0000 H   0  0  0  0  0  0  0  0  0  0  0  0
  1  2  1  0  0  0  0
  2  3  1  0  0  0  0
  3  4  1  0  0  0  0
  4  5  1  0  0  0  0
  5  6  1  0  0  0  0
  6  7  1  0  0  0  0
  7  8  1  0  0  0  0
  8  9  1  0  0  0  0
  9 10  2  0  0  0  0
 10 11  1  0  0  0  0
 11 12  2  0  0  0  0
 11 13  1  0  0  0  0
 13 14  1  0  0  0  0
 14 15  1  0  0  0  0
  5 15  1  0  0  0  0
  9 15  1  0  0  0  0
  6 16  1  0  0  0  0
  2 16  1  0  0  0  0
 16 17  1  0  0  0  0
 17 18  1  0  0  0  0
 18 19  1  0  0  0  0
  2 19  1  0  0  0  0
 19 20  1  0  0  0  0
  1 21  1  0  0  0  0
  1 22  1  0  0  0  0
  1 23  1  0  0  0  0
  3 24  1  0  0  0  0
  3 25  1  0  0  0  0
  4 26  1  0  0  0  0
  4 27  1  0  0  0  0
  5 28  1  0  0  0  0
  6 29  1  0  0  0  0
  7 30  1  0  0  0  0
  7 31  1  0  0  0  0
  8 32  1  0  0  0  0
  8 33  1  0  0  0  0
 10 34  1  0  0  0  0
 13 35  1  0  0  0  0
 13 36  1  0  0  0  0
 14 37  1  0  0  0  0
 14 38  1  0  0  0  0
 15 39  1  0  0  0  0
 16 40  1  0  0  0  0
 17 41  1  0  0  0  0
 17 42  1  0  0  0  0
 18 43  1  0  0  0  0
 18 44  1  0  0  0  0
 19 45  1  0  0  0  0
 20 46  1  0  0  0  0
M  END
>  <InChIKey>
InChI=1S/C18H26O2/c1-18-9-8-14-13-5-3-12(19)10-11(13)2-4-15(14)16(18)6-7-17(18)20/h10,13-17,20H,2-9H2,1H3

>  <CASRN>
434-22-0

> <Outcome>
0

>  <Index>
2307

>  <StandardizerResult>
Clear Stereo (ID: ClearStereo)
Wedge Clean (ID: WedgeClean)
Mesomerize (ID: Mesomerize)
Tautomerize (ID: Tautomerize)
Add Explicit Hydrogens (ID: AddExplicitH)
Neutralize (ID: Neutralize)
Clean 2D (ID: Clean2D)

> <knn Distance>
3.87298345565796

> <CpId>
2307

$$$$
2345
  Mrv1532301301811342D          

 29 28  0  0  0  0            999 V2000
   -0.0171    1.3746    0.0000 C   0  0  0  0  0  0  0  0  0  0  0  0
    0.8079    1.3746    0.0000 C   0  0  0  0  0  0  0  0  0  0  0  0
    1.2204    2.0890    0.0000 C   0  0  0  0  0  0  0  0  0  0  0  0
    0.8079    2.8035    0.0000 N   0  3  0  0  0  0  0  0  0  0  0  0
    0.3954    3.5180    0.0000 C   0  0  0  0  0  0  0  0  0  0  0  0
    0.0934    2.3910    0.0000 C   0  0  0  0  0  0  0  0  0  0  0  0
    1.5224    3.2160    0.0000 C   0  0  0  0  0  0  0  0  0  0  0  0
    1.2204    0.6601    0.0000 O   0  0  0  0  0  0  0  0  0  0  0  0
    0.8079   -0.0544    0.0000 C   0  0  0  0  0  0  0  0  0  0  0  0
    1.2204   -0.7689    0.0000 C   0  0  0  0  0  0  0  0  0  0  0  0
   -0.0171   -0.0544    0.0000 O   0  0  0  0  0  0  0  0  0  0  0  0
   -0.0171    2.1996    0.0000 H   0  0  0  0  0  0  0  0  0  0  0  0
   -0.8421    1.3746    0.0000 H   0  0  0  0  0  0  0  0  0  0  0  0
   -0.0171    0.5496    0.0000 H   0  0  0  0  0  0  0  0  0  0  0  0
    0.3954    2.0890    0.0000 H   0  0  0  0  0  0  0  0  0  0  0  0
    1.9577    1.7188    0.0000 H   0  0  0  0  0  0  0  0  0  0  0  0
    1.9577    2.4593    0.0000 H   0  0  0  0  0  0  0  0  0  0  0  0
    1.1099    3.9305    0.0000 H   0  0  0  0  0  0  0  0  0  0  0  0
   -0.0171    4.2324    0.0000 H   0  0  0  0  0  0  0  0  0  0  0  0
   -0.3191    3.1055    0.0000 H   0  0  0  0  0  0  0  0  0  0  0  0
   -0.6818    2.6732    0.0000 H   0  0  0  0  0  0  0  0  0  0  0  0
   -0.6818    2.1088    0.0000 H   0  0  0  0  0  0  0  0  0  0  0  0
    0.3070    3.1879    0.0000 H   0  0  0  0  0  0  0  0  0  0  0  0
    2.3190    3.0015    0.0000 H   0  0  0  0  0  0  0  0  0  0  0  0
    2.2372    3.6279    0.0000 H   0  0  0  0  0  0  0  0  0  0  0  0
    1.7362    4.0128    0.0000 H   0  0  0  0  0  0  0  0  0  0  0  0
    0.5059   -1.1814    0.0000 H   0  0  0  0  0  0  0  0  0  0  0  0
    1.6329   -1.4833    0.0000 H   0  0  0  0  0  0  0  0  0  0  0  0
    1.9349   -0.3564    0.0000 H   0  0  0  0  0  0  0  0  0  0  0  0
  1  2  1  0  0  0  0
  2  3  1  0  0  0  0
  3  4  1  0  0  0  0
  4  5  1  0  0  0  0
  4  6  1  0  0  0  0
  4  7  1  0  0  0  0
  2  8  1  0  0  0  0
  8  9  1  0  0  0  0
  9 10  1  0  0  0  0
  9 11  2  0  0  0  0
  1 12  1  0  0  0  0
  1 13  1  0  0  0  0
  1 14  1  0  0  0  0
  2 15  1  0  0  0  0
  3 16  1  0  0  0  0
  3 17  1  0  0  0  0
  5 18  1  0  0  0  0
  5 19  1  0  0  0  0
  5 20  1  0  0  0  0
  6 21  1  0  0  0  0
  6 22  1  0  0  0  0
  6 23  1  0  0  0  0
  7 24  1  0  0  0  0
  7 25  1  0  0  0  0
  7 26  1  0  0  0  0
 10 27  1  0  0  0  0
 10 28  1  0  0  0  0
 10 29  1  0  0  0  0
M  CHG  1   4   1
M  END
>  <InChIKey>
InChI=1S/C8H18NO2/c1-7(11-8(2)10)6-9(3,4)5/h7H,6H2,1-5H3/q+1

>  <CASRN>
55-92-5

> <Outcome>
0

>  <Index>
2345

>  <StandardizerResult>
Clear Stereo (ID: ClearStereo)
Wedge Clean (ID: WedgeClean)
Mesomerize (ID: Mesomerize)
Tautomerize (ID: Tautomerize)
Add Explicit Hydrogens (ID: AddExplicitH)
Clean 2D (ID: Clean2D)

> <knn Distance>
3.87298345565796

> <CpId>
2345

$$$$
2354
  Mrv1532301301811342D          

 42 45  0  0  0  0            999 V2000
   -3.5374   -0.3045    0.0000 C   0  0  0  0  0  0  0  0  0  0  0  0
   -2.8700   -0.7894    0.0000 C   0  0  0  0  0  0  0  0  0  0  0  0
   -3.1249   -1.5740    0.0000 N   0  0  0  0  0  0  0  0  0  0  0  0
   -3.9499   -1.5740    0.0000 C   0  0  0  0  0  0  0  0  0  0  0  0
   -4.2049   -0.7894    0.0000 N   0  0  0  0  0  0  0  0  0  0  0  0
   -2.6400   -2.2415    0.0000 C   0  0  0  0  0  0  0  0  0  0  0  0
   -2.9755   -2.9952    0.0000 C   0  0  0  0  0  0  0  0  0  0  0  0
   -2.4906   -3.6626    0.0000 C   0  0  0  0  0  0  0  0  0  0  0  0
   -2.8262   -4.4163    0.0000 C   0  0  0  0  0  0  0  0  0  0  0  0
   -3.6467   -4.5025    0.0000 C   0  0  0  0  0  0  0  0  0  0  0  0
   -4.1316   -3.8351    0.0000 C   0  0  0  0  0  0  0  0  0  0  0  0
   -3.7960   -3.0814    0.0000 C   0  0  0  0  0  0  0  0  0  0  0  0
   -1.8195   -2.1553    0.0000 C   0  0  0  0  0  0  0  0  0  0  0  0
   -1.4840   -1.4016    0.0000 C   0  0  0  0  0  0  0  0  0  0  0  0
   -0.6635   -1.3153    0.0000 C   0  0  0  0  0  0  0  0  0  0  0  0
   -0.1785   -1.9828    0.0000 C   0  0  0  0  0  0  0  0  0  0  0  0
   -0.5141   -2.7365    0.0000 C   0  0  0  0  0  0  0  0  0  0  0  0
   -1.3346   -2.8227    0.0000 C   0  0  0  0  0  0  0  0  0  0  0  0
    0.6419   -1.8965    0.0000 C   0  0  0  0  0  0  0  0  0  0  0  0
    0.9775   -1.1429    0.0000 C   0  0  0  0  0  0  0  0  0  0  0  0
    1.7980   -1.0566    0.0000 C   0  0  0  0  0  0  0  0  0  0  0  0
    2.2829   -1.7241    0.0000 C   0  0  0  0  0  0  0  0  0  0  0  0
    1.9473   -2.4777    0.0000 C   0  0  0  0  0  0  0  0  0  0  0  0
    1.1269   -2.5640    0.0000 C   0  0  0  0  0  0  0  0  0  0  0  0
   -3.5374    0.5205    0.0000 H   0  0  0  0  0  0  0  0  0  0  0  0
   -2.0854   -0.5345    0.0000 H   0  0  0  0  0  0  0  0  0  0  0  0
   -4.4348   -2.2415    0.0000 H   0  0  0  0  0  0  0  0  0  0  0  0
   -3.4605   -2.3277    0.0000 H   0  0  0  0  0  0  0  0  0  0  0  0
   -1.6701   -3.5764    0.0000 H   0  0  0  0  0  0  0  0  0  0  0  0
   -2.3413   -5.0837    0.0000 H   0  0  0  0  0  0  0  0  0  0  0  0
   -3.9822   -5.2562    0.0000 H   0  0  0  0  0  0  0  0  0  0  0  0
   -4.9521   -3.9213    0.0000 H   0  0  0  0  0  0  0  0  0  0  0  0
   -4.5497   -2.7458    0.0000 H   0  0  0  0  0  0  0  0  0  0  0  0
   -1.9689   -0.7341    0.0000 H   0  0  0  0  0  0  0  0  0  0  0  0
   -0.3279   -0.5617    0.0000 H   0  0  0  0  0  0  0  0  0  0  0  0
   -0.0292   -3.4039    0.0000 H   0  0  0  0  0  0  0  0  0  0  0  0
   -2.1551   -2.9089    0.0000 H   0  0  0  0  0  0  0  0  0  0  0  0
    0.4926   -0.4754    0.0000 H   0  0  0  0  0  0  0  0  0  0  0  0
    2.1335   -0.3030    0.0000 H   0  0  0  0  0  0  0  0  0  0  0  0
    3.1034   -1.6378    0.0000 H   0  0  0  0  0  0  0  0  0  0  0  0
    2.4323   -3.1452    0.0000 H   0  0  0  0  0  0  0  0  0  0  0  0
    0.7913   -3.3177    0.0000 H   0  0  0  0  0  0  0  0  0  0  0  0
  1  2  4  0  0  0  0
  2  3  4  0  0  0  0
  3  4  4  0  0  0  0
  4  5  4  0  0  0  0
  1  5  4  0  0  0  0
  3  6  1  0  0  0  0
  6  7  1  0  0  0  0
  7  8  4  0  0  0  0
  8  9  4  0  0  0  0
  9 10  4  0  0  0  0
 10 11  4  0  0  0  0
 11 12  4  0  0  0  0
  7 12  4  0  0  0  0
  6 13  1  0  0  0  0
 13 14  4  0  0  0  0
 14 15  4  0  0  0  0
 15 16  4  0  0  0  0
 16 17  4  0  0  0  0
 17 18  4  0  0  0  0
 13 18  4  0  0  0  0
 16 19  1  0  0  0  0
 19 20  4  0  0  0  0
 20 21  4  0  0  0  0
 21 22  4  0  0  0  0
 22 23  4  0  0  0  0
 23 24  4  0  0  0  0
 19 24  4  0  0  0  0
  1 25  1  0  0  0  0
  2 26  1  0  0  0  0
  4 27  1  0  0  0  0
  6 28  1  0  0  0  0
  8 29  1  0  0  0  0
  9 30  1  0  0  0  0
 10 31  1  0  0  0  0
 11 32  1  0  0  0  0
 12 33  1  0  0  0  0
 14 34  1  0  0  0  0
 15 35  1  0  0  0  0
 17 36  1  0  0  0  0
 18 37  1  0  0  0  0
 20 38  1  0  0  0  0
 21 39  1  0  0  0  0
 22 40  1  0  0  0  0
 23 41  1  0  0  0  0
 24 42  1  0  0  0  0
M  END
>  <InChIKey>
InChI=1S/C22H18N2/c1-3-7-18(8-4-1)19-11-13-21(14-12-19)22(24-16-15-23-17-24)20-9-5-2-6-10-20/h1-17,22H

>  <CASRN>
60628-96-8

> <Outcome>
0

>  <Index>
2354

>  <StandardizerResult>
Dearomatize (ID: Dearomatize)
Clear Stereo (ID: ClearStereo)
Wedge Clean (ID: WedgeClean)
Mesomerize (ID: Mesomerize)
Tautomerize (ID: Tautomerize)
Aromatize (ID: Aromatize)
Add Explicit Hydrogens (ID: AddExplicitH)
Neutralize (ID: Neutralize)
Clean 2D (ID: Clean2D)

> <knn Distance>
3.87298345565796

> <CpId>
2354

$$$$
2385
  Mrv1532301301811342D          

 39 40  0  0  0  0            999 V2000
    0.0292   -2.4201    0.0000 C   0  0  0  0  0  0  0  0  0  0  0  0
    0.7436   -2.8326    0.0000 C   0  0  0  0  0  0  0  0  0  0  0  0
    1.4581   -2.4201    0.0000 C   0  0  0  0  0  0  0  0  0  0  0  0
    2.1726   -2.8326    0.0000 C   0  0  0  0  0  0  0  0  0  0  0  0
    2.8870   -2.4201    0.0000 C   0  0  0  0  0  0  0  0  0  0  0  0
    3.6015   -2.8326    0.0000 C   0  0  0  0  0  0  0  0  0  0  0  0
    4.3160   -2.4201    0.0000 C   0  0  0  0  0  0  0  0  0  0  0  0
    5.0305   -2.8326    0.0000 C   0  0  0  0  0  0  0  0  0  0  0  0
    5.0305   -3.6576    0.0000 C   0  0  0  0  0  0  0  0  0  0  0  0
    4.3160   -4.0701    0.0000 C   0  0  0  0  0  0  0  0  0  0  0  0
    3.6015   -3.6576    0.0000 C   0  0  0  0  0  0  0  0  0  0  0  0
    2.1726   -3.6576    0.0000 N   0  0  0  0  0  0  0  0  0  0  0  0
    2.8400   -4.1425    0.0000 C   0  0  0  0  0  0  0  0  0  0  0  0
    2.5851   -4.9271    0.0000 C   0  0  0  0  0  0  0  0  0  0  0  0
    1.7601   -4.9271    0.0000 C   0  0  0  0  0  0  0  0  0  0  0  0
    1.5051   -4.1425    0.0000 C   0  0  0  0  0  0  0  0  0  0  0  0
    0.4417   -1.7056    0.0000 H   0  0  0  0  0  0  0  0  0  0  0  0
   -0.6853   -2.0076    0.0000 H   0  0  0  0  0  0  0  0  0  0  0  0
   -0.3833   -3.1345    0.0000 H   0  0  0  0  0  0  0  0  0  0  0  0
    0.3734   -3.5698    0.0000 H   0  0  0  0  0  0  0  0  0  0  0  0
    1.1139   -3.5698    0.0000 H   0  0  0  0  0  0  0  0  0  0  0  0
    1.8284   -1.6828    0.0000 H   0  0  0  0  0  0  0  0  0  0  0  0
    1.0878   -1.6828    0.0000 H   0  0  0  0  0  0  0  0  0  0  0  0
    2.1726   -2.0076    0.0000 H   0  0  0  0  0  0  0  0  0  0  0  0
    3.5190   -1.8898    0.0000 H   0  0  0  0  0  0  0  0  0  0  0  0
    3.0303   -1.6076    0.0000 H   0  0  0  0  0  0  0  0  0  0  0  0
    4.7510   -1.7190    0.0000 H   0  0  0  0  0  0  0  0  0  0  0  0
    5.7449   -2.4201    0.0000 H   0  0  0  0  0  0  0  0  0  0  0  0
    5.7449   -4.0701    0.0000 H   0  0  0  0  0  0  0  0  0  0  0  0
    4.3160   -4.8951    0.0000 H   0  0  0  0  0  0  0  0  0  0  0  0
    2.8782   -3.2607    0.0000 H   0  0  0  0  0  0  0  0  0  0  0  0
    3.4923   -4.6476    0.0000 H   0  0  0  0  0  0  0  0  0  0  0  0
    2.0554   -4.3974    0.0000 H   0  0  0  0  0  0  0  0  0  0  0  0
    2.3947   -5.7298    0.0000 H   0  0  0  0  0  0  0  0  0  0  0  0
    3.0033   -5.6382    0.0000 H   0  0  0  0  0  0  0  0  0  0  0  0
    1.0186   -5.2888    0.0000 H   0  0  0  0  0  0  0  0  0  0  0  0
    1.6453   -5.7441    0.0000 H   0  0  0  0  0  0  0  0  0  0  0  0
    0.6803   -4.1265    0.0000 H   0  0  0  0  0  0  0  0  0  0  0  0
    1.0138   -4.8052    0.0000 H   0  0  0  0  0  0  0  0  0  0  0  0
  1  2  1  0  0  0  0
  2  3  1  0  0  0  0
  3  4  1  0  0  0  0
  4  5  1  0  0  0  0
  5  6  1  0  0  0  0
  6  7  4  0  0  0  0
  7  8  4  0  0  0  0
  8  9  4  0  0  0  0
  9 10  4  0  0  0  0
 10 11  4  0  0  0  0
  6 11  4  0  0  0  0
  4 12  1  0  0  0  0
 12 13  1  0  0  0  0
 13 14  1  0  0  0  0
 14 15  1  0  0  0  0
 15 16  1  0  0  0  0
 12 16  1  0  0  0  0
  1 17  1  0  0  0  0
  1 18  1  0  0  0  0
  1 19  1  0  0  0  0
  2 20  1  0  0  0  0
  2 21  1  0  0  0  0
  3 22  1  0  0  0  0
  3 23  1  0  0  0  0
  4 24  1  0  0  0  0
  5 25  1  0  0  0  0
  5 26  1  0  0  0  0
  7 27  1  0  0  0  0
  8 28  1  0  0  0  0
  9 29  1  0  0  0  0
 10 30  1  0  0  0  0
 11 31  1  0  0  0  0
 13 32  1  0  0  0  0
 13 33  1  0  0  0  0
 14 34  1  0  0  0  0
 14 35  1  0  0  0  0
 15 36  1  0  0  0  0
 15 37  1  0  0  0  0
 16 38  1  0  0  0  0
 16 39  1  0  0  0  0
M  END
>  <InChIKey>
InChI=1S/C15H23N/c1-2-8-15(16-11-6-7-12-16)13-14-9-4-3-5-10-14/h3-5,9-10,15H,2,6-8,11-13H2,1H3

>  <CASRN>
493-92-5

> <Outcome>
0

>  <Index>
2385

>  <StandardizerResult>
Dearomatize (ID: Dearomatize)
Clear Stereo (ID: ClearStereo)
Wedge Clean (ID: WedgeClean)
Mesomerize (ID: Mesomerize)
Tautomerize (ID: Tautomerize)
Aromatize (ID: Aromatize)
Add Explicit Hydrogens (ID: AddExplicitH)
Neutralize (ID: Neutralize)
Clean 2D (ID: Clean2D)

> <knn Distance>
3.87298345565796

> <CpId>
2385

$$$$
2409
  Mrv1532301301811342D          

 65 65  0  0  0  0            999 V2000
   -3.6842   -2.3916    0.0000 C   0  0  0  0  0  0  0  0  0  0  0  0
   -3.5126   -1.5847    0.0000 C   0  0  0  0  0  0  0  0  0  0  0  0
   -2.7280   -1.3297    0.0000 C   0  0  0  0  0  0  0  0  0  0  0  0
   -2.5565   -0.5227    0.0000 C   0  0  0  0  0  0  0  0  0  0  0  0
   -1.7719   -0.2678    0.0000 C   0  0  0  0  0  0  0  0  0  0  0  0
   -1.5169   -1.0524    0.0000 C   0  0  0  0  0  0  0  0  0  0  0  0
   -2.0268    0.5168    0.0000 C   0  0  0  0  0  0  0  0  0  0  0  0
   -0.9872   -0.0129    0.0000 C   0  0  0  0  0  0  0  0  0  0  0  0
   -0.3742   -0.5649    0.0000 O   0  0  0  0  0  0  0  0  0  0  0  0
   -0.8157    0.7941    0.0000 C   0  0  0  0  0  0  0  0  0  0  0  0
   -0.0311    1.0490    0.0000 C   0  0  0  0  0  0  0  0  0  0  0  0
    0.1404    1.8560    0.0000 C   0  0  0  0  0  0  0  0  0  0  0  0
   -0.4116    2.4691    0.0000 C   0  0  0  0  0  0  0  0  0  0  0  0
   -1.2321    2.3829    0.0000 C   0  0  0  0  0  0  0  0  0  0  0  0
    0.0009    3.1836    0.0000 C   0  0  0  0  0  0  0  0  0  0  0  0
    0.8079    3.0121    0.0000 C   0  0  0  0  0  0  0  0  0  0  0  0
    1.4210    3.5641    0.0000 O   0  0  0  0  0  0  0  0  0  0  0  0
    0.8941    2.1916    0.0000 C   0  0  0  0  0  0  0  0  0  0  0  0
    1.6086    1.7791    0.0000 C   0  0  0  0  0  0  0  0  0  0  0  0
    2.3230    2.1916    0.0000 C   0  0  0  0  0  0  0  0  0  0  0  0
    3.0375    1.7791    0.0000 C   0  0  0  0  0  0  0  0  0  0  0  0
    3.7520    2.1916    0.0000 C   0  0  0  0  0  0  0  0  0  0  0  0
    4.4665    1.7791    0.0000 C   0  0  0  0  0  0  0  0  0  0  0  0
    5.1809    2.1916    0.0000 C   0  0  0  0  0  0  0  0  0  0  0  0
    5.8954    1.7791    0.0000 C   0  0  0  0  0  0  0  0  0  0  0  0
    6.6099    2.1916    0.0000 O   0  0  0  0  0  0  0  0  0  0  0  0
    5.8954    0.9541    0.0000 O   0  0  0  0  0  0  0  0  0  0  0  0
   -4.4911   -2.2201    0.0000 H   0  0  0  0  0  0  0  0  0  0  0  0
   -3.8557   -3.1986    0.0000 H   0  0  0  0  0  0  0  0  0  0  0  0
   -2.8772   -2.5632    0.0000 H   0  0  0  0  0  0  0  0  0  0  0  0
   -3.8128   -0.8162    0.0000 H   0  0  0  0  0  0  0  0  0  0  0  0
   -4.3083   -1.3665    0.0000 H   0  0  0  0  0  0  0  0  0  0  0  0
   -2.4279   -2.0982    0.0000 H   0  0  0  0  0  0  0  0  0  0  0  0
   -1.9324   -1.5479    0.0000 H   0  0  0  0  0  0  0  0  0  0  0  0
   -2.8566    0.2457    0.0000 H   0  0  0  0  0  0  0  0  0  0  0  0
   -3.3521   -0.3046    0.0000 H   0  0  0  0  0  0  0  0  0  0  0  0
   -1.2414   -1.8300    0.0000 H   0  0  0  0  0  0  0  0  0  0  0  0
   -0.7071   -1.2097    0.0000 H   0  0  0  0  0  0  0  0  0  0  0  0
   -0.9703   -0.4345    0.0000 H   0  0  0  0  0  0  0  0  0  0  0  0
   -1.2043    0.4524    0.0000 H   0  0  0  0  0  0  0  0  0  0  0  0
   -1.6529    1.2522    0.0000 H   0  0  0  0  0  0  0  0  0  0  0  0
   -2.5634    1.1435    0.0000 H   0  0  0  0  0  0  0  0  0  0  0  0
   -0.2026    0.2421    0.0000 H   0  0  0  0  0  0  0  0  0  0  0  0
    0.4028   -0.8424    0.0000 H   0  0  0  0  0  0  0  0  0  0  0  0
   -0.7389    1.6155    0.0000 H   0  0  0  0  0  0  0  0  0  0  0  0
    0.7759    0.8775    0.0000 H   0  0  0  0  0  0  0  0  0  0  0  0
    0.7816    1.3368    0.0000 H   0  0  0  0  0  0  0  0  0  0  0  0
   -0.8609    3.1610    0.0000 H   0  0  0  0  0  0  0  0  0  0  0  0
   -1.6941    3.0664    0.0000 H   0  0  0  0  0  0  0  0  0  0  0  0
   -2.0554    2.3309    0.0000 H   0  0  0  0  0  0  0  0  0  0  0  0
   -1.6044    1.6467    0.0000 H   0  0  0  0  0  0  0  0  0  0  0  0
    0.3722    3.9203    0.0000 H   0  0  0  0  0  0  0  0  0  0  0  0
   -0.2300    3.9756    0.0000 H   0  0  0  0  0  0  0  0  0  0  0  0
    1.5860    2.6409    0.0000 H   0  0  0  0  0  0  0  0  0  0  0  0
    1.7357    0.9639    0.0000 H   0  0  0  0  0  0  0  0  0  0  0  0
    2.2338    1.2408    0.0000 H   0  0  0  0  0  0  0  0  0  0  0  0
    2.7440    2.9011    0.0000 H   0  0  0  0  0  0  0  0  0  0  0  0
    3.4735    1.0787    0.0000 H   0  0  0  0  0  0  0  0  0  0  0  0
    4.1222    2.9288    0.0000 H   0  0  0  0  0  0  0  0  0  0  0  0
    3.3817    2.9288    0.0000 H   0  0  0  0  0  0  0  0  0  0  0  0
    4.0962    1.0418    0.0000 H   0  0  0  0  0  0  0  0  0  0  0  0
    4.8367    1.0418    0.0000 H   0  0  0  0  0  0  0  0  0  0  0  0
    5.5512    2.9288    0.0000 H   0  0  0  0  0  0  0  0  0  0  0  0
    4.8107    2.9288    0.0000 H   0  0  0  0  0  0  0  0  0  0  0  0
    7.3243    1.7791    0.0000 H   0  0  0  0  0  0  0  0  0  0  0  0
  1  2  1  0  0  0  0
  2  3  1  0  0  0  0
  3  4  1  0  0  0  0
  4  5  1  0  0  0  0
  5  6  1  0  0  0  0
  5  7  1  0  0  0  0
  5  8  1  0  0  0  0
  8  9  1  0  0  0  0
 10  8  1  4  0  0  0
 10 11  2  0  0  0  0
 11 12  1  0  0  0  0
 12 13  1  0  0  0  0
 13 14  1  0  0  0  0
 13 15  1  0  0  0  0
 15 16  1  0  0  0  0
 16 17  2  0  0  0  0
 16 18  1  0  0  0  0
 12 18  1  0  0  0  0
 18 19  1  0  0  0  0
 20 19  1  4  0  0  0
 20 21  2  0  0  0  0
 21 22  1  0  0  0  0
 22 23  1  0  0  0  0
 23 24  1  0  0  0  0
 24 25  1  0  0  0  0
 25 26  1  0  0  0  0
 25 27  2  0  0  0  0
  1 28  1  0  0  0  0
  1 29  1  0  0  0  0
  1 30  1  0  0  0  0
  2 31  1  0  0  0  0
  2 32  1  0  0  0  0
  3 33  1  0  0  0  0
  3 34  1  0  0  0  0
  4 35  1  0  0  0  0
  4 36  1  0  0  0  0
  6 37  1  0  0  0  0
  6 38  1  0  0  0  0
  6 39  1  0  0  0  0
  7 40  1  0  0  0  0
  7 41  1  0  0  0  0
  7 42  1  0  0  0  0
  8 43  1  0  0  0  0
  9 44  1  0  0  0  0
 10 45  1  0  0  0  0
 11 46  1  0  0  0  0
 12 47  1  0  0  0  0
 13 48  1  0  0  0  0
 14 49  1  0  0  0  0
 14 50  1  0  0  0  0
 14 51  1  0  0  0  0
 15 52  1  0  0  0  0
 15 53  1  0  0  0  0
 18 54  1  0  0  0  0
 19 55  1  0  0  0  0
 19 56  1  0  0  0  0
 20 57  1  0  0  0  0
 21 58  1  0  0  0  0
 22 59  1  0  0  0  0
 22 60  1  0  0  0  0
 23 61  1  0  0  0  0
 23 62  1  0  0  0  0
 24 63  1  0  0  0  0
 24 64  1  0  0  0  0
 26 65  1  0  0  0  0
M  END
>  <InChIKey>
InChI=1S/C23H38O4/c1-5-6-15-23(3,4)21(25)14-13-18-17(2)16-20(24)19(18)11-9-7-8-10-12-22(26)27/h7,9,13-14,17-19,21,25H,5-6,8,10-12,15-16H2,1-4H3,(H,26,27)

>  <CASRN>
69900-72-7

> <Outcome>
0

>  <Index>
2409

>  <StandardizerResult>
Clear Stereo (ID: ClearStereo)
Wedge Clean (ID: WedgeClean)
Mesomerize (ID: Mesomerize)
Tautomerize (ID: Tautomerize)
Add Explicit Hydrogens (ID: AddExplicitH)
Neutralize (ID: Neutralize)
Clean 2D (ID: Clean2D)

> <knn Distance>
3.87298345565796

> <CpId>
2409

$$$$
2484
  Mrv1532301301811342D          

 22 22  0  0  0  0            999 V2000
    0.0709    2.4760    0.0000 O   0  0  0  0  0  0  0  0  0  0  0  0
    0.7854    2.0635    0.0000 C   0  0  0  0  0  0  0  0  0  0  0  0
    0.7854    1.2385    0.0000 C   0  0  0  0  0  0  0  0  0  0  0  0
    1.4999    0.8260    0.0000 O   0  0  0  0  0  0  0  0  0  0  0  0
    1.4999    0.0010    0.0000 C   0  0  0  0  0  0  0  0  0  0  0  0
    2.2143   -0.4115    0.0000 O   0  0  0  0  0  0  0  0  0  0  0  0
    0.7854   -0.4115    0.0000 C   0  0  0  0  0  0  0  0  0  0  0  0
    0.7854   -1.2365    0.0000 O   0  0  0  0  0  0  0  0  0  0  0  0
    0.0709    0.0010    0.0000 C   0  0  0  0  0  0  0  0  0  0  0  0
   -0.6436   -0.4115    0.0000 O   0  0  0  0  0  0  0  0  0  0  0  0
    0.0709    0.8260    0.0000 C   0  0  0  0  0  0  0  0  0  0  0  0
   -0.6436    1.2385    0.0000 O   0  0  0  0  0  0  0  0  0  0  0  0
    0.0709    3.3010    0.0000 H   0  0  0  0  0  0  0  0  0  0  0  0
    1.6090    2.1115    0.0000 H   0  0  0  0  0  0  0  0  0  0  0  0
    1.2387    2.7528    0.0000 H   0  0  0  0  0  0  0  0  0  0  0  0
    0.0709    1.6510    0.0000 H   0  0  0  0  0  0  0  0  0  0  0  0
    0.0709   -0.8240    0.0000 H   0  0  0  0  0  0  0  0  0  0  0  0
    1.1979   -1.9510    0.0000 H   0  0  0  0  0  0  0  0  0  0  0  0
   -0.6436    0.4135    0.0000 H   0  0  0  0  0  0  0  0  0  0  0  0
   -1.3580   -0.8240    0.0000 H   0  0  0  0  0  0  0  0  0  0  0  0
    0.7854    0.4135    0.0000 H   0  0  0  0  0  0  0  0  0  0  0  0
   -1.3580    1.6510    0.0000 H   0  0  0  0  0  0  0  0  0  0  0  0
  1  2  1  0  0  0  0
  2  3  1  0  0  0  0
  3  4  1  0  0  0  0
  4  5  1  0  0  0  0
  5  6  2  0  0  0  0
  5  7  1  0  0  0  0
  7  8  1  0  0  0  0
  7  9  1  0  0  0  0
  9 10  1  0  0  0  0
  9 11  1  0  0  0  0
  3 11  1  0  0  0  0
 11 12  1  0  0  0  0
  1 13  1  0  0  0  0
  2 14  1  0  0  0  0
  2 15  1  0  0  0  0
  3 16  1  0  0  0  0
  7 17  1  0  0  0  0
  8 18  1  0  0  0  0
  9 19  1  0  0  0  0
 10 20  1  0  0  0  0
 11 21  1  0  0  0  0
 12 22  1  0  0  0  0
M  END
>  <InChIKey>
InChI=1S/C6H10O6/c7-1-2-3(8)4(9)5(10)6(11)12-2/h2-5,7-10H,1H2

>  <UN GHS>
Non-irritant

>  <CASRN>
90-80-2

> <Outcome>
0

>  <Index>
2484

>  <StandardizerResult>
Clear Stereo (ID: ClearStereo)
Wedge Clean (ID: WedgeClean)
Mesomerize (ID: Mesomerize)
Tautomerize (ID: Tautomerize)
Add Explicit Hydrogens (ID: AddExplicitH)
Neutralize (ID: Neutralize)
Clean 2D (ID: Clean2D)

> <knn Distance>
3.87298345565796

> <CpId>
2484

$$$$
2485
  Mrv1532301301811342D          

 30 32  0  0  0  0            999 V2000
    2.7397   -4.1871    0.0000 C   0  0  0  0  0  0  0  0  0  0  0  0
    2.4848   -3.4025    0.0000 C   0  0  0  0  0  0  0  0  0  0  0  0
    1.6778   -3.2309    0.0000 O   0  0  0  0  0  0  0  0  0  0  0  0
    3.0368   -2.7894    0.0000 N   0  0  0  0  0  0  0  0  0  0  0  0
    2.7819   -2.0047    0.0000 C   0  0  0  0  0  0  0  0  0  0  0  0
    1.9749   -1.8332    0.0000 C   0  0  0  0  0  0  0  0  0  0  0  0
    1.7200   -1.0486    0.0000 C   0  0  0  0  0  0  0  0  0  0  0  0
    2.2720   -0.4355    0.0000 C   0  0  0  0  0  0  0  0  0  0  0  0
    3.0790   -0.6070    0.0000 C   0  0  0  0  0  0  0  0  0  0  0  0
    3.7464   -0.1221    0.0000 C   0  0  0  0  0  0  0  0  0  0  0  0
    4.4138   -0.6070    0.0000 C   0  0  0  0  0  0  0  0  0  0  0  0
    5.2208   -0.4355    0.0000 C   0  0  0  0  0  0  0  0  0  0  0  0
    5.7729   -1.0486    0.0000 C   0  0  0  0  0  0  0  0  0  0  0  0
    5.5179   -1.8332    0.0000 C   0  0  0  0  0  0  0  0  0  0  0  0
    4.7109   -2.0047    0.0000 C   0  0  0  0  0  0  0  0  0  0  0  0
    4.1589   -1.3916    0.0000 C   0  0  0  0  0  0  0  0  0  0  0  0
    3.3339   -1.3916    0.0000 C   0  0  0  0  0  0  0  0  0  0  0  0
    1.9551   -4.4420    0.0000 H   0  0  0  0  0  0  0  0  0  0  0  0
    2.9947   -4.9717    0.0000 H   0  0  0  0  0  0  0  0  0  0  0  0
    3.5243   -3.9321    0.0000 H   0  0  0  0  0  0  0  0  0  0  0  0
    3.8438   -2.9609    0.0000 H   0  0  0  0  0  0  0  0  0  0  0  0
    1.4229   -2.4463    0.0000 H   0  0  0  0  0  0  0  0  0  0  0  0
    0.9130   -0.8771    0.0000 H   0  0  0  0  0  0  0  0  0  0  0  0
    2.0171    0.3491    0.0000 H   0  0  0  0  0  0  0  0  0  0  0  0
    4.1337    0.6063    0.0000 H   0  0  0  0  0  0  0  0  0  0  0  0
    3.3591    0.6063    0.0000 H   0  0  0  0  0  0  0  0  0  0  0  0
    5.4758    0.3491    0.0000 H   0  0  0  0  0  0  0  0  0  0  0  0
    6.5798   -0.8771    0.0000 H   0  0  0  0  0  0  0  0  0  0  0  0
    6.0699   -2.4463    0.0000 H   0  0  0  0  0  0  0  0  0  0  0  0
    4.4560   -2.7894    0.0000 H   0  0  0  0  0  0  0  0  0  0  0  0
  1  2  1  0  0  0  0
  2  3  2  0  0  0  0
  2  4  1  0  0  0  0
  4  5  1  0  0  0  0
  5  6  4  0  0  0  0
  6  7  4  0  0  0  0
  7  8  4  0  0  0  0
  8  9  4  0  0  0  0
  9 10  1  0  0  0  0
 10 11  1  0  0  0  0
 11 12  4  0  0  0  0
 12 13  4  0  0  0  0
 13 14  4  0  0  0  0
 14 15  4  0  0  0  0
 15 16  4  0  0  0  0
 11 16  4  0  0  0  0
 16 17  1  0  0  0  0
  5 17  4  0  0  0  0
  9 17  4  0  0  0  0
  1 18  1  0  0  0  0
  1 19  1  0  0  0  0
  1 20  1  0  0  0  0
  4 21  1  0  0  0  0
  6 22  1  0  0  0  0
  7 23  1  0  0  0  0
  8 24  1  0  0  0  0
 10 25  1  0  0  0  0
 10 26  1  0  0  0  0
 12 27  1  0  0  0  0
 13 28  1  0  0  0  0
 14 29  1  0  0  0  0
 15 30  1  0  0  0  0
M  END
>  <InChIKey>
InChI=1S/C15H13NO/c1-10(17)16-14-8-4-6-12-9-11-5-2-3-7-13(11)15(12)14/h2-8H,9H2,1H3,(H,16,17)

>  <CASRN>
28322-02-3

> <Outcome>
0

>  <Index>
2485

>  <StandardizerResult>
Dearomatize (ID: Dearomatize)
Clear Stereo (ID: ClearStereo)
Wedge Clean (ID: WedgeClean)
Mesomerize (ID: Mesomerize)
Tautomerize (ID: Tautomerize)
Aromatize (ID: Aromatize)
Add Explicit Hydrogens (ID: AddExplicitH)
Neutralize (ID: Neutralize)
Clean 2D (ID: Clean2D)

> <knn Distance>
3.87298345565796

> <CpId>
2485

$$$$
2555
  Mrv1532301301811342D          

 59 63  0  0  0  0            999 V2000
    3.5434   -3.2713    0.0000 C   0  0  0  0  0  0  0  0  0  0  0  0
    3.9033   -2.5289    0.0000 C   0  0  0  0  0  0  0  0  0  0  0  0
    4.4351   -3.1596    0.0000 C   0  0  0  0  0  0  0  0  0  0  0  0
    5.2473   -3.0144    0.0000 C   0  0  0  0  0  0  0  0  0  0  0  0
    5.5276   -2.2385    0.0000 C   0  0  0  0  0  0  0  0  0  0  0  0
    4.9957   -1.6078    0.0000 C   0  0  0  0  0  0  0  0  0  0  0  0
    5.2760   -0.8319    0.0000 C   0  0  0  0  0  0  0  0  0  0  0  0
    6.0882   -0.6867    0.0000 C   0  0  0  0  0  0  0  0  0  0  0  0
    6.6200   -1.3174    0.0000 C   0  0  0  0  0  0  0  0  0  0  0  0
    7.4321   -1.1722    0.0000 C   0  0  0  0  0  0  0  0  0  0  0  0
    7.9639   -1.8029    0.0000 C   0  0  0  0  0  0  0  0  0  0  0  0
    8.7760   -1.6576    0.0000 O   0  0  0  0  0  0  0  0  0  0  0  0
    9.3078   -2.2884    0.0000 C   0  0  0  0  0  0  0  0  0  0  0  0
   10.1307   -2.2288    0.0000 C   0  0  0  0  0  0  0  0  0  0  0  0
   10.4416   -2.9930    0.0000 C   0  0  0  0  0  0  0  0  0  0  0  0
    9.8109   -3.5248    0.0000 C   0  0  0  0  0  0  0  0  0  0  0  0
    9.1102   -3.0893    0.0000 C   0  0  0  0  0  0  0  0  0  0  0  0
    7.6836   -2.5788    0.0000 C   0  0  0  0  0  0  0  0  0  0  0  0
    6.8715   -2.7240    0.0000 C   0  0  0  0  0  0  0  0  0  0  0  0
    6.3397   -2.0933    0.0000 C   0  0  0  0  0  0  0  0  0  0  0  0
    4.1836   -1.7530    0.0000 C   0  0  0  0  0  0  0  0  0  0  0  0
    3.5323   -1.2467    0.0000 C   0  0  0  0  0  0  0  0  0  0  0  0
    2.8494   -1.7096    0.0000 C   0  0  0  0  0  0  0  0  0  0  0  0
    3.0787   -2.5021    0.0000 C   0  0  0  0  0  0  0  0  0  0  0  0
    2.3179   -2.8210    0.0000 O   0  0  0  0  0  0  0  0  0  0  0  0
    2.9573   -3.3181    0.0000 C   0  0  0  0  0  0  0  0  0  0  0  0
    2.8359   -4.1342    0.0000 C   0  0  0  0  0  0  0  0  0  0  0  0
    3.0155   -3.9052    0.0000 H   0  0  0  0  0  0  0  0  0  0  0  0
    3.6276   -4.0920    0.0000 H   0  0  0  0  0  0  0  0  0  0  0  0
    4.1891   -3.7849    0.0000 H   0  0  0  0  0  0  0  0  0  0  0  0
    4.9580   -3.7978    0.0000 H   0  0  0  0  0  0  0  0  0  0  0  0
    4.7154   -2.3837    0.0000 H   0  0  0  0  0  0  0  0  0  0  0  0
    5.8782   -3.5459    0.0000 H   0  0  0  0  0  0  0  0  0  0  0  0
    6.0723   -3.0147    0.0000 H   0  0  0  0  0  0  0  0  0  0  0  0
    5.8079   -1.4626    0.0000 H   0  0  0  0  0  0  0  0  0  0  0  0
    4.4639   -0.9771    0.0000 H   0  0  0  0  0  0  0  0  0  0  0  0
    5.4173   -0.0191    0.0000 H   0  0  0  0  0  0  0  0  0  0  0  0
    4.8618   -0.1184    0.0000 H   0  0  0  0  0  0  0  0  0  0  0  0
    6.8526   -0.3765    0.0000 H   0  0  0  0  0  0  0  0  0  0  0  0
    6.4602    0.0497    0.0000 H   0  0  0  0  0  0  0  0  0  0  0  0
    7.7124   -0.3962    0.0000 H   0  0  0  0  0  0  0  0  0  0  0  0
    8.5044   -2.4759    0.0000 H   0  0  0  0  0  0  0  0  0  0  0  0
   10.8442   -1.8146    0.0000 H   0  0  0  0  0  0  0  0  0  0  0  0
   10.1863   -1.4057    0.0000 H   0  0  0  0  0  0  0  0  0  0  0  0
   11.0560   -3.5436    0.0000 H   0  0  0  0  0  0  0  0  0  0  0  0
   11.2416   -2.7915    0.0000 H   0  0  0  0  0  0  0  0  0  0  0  0
    9.4771   -4.2793    0.0000 H   0  0  0  0  0  0  0  0  0  0  0  0
   10.2497   -4.2234    0.0000 H   0  0  0  0  0  0  0  0  0  0  0  0
    8.3949   -3.5004    0.0000 H   0  0  0  0  0  0  0  0  0  0  0  0
    8.8674   -3.8778    0.0000 H   0  0  0  0  0  0  0  0  0  0  0  0
    7.8076   -3.3944    0.0000 H   0  0  0  0  0  0  0  0  0  0  0  0
    7.0859   -3.5207    0.0000 H   0  0  0  0  0  0  0  0  0  0  0  0
    3.3911   -1.9823    0.0000 H   0  0  0  0  0  0  0  0  0  0  0  0
    3.4871   -0.4229    0.0000 H   0  0  0  0  0  0  0  0  0  0  0  0
    2.9276   -0.6855    0.0000 H   0  0  0  0  0  0  0  0  0  0  0  0
    2.2959   -1.0979    0.0000 H   0  0  0  0  0  0  0  0  0  0  0  0
    2.0327   -1.8264    0.0000 H   0  0  0  0  0  0  0  0  0  0  0  0
    1.5000   -2.7124    0.0000 H   0  0  0  0  0  0  0  0  0  0  0  0
    2.2257   -4.6893    0.0000 H   0  0  0  0  0  0  0  0  0  0  0  0
  1  2  1  0  0  0  0
  2  3  1  0  0  0  0
  3  4  1  0  0  0  0
  4  5  1  0  0  0  0
  5  6  1  0  0  0  0
  6  7  1  0  0  0  0
  7  8  1  0  0  0  0
  8  9  1  0  0  0  0
  9 10  4  0  0  0  0
 10 11  4  0  0  0  0
 11 12  1  0  0  0  0
 12 13  1  0  0  0  0
 13 14  1  0  0  0  0
 14 15  1  0  0  0  0
 15 16  1  0  0  0  0
 16 17  1  0  0  0  0
 13 17  1  0  0  0  0
 11 18  4  0  0  0  0
 18 19  4  0  0  0  0
 19 20  4  0  0  0  0
  5 20  1  0  0  0  0
  9 20  4  0  0  0  0
  6 21  1  0  0  0  0
  2 21  1  0  0  0  0
 21 22  1  0  0  0  0
 22 23  1  0  0  0  0
 23 24  1  0  0  0  0
  2 24  1  0  0  0  0
 24 25  1  0  0  0  0
 24 26  1  0  0  0  0
 26 27  3  0  0  0  0
  1 28  1  0  0  0  0
  1 29  1  0  0  0  0
  1 30  1  0  0  0  0
  3 31  1  0  0  0  0
  3 32  1  0  0  0  0
  4 33  1  0  0  0  0
  4 34  1  0  0  0  0
  5 35  1  0  0  0  0
  6 36  1  0  0  0  0
  7 37  1  0  0  0  0
  7 38  1  0  0  0  0
  8 39  1  0  0  0  0
  8 40  1  0  0  0  0
 10 41  1  0  0  0  0
 13 42  1  0  0  0  0
 14 43  1  0  0  0  0
 14 44  1  0  0  0  0
 15 45  1  0  0  0  0
 15 46  1  0  0  0  0
 16 47  1  0  0  0  0
 16 48  1  0  0  0  0
 17 49  1  0  0  0  0
 17 50  1  0  0  0  0
 18 51  1  0  0  0  0
 19 52  1  0  0  0  0
 21 53  1  0  0  0  0
 22 54  1  0  0  0  0
 22 55  1  0  0  0  0
 23 56  1  0  0  0  0
 23 57  1  0  0  0  0
 25 58  1  0  0  0  0
 27 59  1  0  0  0  0
M  END
>  <InChIKey>
InChI=1S/C25H32O2/c1-3-25(26)15-13-23-22-10-8-17-16-19(27-18-6-4-5-7-18)9-11-20(17)21(22)12-14-24(23,25)2/h1,9,11,16,18,21-23,26H,4-8,10,12-15H2,2H3

>  <CASRN>
152-43-2

> <Outcome>
0

>  <Index>
2555

>  <StandardizerResult>
Dearomatize (ID: Dearomatize)
Clear Stereo (ID: ClearStereo)
Wedge Clean (ID: WedgeClean)
Mesomerize (ID: Mesomerize)
Tautomerize (ID: Tautomerize)
Aromatize (ID: Aromatize)
Add Explicit Hydrogens (ID: AddExplicitH)
Neutralize (ID: Neutralize)
Clean 2D (ID: Clean2D)

> <knn Distance>
3.87298345565796

> <CpId>
2555

$$$$
2571
  Mrv1532301301811342D          

 35 36  0  0  0  0            999 V2000
    0.7968   -1.2429    0.0000 C   0  0  0  0  0  0  0  0  0  0  0  0
    0.7968   -0.4179    0.0000 N   0  0  0  0  0  0  0  0  0  0  0  0
    0.0823   -0.0054    0.0000 C   0  0  0  0  0  0  0  0  0  0  0  0
    1.5113   -0.0054    0.0000 C   0  0  0  0  0  0  0  0  0  0  0  0
    1.5113    0.8196    0.0000 O   0  0  0  0  0  0  0  0  0  0  0  0
    2.2258   -0.4179    0.0000 C   0  0  0  0  0  0  0  0  0  0  0  0
    2.2258   -1.2429    0.0000 C   0  0  0  0  0  0  0  0  0  0  0  0
    2.9402   -1.6554    0.0000 C   0  0  0  0  0  0  0  0  0  0  0  0
    2.9402   -2.4804    0.0000 C   0  0  0  0  0  0  0  0  0  0  0  0
    2.2258   -2.8929    0.0000 C   0  0  0  0  0  0  0  0  0  0  0  0
    1.5113   -2.4804    0.0000 C   0  0  0  0  0  0  0  0  0  0  0  0
    1.5113   -1.6554    0.0000 C   0  0  0  0  0  0  0  0  0  0  0  0
    2.9402   -0.0054    0.0000 C   0  0  0  0  0  0  0  0  0  0  0  0
    2.9402    0.8196    0.0000 C   0  0  0  0  0  0  0  0  0  0  0  0
    3.6547    1.2321    0.0000 C   0  0  0  0  0  0  0  0  0  0  0  0
    4.3692    0.8196    0.0000 C   0  0  0  0  0  0  0  0  0  0  0  0
    4.3692   -0.0054    0.0000 C   0  0  0  0  0  0  0  0  0  0  0  0
    3.6547   -0.4179    0.0000 C   0  0  0  0  0  0  0  0  0  0  0  0
    0.0823   -0.8304    0.0000 H   0  0  0  0  0  0  0  0  0  0  0  0
    0.0823   -1.6554    0.0000 H   0  0  0  0  0  0  0  0  0  0  0  0
    0.7968   -2.0679    0.0000 H   0  0  0  0  0  0  0  0  0  0  0  0
    0.6657    0.5780    0.0000 H   0  0  0  0  0  0  0  0  0  0  0  0
   -0.3302    0.7091    0.0000 H   0  0  0  0  0  0  0  0  0  0  0  0
   -0.7145   -0.2189    0.0000 H   0  0  0  0  0  0  0  0  0  0  0  0
    1.5113   -0.8304    0.0000 H   0  0  0  0  0  0  0  0  0  0  0  0
    3.6547   -1.2429    0.0000 H   0  0  0  0  0  0  0  0  0  0  0  0
    3.6547   -2.8929    0.0000 H   0  0  0  0  0  0  0  0  0  0  0  0
    2.2258   -3.7179    0.0000 H   0  0  0  0  0  0  0  0  0  0  0  0
    1.0988   -3.1949    0.0000 H   0  0  0  0  0  0  0  0  0  0  0  0
    2.2258   -2.0679    0.0000 H   0  0  0  0  0  0  0  0  0  0  0  0
    2.2258    1.2321    0.0000 H   0  0  0  0  0  0  0  0  0  0  0  0
    3.6547    2.0571    0.0000 H   0  0  0  0  0  0  0  0  0  0  0  0
    5.0836    1.2321    0.0000 H   0  0  0  0  0  0  0  0  0  0  0  0
    5.0836   -0.4179    0.0000 H   0  0  0  0  0  0  0  0  0  0  0  0
    2.9402   -0.8304    0.0000 H   0  0  0  0  0  0  0  0  0  0  0  0
  1  2  1  0  0  0  0
  2  3  1  0  0  0  0
  2  4  1  0  0  0  0
  4  5  2  0  0  0  0
  4  6  1  0  0  0  0
  6  7  1  0  0  0  0
  7  8  4  0  0  0  0
  8  9  4  0  0  0  0
  9 10  4  0  0  0  0
 10 11  4  0  0  0  0
 11 12  4  0  0  0  0
  7 12  4  0  0  0  0
  6 13  1  0  0  0  0
 13 14  4  0  0  0  0
 14 15  4  0  0  0  0
 15 16  4  0  0  0  0
 16 17  4  0  0  0  0
 17 18  4  0  0  0  0
 13 18  4  0  0  0  0
  1 19  1  0  0  0  0
  1 20  1  0  0  0  0
  1 21  1  0  0  0  0
  3 22  1  0  0  0  0
  3 23  1  0  0  0  0
  3 24  1  0  0  0  0
  6 25  1  0  0  0  0
  8 26  1  0  0  0  0
  9 27  1  0  0  0  0
 10 28  1  0  0  0  0
 11 29  1  0  0  0  0
 12 30  1  0  0  0  0
 14 31  1  0  0  0  0
 15 32  1  0  0  0  0
 16 33  1  0  0  0  0
 17 34  1  0  0  0  0
 18 35  1  0  0  0  0
M  END
>  <InChIKey>
InChI=1S/C16H17NO/c1-17(2)16(18)15(13-9-5-3-6-10-13)14-11-7-4-8-12-14/h3-12,15H,1-2H3

>  <CASRN>
957-51-7

> <Outcome>
0

>  <Index>
2571

>  <StandardizerResult>
Dearomatize (ID: Dearomatize)
Clear Stereo (ID: ClearStereo)
Wedge Clean (ID: WedgeClean)
Mesomerize (ID: Mesomerize)
Tautomerize (ID: Tautomerize)
Aromatize (ID: Aromatize)
Add Explicit Hydrogens (ID: AddExplicitH)
Neutralize (ID: Neutralize)
Clean 2D (ID: Clean2D)

> <knn Distance>
3.87298345565796

> <CpId>
2571

$$$$
2584
  Mrv1532301301811342D          

 30 31  0  0  0  0            999 V2000
   -0.7258   -0.4347    0.0000 C   0  0  0  0  0  0  0  0  0  0  0  0
   -0.7258   -1.2597    0.0000 C   0  0  0  0  0  0  0  0  0  0  0  0
   -1.4403   -1.6722    0.0000 C   0  0  0  0  0  0  0  0  0  0  0  0
   -1.4403   -2.4972    0.0000 C   0  0  0  0  0  0  0  0  0  0  0  0
   -2.1547   -2.9097    0.0000 N   0  0  0  0  0  0  0  0  0  0  0  0
   -2.1547   -3.7347    0.0000 C   0  0  0  0  0  0  0  0  0  0  0  0
   -1.4403   -4.1472    0.0000 C   0  0  0  0  0  0  0  0  0  0  0  0
   -1.4403   -4.9722    0.0000 C   0  0  0  0  0  0  0  0  0  0  0  0
   -2.1547   -5.3847    0.0000 C   0  0  0  0  0  0  0  0  0  0  0  0
   -2.8692   -4.9722    0.0000 C   0  0  0  0  0  0  0  0  0  0  0  0
   -2.8692   -4.1472    0.0000 C   0  0  0  0  0  0  0  0  0  0  0  0
   -3.5837   -3.7347    0.0000 C   0  0  0  0  0  0  0  0  0  0  0  0
   -3.5837   -2.9097    0.0000 O   0  0  0  0  0  0  0  0  0  0  0  0
   -4.2982   -4.1472    0.0000 O   0  0  0  0  0  0  0  0  0  0  0  0
   -0.7258   -2.9097    0.0000 C   0  0  0  0  0  0  0  0  0  0  0  0
   -0.0113   -2.4972    0.0000 C   0  0  0  0  0  0  0  0  0  0  0  0
   -0.0113   -1.6722    0.0000 C   0  0  0  0  0  0  0  0  0  0  0  0
    0.7031   -1.2597    0.0000 Cl  0  0  0  0  0  0  0  0  0  0  0  0
    0.0992   -0.4347    0.0000 H   0  0  0  0  0  0  0  0  0  0  0  0
   -0.7258    0.3903    0.0000 H   0  0  0  0  0  0  0  0  0  0  0  0
   -1.5508   -0.4347    0.0000 H   0  0  0  0  0  0  0  0  0  0  0  0
   -2.1547   -1.2597    0.0000 H   0  0  0  0  0  0  0  0  0  0  0  0
   -2.8692   -2.4972    0.0000 H   0  0  0  0  0  0  0  0  0  0  0  0
   -0.7258   -3.7347    0.0000 H   0  0  0  0  0  0  0  0  0  0  0  0
   -0.7258   -5.3847    0.0000 H   0  0  0  0  0  0  0  0  0  0  0  0
   -2.1547   -6.2097    0.0000 H   0  0  0  0  0  0  0  0  0  0  0  0
   -3.5837   -5.3847    0.0000 H   0  0  0  0  0  0  0  0  0  0  0  0
   -4.2982   -2.4972    0.0000 H   0  0  0  0  0  0  0  0  0  0  0  0
   -0.0113   -3.3222    0.0000 H   0  0  0  0  0  0  0  0  0  0  0  0
    0.8137   -2.4972    0.0000 H   0  0  0  0  0  0  0  0  0  0  0  0
  1  2  1  0  0  0  0
  2  3  4  0  0  0  0
  3  4  4  0  0  0  0
  4  5  1  0  0  0  0
  5  6  1  0  0  0  0
  6  7  4  0  0  0  0
  7  8  4  0  0  0  0
  8  9  4  0  0  0  0
  9 10  4  0  0  0  0
 10 11  4  0  0  0  0
  6 11  4  0  0  0  0
 11 12  1  0  0  0  0
 12 13  1  0  0  0  0
 12 14  2  0  0  0  0
  4 15  4  0  0  0  0
 15 16  4  0  0  0  0
 16 17  4  0  0  0  0
  2 17  4  0  0  0  0
 17 18  1  0  0  0  0
  1 19  1  0  0  0  0
  1 20  1  0  0  0  0
  1 21  1  0  0  0  0
  3 22  1  0  0  0  0
  5 23  1  0  0  0  0
  7 24  1  0  0  0  0
  8 25  1  0  0  0  0
  9 26  1  0  0  0  0
 10 27  1  0  0  0  0
 13 28  1  0  0  0  0
 15 29  1  0  0  0  0
 16 30  1  0  0  0  0
M  END
>  <InChIKey>
InChI=1S/C14H12ClNO2/c1-9-8-10(6-7-12(9)15)16-13-5-3-2-4-11(13)14(17)18/h2-8,16H,1H3,(H,17,18)

>  <CASRN>
13710-19-5

> <Outcome>
0

>  <Index>
2584

>  <StandardizerResult>
Dearomatize (ID: Dearomatize)
Clear Stereo (ID: ClearStereo)
Wedge Clean (ID: WedgeClean)
Mesomerize (ID: Mesomerize)
Tautomerize (ID: Tautomerize)
Aromatize (ID: Aromatize)
Add Explicit Hydrogens (ID: AddExplicitH)
Neutralize (ID: Neutralize)
Clean 2D (ID: Clean2D)

> <knn Distance>
3.87298345565796

> <CpId>
2584

$$$$
2629
  Mrv1532301301811342D          

 78 79  0  0  0  0            999 V2000
    7.5582    0.5139    0.0000 C   0  0  0  0  0  0  0  0  0  0  0  0
    8.2727    0.9264    0.0000 C   0  0  0  0  0  0  0  0  0  0  0  0
    8.2727    1.7514    0.0000 C   0  0  0  0  0  0  0  0  0  0  0  0
    8.9872    0.5139    0.0000 C   0  0  0  0  0  0  0  0  0  0  0  0
    9.7016    0.9264    0.0000 C   0  0  0  0  0  0  0  0  0  0  0  0
   10.4161    0.5139    0.0000 C   0  0  0  0  0  0  0  0  0  0  0  0
   11.1306    0.9264    0.0000 C   0  0  0  0  0  0  0  0  0  0  0  0
   11.1306    1.7514    0.0000 C   0  0  0  0  0  0  0  0  0  0  0  0
   11.8450    0.5139    0.0000 C   0  0  0  0  0  0  0  0  0  0  0  0
   12.5595    0.9264    0.0000 C   0  0  0  0  0  0  0  0  0  0  0  0
   13.2740    0.5139    0.0000 C   0  0  0  0  0  0  0  0  0  0  0  0
   13.9885    0.9264    0.0000 C   0  0  0  0  0  0  0  0  0  0  0  0
   13.9885    1.7514    0.0000 C   0  0  0  0  0  0  0  0  0  0  0  0
   14.7029    0.5139    0.0000 C   0  0  0  0  0  0  0  0  0  0  0  0
   15.4174    0.9264    0.0000 C   0  0  0  0  0  0  0  0  0  0  0  0
   16.1319    0.5139    0.0000 C   0  0  0  0  0  0  0  0  0  0  0  0
   16.1319   -0.3111    0.0000 C   0  0  0  0  0  0  0  0  0  0  0  0
   15.3194   -0.1678    0.0000 C   0  0  0  0  0  0  0  0  0  0  0  0
   16.9443   -0.1678    0.0000 C   0  0  0  0  0  0  0  0  0  0  0  0
   17.4746   -0.7998    0.0000 C   0  0  0  0  0  0  0  0  0  0  0  0
   17.1925   -1.5751    0.0000 C   0  0  0  0  0  0  0  0  0  0  0  0
   17.7228   -2.2071    0.0000 C   0  0  0  0  0  0  0  0  0  0  0  0
   17.4406   -2.9823    0.0000 C   0  0  0  0  0  0  0  0  0  0  0  0
   17.9709   -3.6143    0.0000 O   0  0  0  0  0  0  0  0  0  0  0  0
   16.6281   -3.1256    0.0000 C   0  0  0  0  0  0  0  0  0  0  0  0
   16.3460   -3.9008    0.0000 C   0  0  0  0  0  0  0  0  0  0  0  0
   16.0978   -2.4936    0.0000 C   0  0  0  0  0  0  0  0  0  0  0  0
   15.2854   -2.6368    0.0000 C   0  0  0  0  0  0  0  0  0  0  0  0
   16.3800   -1.7183    0.0000 C   0  0  0  0  0  0  0  0  0  0  0  0
   15.8497   -1.0863    0.0000 O   0  0  0  0  0  0  0  0  0  0  0  0
    7.1457    1.2284    0.0000 H   0  0  0  0  0  0  0  0  0  0  0  0
    6.8437    0.1014    0.0000 H   0  0  0  0  0  0  0  0  0  0  0  0
    7.9707   -0.2006    0.0000 H   0  0  0  0  0  0  0  0  0  0  0  0
    7.5582    1.3389    0.0000 H   0  0  0  0  0  0  0  0  0  0  0  0
    9.0696    1.5379    0.0000 H   0  0  0  0  0  0  0  0  0  0  0  0
    8.6852    2.4659    0.0000 H   0  0  0  0  0  0  0  0  0  0  0  0
    7.6893    2.3348    0.0000 H   0  0  0  0  0  0  0  0  0  0  0  0
    8.6169   -0.2233    0.0000 H   0  0  0  0  0  0  0  0  0  0  0  0
    9.3574   -0.2233    0.0000 H   0  0  0  0  0  0  0  0  0  0  0  0
   10.1984    1.5850    0.0000 H   0  0  0  0  0  0  0  0  0  0  0  0
    9.7016    0.1014    0.0000 H   0  0  0  0  0  0  0  0  0  0  0  0
   10.5594   -0.2986    0.0000 H   0  0  0  0  0  0  0  0  0  0  0  0
   11.0481   -0.0164    0.0000 H   0  0  0  0  0  0  0  0  0  0  0  0
   10.4161    1.3389    0.0000 H   0  0  0  0  0  0  0  0  0  0  0  0
   11.9060    1.4696    0.0000 H   0  0  0  0  0  0  0  0  0  0  0  0
   11.6602    2.3839    0.0000 H   0  0  0  0  0  0  0  0  0  0  0  0
   10.7170    2.4652    0.0000 H   0  0  0  0  0  0  0  0  0  0  0  0
   11.8800   -0.3104    0.0000 H   0  0  0  0  0  0  0  0  0  0  0  0
   12.5681    0.1166    0.0000 H   0  0  0  0  0  0  0  0  0  0  0  0
   13.2962    1.2978    0.0000 H   0  0  0  0  0  0  0  0  0  0  0  0
   12.6527    1.7461    0.0000 H   0  0  0  0  0  0  0  0  0  0  0  0
   13.4118   -0.2995    0.0000 H   0  0  0  0  0  0  0  0  0  0  0  0
   13.9037   -0.0191    0.0000 H   0  0  0  0  0  0  0  0  0  0  0  0
   14.7029    1.3389    0.0000 H   0  0  0  0  0  0  0  0  0  0  0  0
   14.6970    2.1739    0.0000 H   0  0  0  0  0  0  0  0  0  0  0  0
   13.9652    2.5761    0.0000 H   0  0  0  0  0  0  0  0  0  0  0  0
   13.2572    2.1333    0.0000 H   0  0  0  0  0  0  0  0  0  0  0  0
   14.6011   -0.3048    0.0000 H   0  0  0  0  0  0  0  0  0  0  0  0
   15.5179    0.3857    0.0000 H   0  0  0  0  0  0  0  0  0  0  0  0
   16.0494    1.4567    0.0000 H   0  0  0  0  0  0  0  0  0  0  0  0
   15.5607    1.7389    0.0000 H   0  0  0  0  0  0  0  0  0  0  0  0
   16.9162    0.2582    0.0000 H   0  0  0  0  0  0  0  0  0  0  0  0
   16.8910    0.8370    0.0000 H   0  0  0  0  0  0  0  0  0  0  0  0
   14.7957   -0.8053    0.0000 H   0  0  0  0  0  0  0  0  0  0  0  0
   15.3251   -0.9928    0.0000 H   0  0  0  0  0  0  0  0  0  0  0  0
   15.8519   -0.7980    0.0000 H   0  0  0  0  0  0  0  0  0  0  0  0
   17.7099    0.1397    0.0000 H   0  0  0  0  0  0  0  0  0  0  0  0
   16.6622   -0.9431    0.0000 H   0  0  0  0  0  0  0  0  0  0  0  0
   18.1275   -1.3042    0.0000 H   0  0  0  0  0  0  0  0  0  0  0  0
   18.2980   -0.7476    0.0000 H   0  0  0  0  0  0  0  0  0  0  0  0
   18.5352   -2.0638    0.0000 H   0  0  0  0  0  0  0  0  0  0  0  0
   17.6887   -4.3895    0.0000 H   0  0  0  0  0  0  0  0  0  0  0  0
   15.5707   -3.6186    0.0000 H   0  0  0  0  0  0  0  0  0  0  0  0
   16.0638   -4.6761    0.0000 H   0  0  0  0  0  0  0  0  0  0  0  0
   17.1212   -4.1830    0.0000 H   0  0  0  0  0  0  0  0  0  0  0  0
   15.1421   -1.8244    0.0000 H   0  0  0  0  0  0  0  0  0  0  0  0
   14.4729   -2.7801    0.0000 H   0  0  0  0  0  0  0  0  0  0  0  0
   15.4286   -3.4493    0.0000 H   0  0  0  0  0  0  0  0  0  0  0  0
  1  2  1  0  0  0  0
  2  3  1  0  0  0  0
  2  4  1  0  0  0  0
  4  5  1  0  0  0  0
  5  6  1  0  0  0  0
  6  7  1  0  0  0  0
  7  8  1  0  0  0  0
  7  9  1  0  0  0  0
  9 10  1  0  0  0  0
 10 11  1  0  0  0  0
 11 12  1  0  0  0  0
 12 13  1  0  0  0  0
 12 14  1  0  0  0  0
 14 15  1  0  0  0  0
 15 16  1  0  0  0  0
 16 17  1  0  0  0  0
 17 18  1  0  0  0  0
 17 19  1  0  0  0  0
 19 20  1  0  0  0  0
 20 21  1  0  0  0  0
 21 22  4  0  0  0  0
 22 23  4  0  0  0  0
 23 24  1  0  0  0  0
 23 25  4  0  0  0  0
 25 26  1  0  0  0  0
 25 27  4  0  0  0  0
 27 28  1  0  0  0  0
 27 29  4  0  0  0  0
 21 29  4  0  0  0  0
 29 30  1  0  0  0  0
 17 30  1  0  0  0  0
  1 31  1  0  0  0  0
  1 32  1  0  0  0  0
  1 33  1  0  0  0  0
  2 34  1  0  0  0  0
  3 35  1  0  0  0  0
  3 36  1  0  0  0  0
  3 37  1  0  0  0  0
  4 38  1  0  0  0  0
  4 39  1  0  0  0  0
  5 40  1  0  0  0  0
  5 41  1  0  0  0  0
  6 42  1  0  0  0  0
  6 43  1  0  0  0  0
  7 44  1  0  0  0  0
  8 45  1  0  0  0  0
  8 46  1  0  0  0  0
  8 47  1  0  0  0  0
  9 48  1  0  0  0  0
  9 49  1  0  0  0  0
 10 50  1  0  0  0  0
 10 51  1  0  0  0  0
 11 52  1  0  0  0  0
 11 53  1  0  0  0  0
 12 54  1  0  0  0  0
 13 55  1  0  0  0  0
 13 56  1  0  0  0  0
 13 57  1  0  0  0  0
 14 58  1  0  0  0  0
 14 59  1  0  0  0  0
 15 60  1  0  0  0  0
 15 61  1  0  0  0  0
 16 62  1  0  0  0  0
 16 63  1  0  0  0  0
 18 64  1  0  0  0  0
 18 65  1  0  0  0  0
 18 66  1  0  0  0  0
 19 67  1  0  0  0  0
 19 68  1  0  0  0  0
 20 69  1  0  0  0  0
 20 70  1  0  0  0  0
 22 71  1  0  0  0  0
 24 72  1  0  0  0  0
 26 73  1  0  0  0  0
 26 74  1  0  0  0  0
 26 75  1  0  0  0  0
 28 76  1  0  0  0  0
 28 77  1  0  0  0  0
 28 78  1  0  0  0  0
M  END
>  <InChIKey>
InChI=1S/C28H48O2/c1-20(2)11-8-12-21(3)13-9-14-22(4)15-10-17-28(7)18-16-25-19-26(29)23(5)24(6)27(25)30-28/h19-22,29H,8-18H2,1-7H3

>  <CASRN>
1406-66-2

> <Outcome>
0

>  <Index>
2629

>  <StandardizerResult>
Dearomatize (ID: Dearomatize)
Clear Stereo (ID: ClearStereo)
Wedge Clean (ID: WedgeClean)
Mesomerize (ID: Mesomerize)
Tautomerize (ID: Tautomerize)
Aromatize (ID: Aromatize)
Add Explicit Hydrogens (ID: AddExplicitH)
Neutralize (ID: Neutralize)
Clean 2D (ID: Clean2D)

> <knn Distance>
3.87298345565796

> <CpId>
2629

$$$$
2634
  Mrv1532301301811342D          

 43 44  0  0  0  0            999 V2000
   -2.8709   -1.6813    0.0000 C   0  0  0  0  0  0  0  0  0  0  0  0
   -2.1564   -1.2688    0.0000 N   0  0  0  0  0  0  0  0  0  0  0  0
   -2.1564   -0.4438    0.0000 C   0  0  0  0  0  0  0  0  0  0  0  0
   -1.4419   -1.6813    0.0000 C   0  0  0  0  0  0  0  0  0  0  0  0
   -0.7275   -1.2688    0.0000 C   0  0  0  0  0  0  0  0  0  0  0  0
   -0.0130   -1.6813    0.0000 O   0  0  0  0  0  0  0  0  0  0  0  0
    0.7015   -1.2688    0.0000 C   0  0  0  0  0  0  0  0  0  0  0  0
    1.4159   -1.6813    0.0000 C   0  0  0  0  0  0  0  0  0  0  0  0
    2.1304   -1.2688    0.0000 C   0  0  0  0  0  0  0  0  0  0  0  0
    2.8449   -1.6813    0.0000 C   0  0  0  0  0  0  0  0  0  0  0  0
    2.8449   -2.5063    0.0000 C   0  0  0  0  0  0  0  0  0  0  0  0
    2.1304   -2.9188    0.0000 C   0  0  0  0  0  0  0  0  0  0  0  0
    1.4159   -2.5063    0.0000 C   0  0  0  0  0  0  0  0  0  0  0  0
    0.7015   -0.4438    0.0000 C   0  0  0  0  0  0  0  0  0  0  0  0
   -0.0130   -0.0313    0.0000 C   0  0  0  0  0  0  0  0  0  0  0  0
   -0.0130    0.7937    0.0000 C   0  0  0  0  0  0  0  0  0  0  0  0
    0.7015    1.2062    0.0000 C   0  0  0  0  0  0  0  0  0  0  0  0
    1.4159    0.7937    0.0000 C   0  0  0  0  0  0  0  0  0  0  0  0
    1.4159   -0.0313    0.0000 C   0  0  0  0  0  0  0  0  0  0  0  0
    2.1304   -0.4438    0.0000 C   0  0  0  0  0  0  0  0  0  0  0  0
   -3.2834   -0.9668    0.0000 H   0  0  0  0  0  0  0  0  0  0  0  0
   -3.5853   -2.0938    0.0000 H   0  0  0  0  0  0  0  0  0  0  0  0
   -2.4584   -2.3958    0.0000 H   0  0  0  0  0  0  0  0  0  0  0  0
   -1.3314   -0.4438    0.0000 H   0  0  0  0  0  0  0  0  0  0  0  0
   -2.1564    0.3812    0.0000 H   0  0  0  0  0  0  0  0  0  0  0  0
   -2.9814   -0.4438    0.0000 H   0  0  0  0  0  0  0  0  0  0  0  0
   -1.8122   -2.4185    0.0000 H   0  0  0  0  0  0  0  0  0  0  0  0
   -1.0717   -2.4185    0.0000 H   0  0  0  0  0  0  0  0  0  0  0  0
   -0.3572   -0.5315    0.0000 H   0  0  0  0  0  0  0  0  0  0  0  0
   -1.0977   -0.5315    0.0000 H   0  0  0  0  0  0  0  0  0  0  0  0
    0.7015   -2.0938    0.0000 H   0  0  0  0  0  0  0  0  0  0  0  0
    1.4159   -0.8563    0.0000 H   0  0  0  0  0  0  0  0  0  0  0  0
    3.5594   -1.2688    0.0000 H   0  0  0  0  0  0  0  0  0  0  0  0
    3.5594   -2.9188    0.0000 H   0  0  0  0  0  0  0  0  0  0  0  0
    2.1304   -3.7438    0.0000 H   0  0  0  0  0  0  0  0  0  0  0  0
    1.0034   -3.2208    0.0000 H   0  0  0  0  0  0  0  0  0  0  0  0
   -0.8008    0.2136    0.0000 H   0  0  0  0  0  0  0  0  0  0  0  0
   -0.7275    1.2062    0.0000 H   0  0  0  0  0  0  0  0  0  0  0  0
    0.7015    2.0312    0.0000 H   0  0  0  0  0  0  0  0  0  0  0  0
    2.1304    1.2062    0.0000 H   0  0  0  0  0  0  0  0  0  0  0  0
    2.8449   -0.8563    0.0000 H   0  0  0  0  0  0  0  0  0  0  0  0
    2.8449   -0.0313    0.0000 H   0  0  0  0  0  0  0  0  0  0  0  0
    2.1304    0.3812    0.0000 H   0  0  0  0  0  0  0  0  0  0  0  0
  1  2  1  0  0  0  0
  2  3  1  0  0  0  0
  2  4  1  0  0  0  0
  4  5  1  0  0  0  0
  5  6  1  0  0  0  0
  6  7  1  0  0  0  0
  7  8  1  0  0  0  0
  8  9  4  0  0  0  0
  9 10  4  0  0  0  0
 10 11  4  0  0  0  0
 11 12  4  0  0  0  0
 12 13  4  0  0  0  0
  8 13  4  0  0  0  0
  7 14  1  0  0  0  0
 14 15  4  0  0  0  0
 15 16  4  0  0  0  0
 16 17  4  0  0  0  0
 17 18  4  0  0  0  0
 18 19  4  0  0  0  0
 14 19  4  0  0  0  0
 19 20  1  0  0  0  0
  1 21  1  0  0  0  0
  1 22  1  0  0  0  0
  1 23  1  0  0  0  0
  3 24  1  0  0  0  0
  3 25  1  0  0  0  0
  3 26  1  0  0  0  0
  4 27  1  0  0  0  0
  4 28  1  0  0  0  0
  5 29  1  0  0  0  0
  5 30  1  0  0  0  0
  7 31  1  0  0  0  0
  9 32  1  0  0  0  0
 10 33  1  0  0  0  0
 11 34  1  0  0  0  0
 12 35  1  0  0  0  0
 13 36  1  0  0  0  0
 15 37  1  0  0  0  0
 16 38  1  0  0  0  0
 17 39  1  0  0  0  0
 18 40  1  0  0  0  0
 20 41  1  0  0  0  0
 20 42  1  0  0  0  0
 20 43  1  0  0  0  0
M  END
>  <InChIKey>
InChI=1S/C18H23NO/c1-15-9-7-8-12-17(15)18(20-14-13-19(2)3)16-10-5-4-6-11-16/h4-12,18H,13-14H2,1-3H3

>  <CASRN>
83-98-7

> <Outcome>
0

>  <Index>
2634

>  <StandardizerResult>
Dearomatize (ID: Dearomatize)
Clear Stereo (ID: ClearStereo)
Wedge Clean (ID: WedgeClean)
Mesomerize (ID: Mesomerize)
Tautomerize (ID: Tautomerize)
Aromatize (ID: Aromatize)
Add Explicit Hydrogens (ID: AddExplicitH)
Neutralize (ID: Neutralize)
Clean 2D (ID: Clean2D)

> <knn Distance>
3.87298345565796

> <CpId>
2634

$$$$
2643
  Mrv1532301301811342D          

 24 26  0  0  0  0            999 V2000
    1.4289    2.4750    0.0000 C   0  0  0  0  0  0  0  0  0  0  0  0
    2.1434    2.0625    0.0000 O   0  0  0  0  0  0  0  0  0  0  0  0
    2.1434    1.2375    0.0000 C   0  0  0  0  0  0  0  0  0  0  0  0
    2.8579    0.8250    0.0000 C   0  0  0  0  0  0  0  0  0  0  0  0
    3.6425    1.0799    0.0000 O   0  0  0  0  0  0  0  0  0  0  0  0
    4.1274    0.4125    0.0000 C   0  0  0  0  0  0  0  0  0  0  0  0
    3.6425   -0.2549    0.0000 C   0  0  0  0  0  0  0  0  0  0  0  0
    2.8579    0.0000    0.0000 C   0  0  0  0  0  0  0  0  0  0  0  0
    2.1434   -0.4125    0.0000 C   0  0  0  0  0  0  0  0  0  0  0  0
    1.4289    0.0000    0.0000 C   0  0  0  0  0  0  0  0  0  0  0  0
    0.7145   -0.4125    0.0000 C   0  0  0  0  0  0  0  0  0  0  0  0
   -0.0000    0.0000    0.0000 C   0  0  0  0  0  0  0  0  0  0  0  0
   -0.0000    0.8250    0.0000 C   0  0  0  0  0  0  0  0  0  0  0  0
   -0.7145    1.2375    0.0000 O   0  0  0  0  0  0  0  0  0  0  0  0
    0.7145    1.2375    0.0000 O   0  0  0  0  0  0  0  0  0  0  0  0
    1.4289    0.8250    0.0000 C   0  0  0  0  0  0  0  0  0  0  0  0
    1.8414    3.1895    0.0000 H   0  0  0  0  0  0  0  0  0  0  0  0
    0.7145    2.8875    0.0000 H   0  0  0  0  0  0  0  0  0  0  0  0
    1.0164    1.7605    0.0000 H   0  0  0  0  0  0  0  0  0  0  0  0
    4.9524    0.4125    0.0000 H   0  0  0  0  0  0  0  0  0  0  0  0
    3.8974   -1.0396    0.0000 H   0  0  0  0  0  0  0  0  0  0  0  0
    2.1434   -1.2375    0.0000 H   0  0  0  0  0  0  0  0  0  0  0  0
    0.7145   -1.2375    0.0000 H   0  0  0  0  0  0  0  0  0  0  0  0
   -0.7145   -0.4125    0.0000 H   0  0  0  0  0  0  0  0  0  0  0  0
  1  2  1  0  0  0  0
  2  3  1  0  0  0  0
  3  4  4  0  0  0  0
  4  5  4  0  0  0  0
  5  6  4  0  0  0  0
  6  7  4  0  0  0  0
  7  8  4  0  0  0  0
  4  8  4  0  0  0  0
  8  9  4  0  0  0  0
  9 10  4  0  0  0  0
 10 11  1  0  0  0  0
 11 12  2  0  0  0  0
 12 13  1  0  0  0  0
 13 14  2  0  0  0  0
 13 15  1  0  0  0  0
 15 16  1  0  0  0  0
  3 16  4  0  0  0  0
 10 16  4  0  0  0  0
  1 17  1  0  0  0  0
  1 18  1  0  0  0  0
  1 19  1  0  0  0  0
  6 20  1  0  0  0  0
  7 21  1  0  0  0  0
  9 22  1  0  0  0  0
 11 23  1  0  0  0  0
 12 24  1  0  0  0  0
M  END
>  <InChIKey>
InChI=1S/C12H8O4/c1-14-12-10-8(4-5-15-10)6-7-2-3-9(13)16-11(7)12/h2-6H,1H3

>  <CASRN>
298-81-7

> <Outcome>
0

>  <Index>
2643

>  <StandardizerResult>
Dearomatize (ID: Dearomatize)
Clear Stereo (ID: ClearStereo)
Wedge Clean (ID: WedgeClean)
Mesomerize (ID: Mesomerize)
Tautomerize (ID: Tautomerize)
Aromatize (ID: Aromatize)
Add Explicit Hydrogens (ID: AddExplicitH)
Neutralize (ID: Neutralize)
Clean 2D (ID: Clean2D)

> <knn Distance>
3.87298345565796

> <CpId>
2643

$$$$
2649
  Mrv1532301301811342D          

 72 74  0  0  0  0            999 V2000
    4.7442   -0.8659    0.0000 C   0  0  0  0  0  0  0  0  0  0  0  0
    5.4586   -1.2784    0.0000 C   0  0  0  0  0  0  0  0  0  0  0  0
    5.4586   -2.1034    0.0000 C   0  0  0  0  0  0  0  0  0  0  0  0
    6.1731   -0.8659    0.0000 C   0  0  0  0  0  0  0  0  0  0  0  0
    6.8876   -1.2784    0.0000 C   0  0  0  0  0  0  0  0  0  0  0  0
    7.6020   -0.8659    0.0000 C   0  0  0  0  0  0  0  0  0  0  0  0
    8.3165   -1.2784    0.0000 C   0  0  0  0  0  0  0  0  0  0  0  0
    8.3165   -2.1034    0.0000 C   0  0  0  0  0  0  0  0  0  0  0  0
    9.0310   -0.8659    0.0000 C   0  0  0  0  0  0  0  0  0  0  0  0
    9.1172   -0.0454    0.0000 C   0  0  0  0  0  0  0  0  0  0  0  0
    9.9242    0.1261    0.0000 C   0  0  0  0  0  0  0  0  0  0  0  0
   10.3367   -0.5883    0.0000 C   0  0  0  0  0  0  0  0  0  0  0  0
   11.1437   -0.7599    0.0000 C   0  0  0  0  0  0  0  0  0  0  0  0
   11.3986   -1.5445    0.0000 C   0  0  0  0  0  0  0  0  0  0  0  0
   10.8466   -2.1576    0.0000 C   0  0  0  0  0  0  0  0  0  0  0  0
   10.0396   -1.9860    0.0000 C   0  0  0  0  0  0  0  0  0  0  0  0
    9.7847   -1.2014    0.0000 C   0  0  0  0  0  0  0  0  0  0  0  0
    9.1716   -1.7535    0.0000 C   0  0  0  0  0  0  0  0  0  0  0  0
   11.6957   -0.1468    0.0000 C   0  0  0  0  0  0  0  0  0  0  0  0
   11.4407    0.6379    0.0000 C   0  0  0  0  0  0  0  0  0  0  0  0
   11.9928    1.2510    0.0000 C   0  0  0  0  0  0  0  0  0  0  0  0
   11.7378    2.0356    0.0000 C   0  0  0  0  0  0  0  0  0  0  0  0
   12.2899    2.6487    0.0000 C   0  0  0  0  0  0  0  0  0  0  0  0
   12.0349    3.4333    0.0000 O   0  0  0  0  0  0  0  0  0  0  0  0
   13.0968    2.4771    0.0000 C   0  0  0  0  0  0  0  0  0  0  0  0
   13.3518    1.6925    0.0000 C   0  0  0  0  0  0  0  0  0  0  0  0
   12.7998    1.0794    0.0000 C   0  0  0  0  0  0  0  0  0  0  0  0
   13.0547    0.2948    0.0000 C   0  0  0  0  0  0  0  0  0  0  0  0
    5.1567   -0.1514    0.0000 H   0  0  0  0  0  0  0  0  0  0  0  0
    4.0297   -0.4534    0.0000 H   0  0  0  0  0  0  0  0  0  0  0  0
    4.3317   -1.5803    0.0000 H   0  0  0  0  0  0  0  0  0  0  0  0
    4.7442   -1.6909    0.0000 H   0  0  0  0  0  0  0  0  0  0  0  0
    4.8753   -2.6867    0.0000 H   0  0  0  0  0  0  0  0  0  0  0  0
    5.8711   -2.8178    0.0000 H   0  0  0  0  0  0  0  0  0  0  0  0
    6.2555   -1.8898    0.0000 H   0  0  0  0  0  0  0  0  0  0  0  0
    6.5434   -0.1286    0.0000 H   0  0  0  0  0  0  0  0  0  0  0  0
    5.8028   -0.1286    0.0000 H   0  0  0  0  0  0  0  0  0  0  0  0
    7.3844   -1.9370    0.0000 H   0  0  0  0  0  0  0  0  0  0  0  0
    6.8876   -0.4534    0.0000 H   0  0  0  0  0  0  0  0  0  0  0  0
    8.2340   -0.3356    0.0000 H   0  0  0  0  0  0  0  0  0  0  0  0
    7.7453   -0.0534    0.0000 H   0  0  0  0  0  0  0  0  0  0  0  0
    7.6020   -1.6909    0.0000 H   0  0  0  0  0  0  0  0  0  0  0  0
    7.7129   -2.6658    0.0000 H   0  0  0  0  0  0  0  0  0  0  0  0
    8.4037   -2.9237    0.0000 H   0  0  0  0  0  0  0  0  0  0  0  0
    9.0249   -2.5263    0.0000 H   0  0  0  0  0  0  0  0  0  0  0  0
    9.7454   -0.4534    0.0000 H   0  0  0  0  0  0  0  0  0  0  0  0
    9.1976    0.7757    0.0000 H   0  0  0  0  0  0  0  0  0  0  0  0
    8.6348    0.6239    0.0000 H   0  0  0  0  0  0  0  0  0  0  0  0
   10.5743    0.6341    0.0000 H   0  0  0  0  0  0  0  0  0  0  0  0
    9.8666    0.9491    0.0000 H   0  0  0  0  0  0  0  0  0  0  0  0
   10.5916   -1.3730    0.0000 H   0  0  0  0  0  0  0  0  0  0  0  0
   12.0427   -2.0599    0.0000 H   0  0  0  0  0  0  0  0  0  0  0  0
   12.1967   -1.3356    0.0000 H   0  0  0  0  0  0  0  0  0  0  0  0
   10.7222   -2.9732    0.0000 H   0  0  0  0  0  0  0  0  0  0  0  0
   11.4265   -2.7443    0.0000 H   0  0  0  0  0  0  0  0  0  0  0  0
    9.5802   -2.6713    0.0000 H   0  0  0  0  0  0  0  0  0  0  0  0
   10.1377   -2.8052    0.0000 H   0  0  0  0  0  0  0  0  0  0  0  0
    8.6045   -1.1542    0.0000 H   0  0  0  0  0  0  0  0  0  0  0  0
    8.3651   -1.5796    0.0000 H   0  0  0  0  0  0  0  0  0  0  0  0
    9.6103   -2.4521    0.0000 H   0  0  0  0  0  0  0  0  0  0  0  0
   12.5027   -0.3183    0.0000 H   0  0  0  0  0  0  0  0  0  0  0  0
   11.1035    1.3908    0.0000 H   0  0  0  0  0  0  0  0  0  0  0  0
   11.4945    2.8239    0.0000 H   0  0  0  0  0  0  0  0  0  0  0  0
   10.9363    2.2308    0.0000 H   0  0  0  0  0  0  0  0  0  0  0  0
   12.8419    3.2618    0.0000 H   0  0  0  0  0  0  0  0  0  0  0  0
   11.7770    4.2169    0.0000 H   0  0  0  0  0  0  0  0  0  0  0  0
   13.9213    2.4483    0.0000 H   0  0  0  0  0  0  0  0  0  0  0  0
   13.7470    2.9851    0.0000 H   0  0  0  0  0  0  0  0  0  0  0  0
   13.7636    0.9776    0.0000 H   0  0  0  0  0  0  0  0  0  0  0  0
   14.1321    1.4247    0.0000 H   0  0  0  0  0  0  0  0  0  0  0  0
   13.6988   -0.2206    0.0000 H   0  0  0  0  0  0  0  0  0  0  0  0
   13.8528    0.5037    0.0000 H   0  0  0  0  0  0  0  0  0  0  0  0
  1  2  1  0  0  0  0
  2  3  1  0  0  0  0
  2  4  1  0  0  0  0
  4  5  1  0  0  0  0
  5  6  1  0  0  0  0
  6  7  1  0  0  0  0
  7  8  1  0  0  0  0
  7  9  1  0  0  0  0
  9 10  1  0  0  0  0
 10 11  1  0  0  0  0
 11 12  1  0  0  0  0
 12 13  1  0  0  0  0
 13 14  1  0  0  0  0
 14 15  1  0  0  0  0
 15 16  1  0  0  0  0
 16 17  1  0  0  0  0
  9 17  1  0  0  0  0
 12 17  1  0  0  0  0
 17 18  1  0  0  0  0
 13 19  2  0  0  0  0
 19 20  1  4  0  0  0
 20 21  2  0  0  0  0
 21 22  1  4  0  0  0
 22 23  1  0  0  0  0
 23 24  1  0  0  0  0
 23 25  1  0  0  0  0
 25 26  1  0  0  0  0
 26 27  1  0  0  0  0
 21 27  1  0  0  0  0
 27 28  2  0  0  0  0
  1 29  1  0  0  0  0
  1 30  1  0  0  0  0
  1 31  1  0  0  0  0
  2 32  1  0  0  0  0
  3 33  1  0  0  0  0
  3 34  1  0  0  0  0
  3 35  1  0  0  0  0
  4 36  1  0  0  0  0
  4 37  1  0  0  0  0
  5 38  1  0  0  0  0
  5 39  1  0  0  0  0
  6 40  1  0  0  0  0
  6 41  1  0  0  0  0
  7 42  1  0  0  0  0
  8 43  1  0  0  0  0
  8 44  1  0  0  0  0
  8 45  1  0  0  0  0
  9 46  1  0  0  0  0
 10 47  1  0  0  0  0
 10 48  1  0  0  0  0
 11 49  1  0  0  0  0
 11 50  1  0  0  0  0
 12 51  1  0  0  0  0
 14 52  1  0  0  0  0
 14 53  1  0  0  0  0
 15 54  1  0  0  0  0
 15 55  1  0  0  0  0
 16 56  1  0  0  0  0
 16 57  1  0  0  0  0
 18 58  1  0  0  0  0
 18 59  1  0  0  0  0
 18 60  1  0  0  0  0
 19 61  1  0  0  0  0
 20 62  1  0  0  0  0
 22 63  1  0  0  0  0
 22 64  1  0  0  0  0
 23 65  1  0  0  0  0
 24 66  1  0  0  0  0
 25 67  1  0  0  0  0
 25 68  1  0  0  0  0
 26 69  1  0  0  0  0
 26 70  1  0  0  0  0
 28 71  1  0  0  0  0
 28 72  1  0  0  0  0
M  END
>  <InChIKey>
InChI=1S/C27H44O/c1-19(2)8-6-9-21(4)25-15-16-26-22(10-7-17-27(25,26)5)12-13-23-18-24(28)14-11-20(23)3/h12-13,19,21,24-26,28H,3,6-11,14-18H2,1-2,4-5H3

>  <CASRN>
67-97-0 1406-16-2

> <Outcome>
0

>  <Index>
2649

>  <StandardizerResult>
Clear Stereo (ID: ClearStereo)
Wedge Clean (ID: WedgeClean)
Mesomerize (ID: Mesomerize)
Tautomerize (ID: Tautomerize)
Add Explicit Hydrogens (ID: AddExplicitH)
Neutralize (ID: Neutralize)
Clean 2D (ID: Clean2D)

> <knn Distance>
3.87298345565796

> <CpId>
2649

$$$$
2738
  Mrv1532301301811342D          

 58 61  0  0  0  0            999 V2000
    6.9943   -2.0769    0.0000 C   0  0  0  0  0  0  0  0  0  0  0  0
    7.7087   -2.4894    0.0000 C   0  0  0  0  0  0  0  0  0  0  0  0
    8.4232   -2.0769    0.0000 C   0  0  0  0  0  0  0  0  0  0  0  0
    9.1377   -2.4894    0.0000 C   0  0  0  0  0  0  0  0  0  0  0  0
    9.8522   -2.0769    0.0000 C   0  0  0  0  0  0  0  0  0  0  0  0
    9.8522   -1.2519    0.0000 O   0  0  0  0  0  0  0  0  0  0  0  0
   10.5666   -2.4894    0.0000 O   0  0  0  0  0  0  0  0  0  0  0  0
   11.2811   -2.0769    0.0000 C   0  0  0  0  0  0  0  0  0  0  0  0
   11.3673   -1.2564    0.0000 C   0  0  0  0  0  0  0  0  0  0  0  0
   12.1743   -1.0849    0.0000 C   0  0  0  0  0  0  0  0  0  0  0  0
   12.5868   -1.7994    0.0000 C   0  0  0  0  0  0  0  0  0  0  0  0
   13.3938   -1.9709    0.0000 C   0  0  0  0  0  0  0  0  0  0  0  0
   13.9458   -1.3578    0.0000 C   0  0  0  0  0  0  0  0  0  0  0  0
   14.7528   -1.5293    0.0000 C   0  0  0  0  0  0  0  0  0  0  0  0
   15.0077   -2.3140    0.0000 C   0  0  0  0  0  0  0  0  0  0  0  0
   15.8147   -2.4855    0.0000 C   0  0  0  0  0  0  0  0  0  0  0  0
   16.0696   -3.2701    0.0000 C   0  0  0  0  0  0  0  0  0  0  0  0
   16.8766   -3.4416    0.0000 O   0  0  0  0  0  0  0  0  0  0  0  0
   15.5176   -3.8832    0.0000 C   0  0  0  0  0  0  0  0  0  0  0  0
   14.7106   -3.7117    0.0000 C   0  0  0  0  0  0  0  0  0  0  0  0
   14.4557   -2.9271    0.0000 C   0  0  0  0  0  0  0  0  0  0  0  0
   13.6487   -2.7555    0.0000 C   0  0  0  0  0  0  0  0  0  0  0  0
   13.0967   -3.3686    0.0000 C   0  0  0  0  0  0  0  0  0  0  0  0
   12.2897   -3.1971    0.0000 C   0  0  0  0  0  0  0  0  0  0  0  0
   12.0348   -2.4125    0.0000 C   0  0  0  0  0  0  0  0  0  0  0  0
   11.4217   -2.9645    0.0000 C   0  0  0  0  0  0  0  0  0  0  0  0
    7.4068   -1.3624    0.0000 H   0  0  0  0  0  0  0  0  0  0  0  0
    6.2798   -1.6644    0.0000 H   0  0  0  0  0  0  0  0  0  0  0  0
    6.5818   -2.7914    0.0000 H   0  0  0  0  0  0  0  0  0  0  0  0
    7.3385   -3.2267    0.0000 H   0  0  0  0  0  0  0  0  0  0  0  0
    8.0790   -3.2267    0.0000 H   0  0  0  0  0  0  0  0  0  0  0  0
    8.7935   -1.3397    0.0000 H   0  0  0  0  0  0  0  0  0  0  0  0
    8.0530   -1.3397    0.0000 H   0  0  0  0  0  0  0  0  0  0  0  0
    8.7674   -3.2267    0.0000 H   0  0  0  0  0  0  0  0  0  0  0  0
    9.5079   -3.2267    0.0000 H   0  0  0  0  0  0  0  0  0  0  0  0
   10.5892   -1.6276    0.0000 H   0  0  0  0  0  0  0  0  0  0  0  0
   11.4069   -0.4324    0.0000 H   0  0  0  0  0  0  0  0  0  0  0  0
   10.8343   -0.6268    0.0000 H   0  0  0  0  0  0  0  0  0  0  0  0
   12.8244   -0.5770    0.0000 H   0  0  0  0  0  0  0  0  0  0  0  0
   12.1168   -0.2619    0.0000 H   0  0  0  0  0  0  0  0  0  0  0  0
   12.8417   -2.5840    0.0000 H   0  0  0  0  0  0  0  0  0  0  0  0
   13.1388   -1.1863    0.0000 H   0  0  0  0  0  0  0  0  0  0  0  0
   14.3830   -0.6582    0.0000 H   0  0  0  0  0  0  0  0  0  0  0  0
   13.8310   -0.5408    0.0000 H   0  0  0  0  0  0  0  0  0  0  0  0
   15.5778   -1.5301    0.0000 H   0  0  0  0  0  0  0  0  0  0  0  0
   15.3749   -0.9875    0.0000 H   0  0  0  0  0  0  0  0  0  0  0  0
   16.3667   -1.8724    0.0000 H   0  0  0  0  0  0  0  0  0  0  0  0
   17.1315   -4.2263    0.0000 H   0  0  0  0  0  0  0  0  0  0  0  0
   15.7725   -4.6678    0.0000 H   0  0  0  0  0  0  0  0  0  0  0  0
   14.1586   -4.3248    0.0000 H   0  0  0  0  0  0  0  0  0  0  0  0
   13.9037   -3.5402    0.0000 H   0  0  0  0  0  0  0  0  0  0  0  0
   12.6595   -4.0683    0.0000 H   0  0  0  0  0  0  0  0  0  0  0  0
   13.2115   -4.1856    0.0000 H   0  0  0  0  0  0  0  0  0  0  0  0
   11.5590   -3.5802    0.0000 H   0  0  0  0  0  0  0  0  0  0  0  0
   12.0121   -3.9740    0.0000 H   0  0  0  0  0  0  0  0  0  0  0  0
   10.7467   -2.4901    0.0000 H   0  0  0  0  0  0  0  0  0  0  0  0
   10.6113   -3.1189    0.0000 H   0  0  0  0  0  0  0  0  0  0  0  0
   10.9685   -3.6539    0.0000 H   0  0  0  0  0  0  0  0  0  0  0  0
  1  2  1  0  0  0  0
  2  3  1  0  0  0  0
  3  4  1  0  0  0  0
  4  5  1  0  0  0  0
  5  6  2  0  0  0  0
  5  7  1  0  0  0  0
  7  8  1  0  0  0  0
  8  9  1  0  0  0  0
  9 10  1  0  0  0  0
 10 11  1  0  0  0  0
 11 12  1  0  0  0  0
 12 13  1  0  0  0  0
 13 14  1  0  0  0  0
 14 15  1  0  0  0  0
 15 16  4  0  0  0  0
 16 17  4  0  0  0  0
 17 18  1  0  0  0  0
 17 19  4  0  0  0  0
 19 20  4  0  0  0  0
 20 21  4  0  0  0  0
 15 21  4  0  0  0  0
 21 22  1  0  0  0  0
 12 22  1  0  0  0  0
 22 23  1  0  0  0  0
 23 24  1  0  0  0  0
 24 25  1  0  0  0  0
  8 25  1  0  0  0  0
 11 25  1  0  0  0  0
 25 26  1  0  0  0  0
  1 27  1  0  0  0  0
  1 28  1  0  0  0  0
  1 29  1  0  0  0  0
  2 30  1  0  0  0  0
  2 31  1  0  0  0  0
  3 32  1  0  0  0  0
  3 33  1  0  0  0  0
  4 34  1  0  0  0  0
  4 35  1  0  0  0  0
  8 36  1  0  0  0  0
  9 37  1  0  0  0  0
  9 38  1  0  0  0  0
 10 39  1  0  0  0  0
 10 40  1  0  0  0  0
 11 41  1  0  0  0  0
 12 42  1  0  0  0  0
 13 43  1  0  0  0  0
 13 44  1  0  0  0  0
 14 45  1  0  0  0  0
 14 46  1  0  0  0  0
 16 47  1  0  0  0  0
 18 48  1  0  0  0  0
 19 49  1  0  0  0  0
 20 50  1  0  0  0  0
 22 51  1  0  0  0  0
 23 52  1  0  0  0  0
 23 53  1  0  0  0  0
 24 54  1  0  0  0  0
 24 55  1  0  0  0  0
 26 56  1  0  0  0  0
 26 57  1  0  0  0  0
 26 58  1  0  0  0  0
M  END
>  <InChIKey>
InChI=1S/C23H32O3/c1-3-4-5-22(25)26-21-11-10-20-19-8-6-15-14-16(24)7-9-17(15)18(19)12-13-23(20,21)2/h7,9,14,18-21,24H,3-6,8,10-13H2,1-2H3

>  <CASRN>
979-32-8

> <Outcome>
0

>  <Index>
2738

>  <StandardizerResult>
Dearomatize (ID: Dearomatize)
Clear Stereo (ID: ClearStereo)
Wedge Clean (ID: WedgeClean)
Mesomerize (ID: Mesomerize)
Tautomerize (ID: Tautomerize)
Aromatize (ID: Aromatize)
Add Explicit Hydrogens (ID: AddExplicitH)
Neutralize (ID: Neutralize)
Clean 2D (ID: Clean2D)

> <knn Distance>
3.87298345565796

> <CpId>
2738

$$$$
2765
  Mrv1532301301811342D          

 36 35  0  0  0  0            999 V2000
    5.4730    3.9859    0.0000 C   0  0  0  0  0  0  0  0  0  0  0  0
    6.1875    3.5734    0.0000 C   0  0  0  0  0  0  0  0  0  0  0  0
    6.9020    3.9859    0.0000 C   0  0  0  0  0  0  0  0  0  0  0  0
    7.6164    3.5734    0.0000 C   0  0  0  0  0  0  0  0  0  0  0  0
    8.3309    3.9859    0.0000 C   0  0  0  0  0  0  0  0  0  0  0  0
    9.0454    3.5734    0.0000 C   0  0  0  0  0  0  0  0  0  0  0  0
    9.7599    3.9859    0.0000 O   0  0  0  0  0  0  0  0  0  0  0  0
   10.4743    3.5734    0.0000 C   0  0  0  0  0  0  0  0  0  0  0  0
   10.4743    2.7484    0.0000 O   0  0  0  0  0  0  0  0  0  0  0  0
   11.1888    3.9859    0.0000 C   0  0  0  0  0  0  0  0  0  0  0  0
   11.9033    3.5734    0.0000 C   0  0  0  0  0  0  0  0  0  0  0  0
   12.6177    3.9859    0.0000 C   0  0  0  0  0  0  0  0  0  0  0  0
   12.6177    4.8109    0.0000 O   0  0  0  0  0  0  0  0  0  0  0  0
   13.3322    3.5734    0.0000 C   0  0  0  0  0  0  0  0  0  0  0  0
   14.0467    3.9859    0.0000 N   0  0  0  0  0  0  0  0  0  0  0  0
    5.8855    4.7003    0.0000 H   0  0  0  0  0  0  0  0  0  0  0  0
    4.7586    4.3984    0.0000 H   0  0  0  0  0  0  0  0  0  0  0  0
    5.0605    3.2714    0.0000 H   0  0  0  0  0  0  0  0  0  0  0  0
    5.8172    2.8361    0.0000 H   0  0  0  0  0  0  0  0  0  0  0  0
    6.5578    2.8361    0.0000 H   0  0  0  0  0  0  0  0  0  0  0  0
    7.2722    4.7231    0.0000 H   0  0  0  0  0  0  0  0  0  0  0  0
    6.5317    4.7231    0.0000 H   0  0  0  0  0  0  0  0  0  0  0  0
    7.2462    2.8361    0.0000 H   0  0  0  0  0  0  0  0  0  0  0  0
    7.9867    2.8361    0.0000 H   0  0  0  0  0  0  0  0  0  0  0  0
    8.7012    4.7231    0.0000 H   0  0  0  0  0  0  0  0  0  0  0  0
    7.9607    4.7231    0.0000 H   0  0  0  0  0  0  0  0  0  0  0  0
    8.6751    2.8361    0.0000 H   0  0  0  0  0  0  0  0  0  0  0  0
    9.4156    2.8361    0.0000 H   0  0  0  0  0  0  0  0  0  0  0  0
   11.5591    4.7231    0.0000 H   0  0  0  0  0  0  0  0  0  0  0  0
   10.8185    4.7231    0.0000 H   0  0  0  0  0  0  0  0  0  0  0  0
   11.5330    2.8361    0.0000 H   0  0  0  0  0  0  0  0  0  0  0  0
   12.2735    2.8361    0.0000 H   0  0  0  0  0  0  0  0  0  0  0  0
   12.9619    2.8361    0.0000 H   0  0  0  0  0  0  0  0  0  0  0  0
   13.7025    2.8361    0.0000 H   0  0  0  0  0  0  0  0  0  0  0  0
   14.7612    3.5734    0.0000 H   0  0  0  0  0  0  0  0  0  0  0  0
   14.0467    4.8109    0.0000 H   0  0  0  0  0  0  0  0  0  0  0  0
  1  2  1  0  0  0  0
  2  3  1  0  0  0  0
  3  4  1  0  0  0  0
  4  5  1  0  0  0  0
  5  6  1  0  0  0  0
  6  7  1  0  0  0  0
  7  8  1  0  0  0  0
  8  9  2  0  0  0  0
  8 10  1  0  0  0  0
 10 11  1  0  0  0  0
 11 12  1  0  0  0  0
 12 13  2  0  0  0  0
 12 14  1  0  0  0  0
 14 15  1  0  0  0  0
  1 16  1  0  0  0  0
  1 17  1  0  0  0  0
  1 18  1  0  0  0  0
  2 19  1  0  0  0  0
  2 20  1  0  0  0  0
  3 21  1  0  0  0  0
  3 22  1  0  0  0  0
  4 23  1  0  0  0  0
  4 24  1  0  0  0  0
  5 25  1  0  0  0  0
  5 26  1  0  0  0  0
  6 27  1  0  0  0  0
  6 28  1  0  0  0  0
 10 29  1  0  0  0  0
 10 30  1  0  0  0  0
 11 31  1  0  0  0  0
 11 32  1  0  0  0  0
 14 33  1  0  0  0  0
 14 34  1  0  0  0  0
 15 35  1  0  0  0  0
 15 36  1  0  0  0  0
M  END
>  <InChIKey>
InChI=1S/C11H21NO3/c1-2-3-4-5-8-15-11(14)7-6-10(13)9-12/h2-9,12H2,1H3

>  <CASRN>
140898-91-5

> <Outcome>
0

>  <Index>
2765

>  <StandardizerResult>
Clear Stereo (ID: ClearStereo)
Wedge Clean (ID: WedgeClean)
Mesomerize (ID: Mesomerize)
Tautomerize (ID: Tautomerize)
Add Explicit Hydrogens (ID: AddExplicitH)
Neutralize (ID: Neutralize)
Clean 2D (ID: Clean2D)

> <knn Distance>
3.87298345565796

> <CpId>
2765

$$$$
2783
  Mrv1532301301811342D          

 30 31  0  0  0  0            999 V2000
   -0.7018   -0.3736    0.0000 C   0  0  0  0  0  0  0  0  0  0  0  0
   -0.7018   -1.1986    0.0000 C   0  0  0  0  0  0  0  0  0  0  0  0
   -1.4163   -1.6111    0.0000 C   0  0  0  0  0  0  0  0  0  0  0  0
   -1.4163   -2.4361    0.0000 C   0  0  0  0  0  0  0  0  0  0  0  0
   -0.7018   -2.8486    0.0000 C   0  0  0  0  0  0  0  0  0  0  0  0
   -0.7018   -3.6736    0.0000 Cl  0  0  0  0  0  0  0  0  0  0  0  0
    0.0126   -2.4361    0.0000 C   0  0  0  0  0  0  0  0  0  0  0  0
    0.7271   -2.8486    0.0000 N   0  0  0  0  0  0  0  0  0  0  0  0
    1.4416   -2.4361    0.0000 C   0  0  0  0  0  0  0  0  0  0  0  0
    1.4416   -1.6111    0.0000 C   0  0  0  0  0  0  0  0  0  0  0  0
    2.1560   -1.1986    0.0000 C   0  0  0  0  0  0  0  0  0  0  0  0
    2.8705   -1.6111    0.0000 C   0  0  0  0  0  0  0  0  0  0  0  0
    2.8705   -2.4361    0.0000 C   0  0  0  0  0  0  0  0  0  0  0  0
    2.1560   -2.8486    0.0000 C   0  0  0  0  0  0  0  0  0  0  0  0
    2.1560   -3.6736    0.0000 C   0  0  0  0  0  0  0  0  0  0  0  0
    1.4416   -4.0861    0.0000 O   0  0  0  0  0  0  0  0  0  0  0  0
    2.8705   -4.0861    0.0000 O   0  0  0  0  0  0  0  0  0  0  0  0
    0.0126   -1.6111    0.0000 C   0  0  0  0  0  0  0  0  0  0  0  0
    0.7271   -1.1986    0.0000 Cl  0  0  0  0  0  0  0  0  0  0  0  0
    0.1232   -0.3736    0.0000 H   0  0  0  0  0  0  0  0  0  0  0  0
   -0.7018    0.4514    0.0000 H   0  0  0  0  0  0  0  0  0  0  0  0
   -1.5268   -0.3736    0.0000 H   0  0  0  0  0  0  0  0  0  0  0  0
   -2.1308   -1.1986    0.0000 H   0  0  0  0  0  0  0  0  0  0  0  0
   -2.1308   -2.8486    0.0000 H   0  0  0  0  0  0  0  0  0  0  0  0
    0.7271   -3.6736    0.0000 H   0  0  0  0  0  0  0  0  0  0  0  0
    0.7271   -2.0236    0.0000 H   0  0  0  0  0  0  0  0  0  0  0  0
    2.1560   -0.3736    0.0000 H   0  0  0  0  0  0  0  0  0  0  0  0
    3.5850   -1.1986    0.0000 H   0  0  0  0  0  0  0  0  0  0  0  0
    3.5850   -2.8486    0.0000 H   0  0  0  0  0  0  0  0  0  0  0  0
    1.4416   -4.9111    0.0000 H   0  0  0  0  0  0  0  0  0  0  0  0
  1  2  1  0  0  0  0
  2  3  4  0  0  0  0
  3  4  4  0  0  0  0
  4  5  4  0  0  0  0
  5  6  1  0  0  0  0
  5  7  4  0  0  0  0
  7  8  1  0  0  0  0
  8  9  1  0  0  0  0
  9 10  4  0  0  0  0
 10 11  4  0  0  0  0
 11 12  4  0  0  0  0
 12 13  4  0  0  0  0
 13 14  4  0  0  0  0
  9 14  4  0  0  0  0
 14 15  1  0  0  0  0
 15 16  1  0  0  0  0
 15 17  2  0  0  0  0
  7 18  4  0  0  0  0
  2 18  4  0  0  0  0
 18 19  1  0  0  0  0
  1 20  1  0  0  0  0
  1 21  1  0  0  0  0
  1 22  1  0  0  0  0
  3 23  1  0  0  0  0
  4 24  1  0  0  0  0
  8 25  1  0  0  0  0
 10 26  1  0  0  0  0
 11 27  1  0  0  0  0
 12 28  1  0  0  0  0
 13 29  1  0  0  0  0
 16 30  1  0  0  0  0
M  END
>  <InChIKey>
InChI=1S/C14H11Cl2NO2/c1-8-6-7-10(15)13(12(8)16)17-11-5-3-2-4-9(11)14(18)19/h2-7,17H,1H3,(H,18,19)

>  <CASRN>
644-62-2

> <Outcome>
0

>  <Index>
2783

>  <StandardizerResult>
Dearomatize (ID: Dearomatize)
Clear Stereo (ID: ClearStereo)
Wedge Clean (ID: WedgeClean)
Mesomerize (ID: Mesomerize)
Tautomerize (ID: Tautomerize)
Aromatize (ID: Aromatize)
Add Explicit Hydrogens (ID: AddExplicitH)
Neutralize (ID: Neutralize)
Clean 2D (ID: Clean2D)

> <knn Distance>
3.87298345565796

> <CpId>
2783

$$$$
2792
  Mrv1532301301811342D          

 52 51  0  0  0  0            999 V2000
    2.1644   -2.0236    0.0000 C   0  0  0  0  0  0  0  0  0  0  0  0
    2.4344   -2.8032    0.0000 C   0  0  0  0  0  0  0  0  0  0  0  0
    3.2445   -2.9591    0.0000 C   0  0  0  0  0  0  0  0  0  0  0  0
    3.5146   -3.7387    0.0000 C   0  0  0  0  0  0  0  0  0  0  0  0
    4.3247   -3.8946    0.0000 N   0  0  0  0  0  0  0  0  0  0  0  0
    4.8648   -3.2709    0.0000 C   0  0  0  0  0  0  0  0  0  0  0  0
    5.6749   -3.4268    0.0000 C   0  0  0  0  0  0  0  0  0  0  0  0
    6.2150   -2.8032    0.0000 C   0  0  0  0  0  0  0  0  0  0  0  0
    7.0252   -2.9591    0.0000 C   0  0  0  0  0  0  0  0  0  0  0  0
    4.5948   -4.6741    0.0000 C   0  0  0  0  0  0  0  0  0  0  0  0
    4.0547   -5.2978    0.0000 O   0  0  0  0  0  0  0  0  0  0  0  0
    5.4049   -4.8300    0.0000 O   0  0  0  0  0  0  0  0  0  0  0  0
    5.6749   -5.6096    0.0000 C   0  0  0  0  0  0  0  0  0  0  0  0
    6.4851   -5.7655    0.0000 C   0  0  0  0  0  0  0  0  0  0  0  0
    6.7551   -6.5450    0.0000 N   0  3  0  0  0  0  0  0  0  0  0  0
    5.9756   -6.8151    0.0000 C   0  0  0  0  0  0  0  0  0  0  0  0
    7.5347   -6.2750    0.0000 C   0  0  0  0  0  0  0  0  0  0  0  0
    7.0252   -7.3246    0.0000 C   0  0  0  0  0  0  0  0  0  0  0  0
    7.8353   -7.4805    0.0000 C   0  0  0  0  0  0  0  0  0  0  0  0
    2.9439   -1.7536    0.0000 H   0  0  0  0  0  0  0  0  0  0  0  0
    1.8943   -1.2441    0.0000 H   0  0  0  0  0  0  0  0  0  0  0  0
    1.3848   -2.2937    0.0000 H   0  0  0  0  0  0  0  0  0  0  0  0
    1.6719   -3.1181    0.0000 H   0  0  0  0  0  0  0  0  0  0  0  0
    2.2317   -3.6029    0.0000 H   0  0  0  0  0  0  0  0  0  0  0  0
    4.0071   -2.6442    0.0000 H   0  0  0  0  0  0  0  0  0  0  0  0
    3.4473   -2.1594    0.0000 H   0  0  0  0  0  0  0  0  0  0  0  0
    2.7520   -4.0536    0.0000 H   0  0  0  0  0  0  0  0  0  0  0  0
    3.3118   -4.5384    0.0000 H   0  0  0  0  0  0  0  0  0  0  0  0
    4.9733   -2.4531    0.0000 H   0  0  0  0  0  0  0  0  0  0  0  0
    4.2736   -2.6955    0.0000 H   0  0  0  0  0  0  0  0  0  0  0  0
    5.5664   -4.2447    0.0000 H   0  0  0  0  0  0  0  0  0  0  0  0
    6.2661   -4.0023    0.0000 H   0  0  0  0  0  0  0  0  0  0  0  0
    6.3236   -1.9854    0.0000 H   0  0  0  0  0  0  0  0  0  0  0  0
    5.6238   -2.2278    0.0000 H   0  0  0  0  0  0  0  0  0  0  0  0
    6.8693   -3.7692    0.0000 H   0  0  0  0  0  0  0  0  0  0  0  0
    7.8353   -3.1150    0.0000 H   0  0  0  0  0  0  0  0  0  0  0  0
    7.1811   -2.1490    0.0000 H   0  0  0  0  0  0  0  0  0  0  0  0
    4.9124   -5.9245    0.0000 H   0  0  0  0  0  0  0  0  0  0  0  0
    5.4722   -6.4093    0.0000 H   0  0  0  0  0  0  0  0  0  0  0  0
    7.2476   -5.4506    0.0000 H   0  0  0  0  0  0  0  0  0  0  0  0
    6.6878   -4.9658    0.0000 H   0  0  0  0  0  0  0  0  0  0  0  0
    5.2034   -7.1056    0.0000 H   0  0  0  0  0  0  0  0  0  0  0  0
    5.8339   -7.6278    0.0000 H   0  0  0  0  0  0  0  0  0  0  0  0
    6.6039   -7.3497    0.0000 H   0  0  0  0  0  0  0  0  0  0  0  0
    7.4862   -7.0986    0.0000 H   0  0  0  0  0  0  0  0  0  0  0  0
    8.2771   -6.6347    0.0000 H   0  0  0  0  0  0  0  0  0  0  0  0
    8.1509   -5.7264    0.0000 H   0  0  0  0  0  0  0  0  0  0  0  0
    6.5958   -8.0291    0.0000 H   0  0  0  0  0  0  0  0  0  0  0  0
    7.3590   -8.0790    0.0000 H   0  0  0  0  0  0  0  0  0  0  0  0
    7.9675   -8.2948    0.0000 H   0  0  0  0  0  0  0  0  0  0  0  0
    8.5268   -7.9304    0.0000 H   0  0  0  0  0  0  0  0  0  0  0  0
    8.6333   -7.2713    0.0000 H   0  0  0  0  0  0  0  0  0  0  0  0
  1  2  1  0  0  0  0
  2  3  1  0  0  0  0
  3  4  1  0  0  0  0
  4  5  1  0  0  0  0
  5  6  1  0  0  0  0
  6  7  1  0  0  0  0
  7  8  1  0  0  0  0
  8  9  1  0  0  0  0
  5 10  1  0  0  0  0
 10 11  2  0  0  0  0
 10 12  1  0  0  0  0
 12 13  1  0  0  0  0
 13 14  1  0  0  0  0
 14 15  1  0  0  0  0
 15 16  1  0  0  0  0
 15 17  1  0  0  0  0
 15 18  1  0  0  0  0
 18 19  1  0  0  0  0
  1 20  1  0  0  0  0
  1 21  1  0  0  0  0
  1 22  1  0  0  0  0
  2 23  1  0  0  0  0
  2 24  1  0  0  0  0
  3 25  1  0  0  0  0
  3 26  1  0  0  0  0
  4 27  1  0  0  0  0
  4 28  1  0  0  0  0
  6 29  1  0  0  0  0
  6 30  1  0  0  0  0
  7 31  1  0  0  0  0
  7 32  1  0  0  0  0
  8 33  1  0  0  0  0
  8 34  1  0  0  0  0
  9 35  1  0  0  0  0
  9 36  1  0  0  0  0
  9 37  1  0  0  0  0
 13 38  1  0  0  0  0
 13 39  1  0  0  0  0
 14 40  1  0  0  0  0
 14 41  1  0  0  0  0
 16 42  1  0  0  0  0
 16 43  1  0  0  0  0
 16 44  1  0  0  0  0
 17 45  1  0  0  0  0
 17 46  1  0  0  0  0
 17 47  1  0  0  0  0
 18 48  1  0  0  0  0
 18 49  1  0  0  0  0
 19 50  1  0  0  0  0
 19 51  1  0  0  0  0
 19 52  1  0  0  0  0
M  CHG  1  15   1
M  END
>  <InChIKey>
InChI=1S/C15H33N2O2/c1-6-9-11-16(12-10-7-2)15(18)19-14-13-17(4,5)8-3/h6-14H2,1-5H3/q+1

>  <CASRN>
21962-82-3

> <Outcome>
0

>  <Index>
2792

>  <StandardizerResult>
Clear Stereo (ID: ClearStereo)
Wedge Clean (ID: WedgeClean)
Mesomerize (ID: Mesomerize)
Tautomerize (ID: Tautomerize)
Add Explicit Hydrogens (ID: AddExplicitH)
Clean 2D (ID: Clean2D)

> <knn Distance>
3.87298345565796

> <CpId>
2792

$$$$
2824
  Mrv1532301301811342D          

 17 17  0  0  0  0            999 V2000
   -0.0000    2.4750    0.0000 N   0  0  0  0  0  0  0  0  0  0  0  0
    0.7145    2.0625    0.0000 C   0  0  0  0  0  0  0  0  0  0  0  0
    1.4289    2.4750    0.0000 O   0  0  0  0  0  0  0  0  0  0  0  0
    0.7145    1.2375    0.0000 C   0  0  0  0  0  0  0  0  0  0  0  0
    1.4289    0.8250    0.0000 C   0  0  0  0  0  0  0  0  0  0  0  0
    1.4289   -0.0000    0.0000 C   0  0  0  0  0  0  0  0  0  0  0  0
    0.7145   -0.4125    0.0000 C   0  0  0  0  0  0  0  0  0  0  0  0
   -0.0000   -0.0000    0.0000 C   0  0  0  0  0  0  0  0  0  0  0  0
   -0.0000    0.8250    0.0000 C   0  0  0  0  0  0  0  0  0  0  0  0
   -0.7145    1.2375    0.0000 O   0  0  0  0  0  0  0  0  0  0  0  0
   -0.0000    3.3000    0.0000 H   0  0  0  0  0  0  0  0  0  0  0  0
   -0.7145    2.0625    0.0000 H   0  0  0  0  0  0  0  0  0  0  0  0
    2.1434    1.2375    0.0000 H   0  0  0  0  0  0  0  0  0  0  0  0
    2.1434   -0.4125    0.0000 H   0  0  0  0  0  0  0  0  0  0  0  0
    0.7145   -1.2375    0.0000 H   0  0  0  0  0  0  0  0  0  0  0  0
   -0.7145   -0.4125    0.0000 H   0  0  0  0  0  0  0  0  0  0  0  0
   -1.4289    0.8250    0.0000 H   0  0  0  0  0  0  0  0  0  0  0  0
  1  2  1  0  0  0  0
  2  3  2  0  0  0  0
  2  4  1  0  0  0  0
  4  5  4  0  0  0  0
  5  6  4  0  0  0  0
  6  7  4  0  0  0  0
  7  8  4  0  0  0  0
  8  9  4  0  0  0  0
  4  9  4  0  0  0  0
  9 10  1  0  0  0  0
  1 11  1  0  0  0  0
  1 12  1  0  0  0  0
  5 13  1  0  0  0  0
  6 14  1  0  0  0  0
  7 15  1  0  0  0  0
  8 16  1  0  0  0  0
 10 17  1  0  0  0  0
M  END
>  <InChIKey>
InChI=1S/C7H7NO2/c8-7(10)5-3-1-2-4-6(5)9/h1-4,9H,(H2,8,10)

>  <CASRN>
65-45-2

> <Outcome>
0

>  <Index>
2824

>  <StandardizerResult>
Dearomatize (ID: Dearomatize)
Clear Stereo (ID: ClearStereo)
Wedge Clean (ID: WedgeClean)
Mesomerize (ID: Mesomerize)
Tautomerize (ID: Tautomerize)
Aromatize (ID: Aromatize)
Add Explicit Hydrogens (ID: AddExplicitH)
Neutralize (ID: Neutralize)
Clean 2D (ID: Clean2D)

> <knn Distance>
3.87298345565796

> <CpId>
2824

$$$$
2846
  Mrv1532301301811342D          

 63 63  0  0  0  0            999 V2000
   -3.3488   -3.8386    0.0000 C   0  0  0  0  0  0  0  0  0  0  0  0
   -3.1773   -3.0316    0.0000 C   0  0  0  0  0  0  0  0  0  0  0  0
   -2.3927   -2.7766    0.0000 C   0  0  0  0  0  0  0  0  0  0  0  0
   -2.2211   -1.9697    0.0000 C   0  0  0  0  0  0  0  0  0  0  0  0
   -1.4365   -1.7147    0.0000 C   0  0  0  0  0  0  0  0  0  0  0  0
   -1.1816   -2.4994    0.0000 C   0  0  0  0  0  0  0  0  0  0  0  0
   -1.6915   -0.9301    0.0000 O   0  0  0  0  0  0  0  0  0  0  0  0
   -0.6519   -1.4598    0.0000 C   0  0  0  0  0  0  0  0  0  0  0  0
   -0.4804   -0.6528    0.0000 C   0  0  0  0  0  0  0  0  0  0  0  0
    0.3043   -0.3979    0.0000 C   0  0  0  0  0  0  0  0  0  0  0  0
    0.4758    0.4091    0.0000 C   0  0  0  0  0  0  0  0  0  0  0  0
   -0.0763    1.0222    0.0000 C   0  0  0  0  0  0  0  0  0  0  0  0
   -0.8967    0.9360    0.0000 O   0  0  0  0  0  0  0  0  0  0  0  0
    0.3362    1.7367    0.0000 C   0  0  0  0  0  0  0  0  0  0  0  0
    1.1432    1.5651    0.0000 C   0  0  0  0  0  0  0  0  0  0  0  0
    1.7563    2.1172    0.0000 O   0  0  0  0  0  0  0  0  0  0  0  0
    1.2295    0.7446    0.0000 C   0  0  0  0  0  0  0  0  0  0  0  0
    1.9439    0.3321    0.0000 C   0  0  0  0  0  0  0  0  0  0  0  0
    2.6584    0.7446    0.0000 C   0  0  0  0  0  0  0  0  0  0  0  0
    3.3729    0.3321    0.0000 C   0  0  0  0  0  0  0  0  0  0  0  0
    4.0873    0.7446    0.0000 C   0  0  0  0  0  0  0  0  0  0  0  0
    4.8018    0.3321    0.0000 C   0  0  0  0  0  0  0  0  0  0  0  0
    5.5163    0.7446    0.0000 C   0  0  0  0  0  0  0  0  0  0  0  0
    6.2308    0.3321    0.0000 C   0  0  0  0  0  0  0  0  0  0  0  0
    6.9452    0.7446    0.0000 O   0  0  0  0  0  0  0  0  0  0  0  0
   -4.1558   -3.6670    0.0000 H   0  0  0  0  0  0  0  0  0  0  0  0
   -3.5203   -4.6455    0.0000 H   0  0  0  0  0  0  0  0  0  0  0  0
   -2.5418   -4.0101    0.0000 H   0  0  0  0  0  0  0  0  0  0  0  0
   -3.4774   -2.2631    0.0000 H   0  0  0  0  0  0  0  0  0  0  0  0
   -3.9729   -2.8134    0.0000 H   0  0  0  0  0  0  0  0  0  0  0  0
   -2.0925   -3.5451    0.0000 H   0  0  0  0  0  0  0  0  0  0  0  0
   -1.5970   -2.9948    0.0000 H   0  0  0  0  0  0  0  0  0  0  0  0
   -2.5213   -1.2012    0.0000 H   0  0  0  0  0  0  0  0  0  0  0  0
   -3.0168   -1.7515    0.0000 H   0  0  0  0  0  0  0  0  0  0  0  0
   -0.9060   -3.2770    0.0000 H   0  0  0  0  0  0  0  0  0  0  0  0
   -0.3717   -2.6566    0.0000 H   0  0  0  0  0  0  0  0  0  0  0  0
   -0.6350   -1.8814    0.0000 H   0  0  0  0  0  0  0  0  0  0  0  0
   -1.3175   -0.1947    0.0000 H   0  0  0  0  0  0  0  0  0  0  0  0
    0.1702   -1.5295    0.0000 H   0  0  0  0  0  0  0  0  0  0  0  0
   -1.2650   -0.9078    0.0000 H   0  0  0  0  0  0  0  0  0  0  0  0
   -0.4035    0.1686    0.0000 H   0  0  0  0  0  0  0  0  0  0  0  0
    0.9173   -0.9499    0.0000 H   0  0  0  0  0  0  0  0  0  0  0  0
    1.1169   -0.1101    0.0000 H   0  0  0  0  0  0  0  0  0  0  0  0
   -0.5256    1.7141    0.0000 H   0  0  0  0  0  0  0  0  0  0  0  0
   -1.7201    0.8839    0.0000 H   0  0  0  0  0  0  0  0  0  0  0  0
    0.7076    2.4734    0.0000 H   0  0  0  0  0  0  0  0  0  0  0  0
    0.1054    2.5287    0.0000 H   0  0  0  0  0  0  0  0  0  0  0  0
    1.9214    1.1940    0.0000 H   0  0  0  0  0  0  0  0  0  0  0  0
    2.0710   -0.4830    0.0000 H   0  0  0  0  0  0  0  0  0  0  0  0
    2.5692   -0.2061    0.0000 H   0  0  0  0  0  0  0  0  0  0  0  0
    3.3761    1.1514    0.0000 H   0  0  0  0  0  0  0  0  0  0  0  0
    2.6715    1.5695    0.0000 H   0  0  0  0  0  0  0  0  0  0  0  0
    3.4094   -0.4920    0.0000 H   0  0  0  0  0  0  0  0  0  0  0  0
    4.0963   -0.0644    0.0000 H   0  0  0  0  0  0  0  0  0  0  0  0
    4.7185    1.2759    0.0000 H   0  0  0  0  0  0  0  0  0  0  0  0
    4.2286    1.5575    0.0000 H   0  0  0  0  0  0  0  0  0  0  0  0
    4.9393   -0.4813    0.0000 H   0  0  0  0  0  0  0  0  0  0  0  0
    5.4314   -0.2010    0.0000 H   0  0  0  0  0  0  0  0  0  0  0  0
    6.2394    1.1418    0.0000 H   0  0  0  0  0  0  0  0  0  0  0  0
    5.5514    1.5689    0.0000 H   0  0  0  0  0  0  0  0  0  0  0  0
    6.2663   -0.4921    0.0000 H   0  0  0  0  0  0  0  0  0  0  0  0
    6.9539   -0.0649    0.0000 H   0  0  0  0  0  0  0  0  0  0  0  0
    7.6552    1.1649    0.0000 H   0  0  0  0  0  0  0  0  0  0  0  0
  1  2  1  0  0  0  0
  2  3  1  0  0  0  0
  3  4  1  0  0  0  0
  4  5  1  0  0  0  0
  5  6  1  0  0  0  0
  5  7  1  0  0  0  0
  5  8  1  0  0  0  0
  9  8  1  4  0  0  0
  9 10  2  0  0  0  0
 10 11  1  0  0  0  0
 11 12  1  0  0  0  0
 12 13  1  0  0  0  0
 12 14  1  0  0  0  0
 14 15  1  0  0  0  0
 15 16  2  0  0  0  0
 15 17  1  0  0  0  0
 11 17  1  0  0  0  0
 17 18  1  0  0  0  0
 18 19  1  0  0  0  0
 19 20  1  0  0  0  0
 20 21  1  0  0  0  0
 21 22  1  0  0  0  0
 22 23  1  0  0  0  0
 23 24  1  0  0  0  0
 24 25  1  0  0  0  0
  1 26  1  0  0  0  0
  1 27  1  0  0  0  0
  1 28  1  0  0  0  0
  2 29  1  0  0  0  0
  2 30  1  0  0  0  0
  3 31  1  0  0  0  0
  3 32  1  0  0  0  0
  4 33  1  0  0  0  0
  4 34  1  0  0  0  0
  6 35  1  0  0  0  0
  6 36  1  0  0  0  0
  6 37  1  0  0  0  0
  7 38  1  0  0  0  0
  8 39  1  0  0  0  0
  8 40  1  0  0  0  0
  9 41  1  0  0  0  0
 10 42  1  0  0  0  0
 11 43  1  0  0  0  0
 12 44  1  0  0  0  0
 13 45  1  0  0  0  0
 14 46  1  0  0  0  0
 14 47  1  0  0  0  0
 17 48  1  0  0  0  0
 18 49  1  0  0  0  0
 18 50  1  0  0  0  0
 19 51  1  0  0  0  0
 19 52  1  0  0  0  0
 20 53  1  0  0  0  0
 20 54  1  0  0  0  0
 21 55  1  0  0  0  0
 21 56  1  0  0  0  0
 22 57  1  0  0  0  0
 22 58  1  0  0  0  0
 23 59  1  0  0  0  0
 23 60  1  0  0  0  0
 24 61  1  0  0  0  0
 24 62  1  0  0  0  0
 25 63  1  0  0  0  0
M  END
>  <InChIKey>
InChI=1S/C21H38O4/c1-3-4-13-21(2,25)14-10-12-18-17(19(23)16-20(18)24)11-8-6-5-7-9-15-22/h10,12,17-18,20,22,24-25H,3-9,11,13-16H2,1-2H3

>  <CASRN>
77287-05-9

> <Outcome>
0

>  <Index>
2846

>  <StandardizerResult>
Clear Stereo (ID: ClearStereo)
Wedge Clean (ID: WedgeClean)
Mesomerize (ID: Mesomerize)
Tautomerize (ID: Tautomerize)
Add Explicit Hydrogens (ID: AddExplicitH)
Neutralize (ID: Neutralize)
Clean 2D (ID: Clean2D)

> <knn Distance>
3.87298345565796

> <CpId>
2846

$$$$
2937
  Mrv1532301301811342D          

 38 39  0  0  0  0            999 V2000
    0.8753    0.8601    0.0000 C   0  0  0  0  0  0  0  0  0  0  0  0
    0.0503    0.8601    0.0000 C   0  0  0  0  0  0  0  0  0  0  0  0
   -0.7747    0.8601    0.0000 C   0  0  0  0  0  0  0  0  0  0  0  0
    0.0503    0.0351    0.0000 O   0  0  0  0  0  0  0  0  0  0  0  0
    0.7648   -0.3774    0.0000 C   0  0  0  0  0  0  0  0  0  0  0  0
    0.7648   -1.2024    0.0000 C   0  0  0  0  0  0  0  0  0  0  0  0
    1.4793   -1.6149    0.0000 C   0  0  0  0  0  0  0  0  0  0  0  0
    1.4793   -2.4399    0.0000 C   0  0  0  0  0  0  0  0  0  0  0  0
    0.7648   -2.8524    0.0000 C   0  0  0  0  0  0  0  0  0  0  0  0
    0.0503   -2.4399    0.0000 C   0  0  0  0  0  0  0  0  0  0  0  0
    0.0503   -1.6149    0.0000 C   0  0  0  0  0  0  0  0  0  0  0  0
    0.7648   -3.6774    0.0000 C   0  0  0  0  0  0  0  0  0  0  0  0
    1.4793   -4.0899    0.0000 C   0  0  0  0  0  0  0  0  0  0  0  0
    1.4793   -4.9149    0.0000 C   0  0  0  0  0  0  0  0  0  0  0  0
    0.7648   -5.3274    0.0000 C   0  0  0  0  0  0  0  0  0  0  0  0
    0.7648   -6.1524    0.0000 Cl  0  0  0  0  0  0  0  0  0  0  0  0
    0.0503   -4.9149    0.0000 C   0  0  0  0  0  0  0  0  0  0  0  0
    0.0503   -4.0899    0.0000 C   0  0  0  0  0  0  0  0  0  0  0  0
    0.0503    1.6851    0.0000 C   0  0  0  0  0  0  0  0  0  0  0  0
   -0.6642    2.0976    0.0000 O   0  0  0  0  0  0  0  0  0  0  0  0
    0.7648    2.0976    0.0000 O   0  0  0  0  0  0  0  0  0  0  0  0
    0.8753    0.0351    0.0000 H   0  0  0  0  0  0  0  0  0  0  0  0
    1.7003    0.8601    0.0000 H   0  0  0  0  0  0  0  0  0  0  0  0
    0.8753    1.6851    0.0000 H   0  0  0  0  0  0  0  0  0  0  0  0
   -0.7747    1.6851    0.0000 H   0  0  0  0  0  0  0  0  0  0  0  0
   -1.5997    0.8601    0.0000 H   0  0  0  0  0  0  0  0  0  0  0  0
   -0.7747    0.0351    0.0000 H   0  0  0  0  0  0  0  0  0  0  0  0
    1.5827   -0.4851    0.0000 H   0  0  0  0  0  0  0  0  0  0  0  0
    0.0503   -0.7899    0.0000 H   0  0  0  0  0  0  0  0  0  0  0  0
    2.1937   -1.2024    0.0000 H   0  0  0  0  0  0  0  0  0  0  0  0
    2.1937   -2.8524    0.0000 H   0  0  0  0  0  0  0  0  0  0  0  0
   -0.6642   -2.8524    0.0000 H   0  0  0  0  0  0  0  0  0  0  0  0
   -0.7747   -1.6149    0.0000 H   0  0  0  0  0  0  0  0  0  0  0  0
    2.1937   -3.6774    0.0000 H   0  0  0  0  0  0  0  0  0  0  0  0
    2.1937   -5.3274    0.0000 H   0  0  0  0  0  0  0  0  0  0  0  0
   -0.6642   -5.3274    0.0000 H   0  0  0  0  0  0  0  0  0  0  0  0
   -0.6642   -3.6774    0.0000 H   0  0  0  0  0  0  0  0  0  0  0  0
   -0.9799    2.8598    0.0000 H   0  0  0  0  0  0  0  0  0  0  0  0
  1  2  1  0  0  0  0
  2  3  1  0  0  0  0
  2  4  1  0  0  0  0
  4  5  1  0  0  0  0
  5  6  1  0  0  0  0
  6  7  4  0  0  0  0
  7  8  4  0  0  0  0
  8  9  4  0  0  0  0
  9 10  4  0  0  0  0
 10 11  4  0  0  0  0
  6 11  4  0  0  0  0
  9 12  1  0  0  0  0
 12 13  4  0  0  0  0
 13 14  4  0  0  0  0
 14 15  4  0  0  0  0
 15 16  1  0  0  0  0
 15 17  4  0  0  0  0
 17 18  4  0  0  0  0
 12 18  4  0  0  0  0
  2 19  1  0  0  0  0
 19 20  1  0  0  0  0
 19 21  2  0  0  0  0
  1 22  1  0  0  0  0
  1 23  1  0  0  0  0
  1 24  1  0  0  0  0
  3 25  1  0  0  0  0
  3 26  1  0  0  0  0
  3 27  1  0  0  0  0
  5 28  1  0  0  0  0
  5 29  1  0  0  0  0
  7 30  1  0  0  0  0
  8 31  1  0  0  0  0
 10 32  1  0  0  0  0
 11 33  1  0  0  0  0
 13 34  1  0  0  0  0
 14 35  1  0  0  0  0
 17 36  1  0  0  0  0
 18 37  1  0  0  0  0
 20 38  1  0  0  0  0
M  END
>  <InChIKey>
InChI=1S/C17H17ClO3/c1-17(2,16(19)20)21-11-12-3-5-13(6-4-12)14-7-9-15(18)10-8-14/h3-10H,11H2,1-2H3,(H,19,20)

>  <CASRN>
22494-47-9

> <Outcome>
0

>  <Index>
2937

>  <StandardizerResult>
Dearomatize (ID: Dearomatize)
Clear Stereo (ID: ClearStereo)
Wedge Clean (ID: WedgeClean)
Mesomerize (ID: Mesomerize)
Tautomerize (ID: Tautomerize)
Aromatize (ID: Aromatize)
Add Explicit Hydrogens (ID: AddExplicitH)
Neutralize (ID: Neutralize)
Clean 2D (ID: Clean2D)

> <knn Distance>
3.87298345565796

> <CpId>
2937

$$$$
2955
  Mrv1532301301811342D          

 32 33  0  0  0  0            999 V2000
    0.7145   -1.2375    0.0000 O   0  0  0  0  0  0  0  0  0  0  0  0
    1.4289   -1.6500    0.0000 C   0  0  0  0  0  0  0  0  0  0  0  0
    2.1434   -1.2375    0.0000 O   0  0  0  0  0  0  0  0  0  0  0  0
    1.4289   -2.4750    0.0000 C   0  0  0  0  0  0  0  0  0  0  0  0
    2.1434   -2.8875    0.0000 C   0  0  0  0  0  0  0  0  0  0  0  0
    2.1434   -3.7125    0.0000 C   0  0  0  0  0  0  0  0  0  0  0  0
    1.4289   -4.1250    0.0000 C   0  0  0  0  0  0  0  0  0  0  0  0
    0.7145   -3.7125    0.0000 C   0  0  0  0  0  0  0  0  0  0  0  0
    0.7145   -2.8875    0.0000 C   0  0  0  0  0  0  0  0  0  0  0  0
   -0.0000   -2.4750    0.0000 O   0  0  0  0  0  0  0  0  0  0  0  0
    2.8579   -4.1250    0.0000 N   0  0  0  0  0  0  0  0  0  0  0  0
    3.5724   -3.7125    0.0000 N   0  0  0  0  0  0  0  0  0  0  0  0
    4.2868   -4.1250    0.0000 C   0  0  0  0  0  0  0  0  0  0  0  0
    5.0013   -3.7125    0.0000 C   0  0  0  0  0  0  0  0  0  0  0  0
    5.7158   -4.1250    0.0000 C   0  0  0  0  0  0  0  0  0  0  0  0
    5.7158   -4.9500    0.0000 C   0  0  0  0  0  0  0  0  0  0  0  0
    6.4302   -5.3625    0.0000 O   0  0  0  0  0  0  0  0  0  0  0  0
    5.0013   -5.3625    0.0000 C   0  0  0  0  0  0  0  0  0  0  0  0
    4.2868   -4.9500    0.0000 C   0  0  0  0  0  0  0  0  0  0  0  0
    5.0013   -6.1875    0.0000 C   0  0  0  0  0  0  0  0  0  0  0  0
    4.2868   -6.6000    0.0000 O   0  0  0  0  0  0  0  0  0  0  0  0
    5.7158   -6.6000    0.0000 O   0  0  0  0  0  0  0  0  0  0  0  0
    0.7145   -0.4125    0.0000 H   0  0  0  0  0  0  0  0  0  0  0  0
    2.8579   -2.4750    0.0000 H   0  0  0  0  0  0  0  0  0  0  0  0
    1.4289   -4.9500    0.0000 H   0  0  0  0  0  0  0  0  0  0  0  0
   -0.0000   -4.1250    0.0000 H   0  0  0  0  0  0  0  0  0  0  0  0
   -0.0000   -1.6500    0.0000 H   0  0  0  0  0  0  0  0  0  0  0  0
    5.0013   -2.8875    0.0000 H   0  0  0  0  0  0  0  0  0  0  0  0
    6.4302   -3.7125    0.0000 H   0  0  0  0  0  0  0  0  0  0  0  0
    6.4302   -6.1875    0.0000 H   0  0  0  0  0  0  0  0  0  0  0  0
    3.5724   -5.3625    0.0000 H   0  0  0  0  0  0  0  0  0  0  0  0
    3.5724   -6.1875    0.0000 H   0  0  0  0  0  0  0  0  0  0  0  0
  1  2  1  0  0  0  0
  2  3  2  0  0  0  0
  2  4  1  0  0  0  0
  4  5  4  0  0  0  0
  5  6  4  0  0  0  0
  6  7  4  0  0  0  0
  7  8  4  0  0  0  0
  8  9  4  0  0  0  0
  4  9  4  0  0  0  0
  9 10  1  0  0  0  0
 11  6  1  4  0  0  0
 11 12  2  0  0  0  0
 12 13  1  0  0  0  0
 13 14  4  0  0  0  0
 14 15  4  0  0  0  0
 15 16  4  0  0  0  0
 16 17  1  0  0  0  0
 16 18  4  0  0  0  0
 18 19  4  0  0  0  0
 13 19  4  0  0  0  0
 18 20  1  0  0  0  0
 20 21  1  0  0  0  0
 20 22  2  0  0  0  0
  1 23  1  0  0  0  0
  5 24  1  0  0  0  0
  7 25  1  0  0  0  0
  8 26  1  0  0  0  0
 10 27  1  0  0  0  0
 14 28  1  0  0  0  0
 15 29  1  0  0  0  0
 17 30  1  0  0  0  0
 19 31  1  0  0  0  0
 21 32  1  0  0  0  0
M  END
>  <InChIKey>
InChI=1S/C14H10N2O6/c17-11-3-1-7(5-9(11)13(19)20)15-16-8-2-4-12(18)10(6-8)14(21)22/h1-6,17-18H,(H,19,20)(H,21,22)

>  <CASRN>
15722-48-2

> <Outcome>
0

>  <Index>
2955

>  <StandardizerResult>
Dearomatize (ID: Dearomatize)
Clear Stereo (ID: ClearStereo)
Wedge Clean (ID: WedgeClean)
Mesomerize (ID: Mesomerize)
Tautomerize (ID: Tautomerize)
Aromatize (ID: Aromatize)
Add Explicit Hydrogens (ID: AddExplicitH)
Neutralize (ID: Neutralize)
Clean 2D (ID: Clean2D)

> <knn Distance>
3.87298345565796

> <CpId>
2955

$$$$
3031
  Mrv1532301301811342D          

 51 50  0  0  0  0            999 V2000
    1.9033   -0.4810    0.0000 C   0  0  0  0  0  0  0  0  0  0  0  0
    1.9033    0.3440    0.0000 O   0  0  0  0  0  0  0  0  0  0  0  0
    1.1888    0.7565    0.0000 Si  0  0  0  0  0  0  0  0  0  0  0  0
    0.4744    1.1690    0.0000 C   0  0  0  0  0  0  0  0  0  0  0  0
    0.4744    1.9940    0.0000 C   0  0  0  0  0  0  0  0  0  0  0  0
   -0.2401    2.4065    0.0000 C   0  0  0  0  0  0  0  0  0  0  0  0
   -0.2401    3.2315    0.0000 S   0  0  0  0  0  0  0  0  0  0  0  0
   -0.9546    3.6440    0.0000 C   0  0  0  0  0  0  0  0  0  0  0  0
   -0.9546    4.4690    0.0000 C   0  0  0  0  0  0  0  0  0  0  0  0
   -1.6690    4.8815    0.0000 C   0  0  0  0  0  0  0  0  0  0  0  0
   -1.6690    5.7065    0.0000 Si  0  0  0  0  0  0  0  0  0  0  0  0
   -1.6690    6.5315    0.0000 O   0  0  0  0  0  0  0  0  0  0  0  0
   -2.3835    6.9440    0.0000 C   0  0  0  0  0  0  0  0  0  0  0  0
   -0.8440    5.7065    0.0000 O   0  0  0  0  0  0  0  0  0  0  0  0
   -0.4315    6.4210    0.0000 C   0  0  0  0  0  0  0  0  0  0  0  0
   -2.4940    5.7065    0.0000 O   0  0  0  0  0  0  0  0  0  0  0  0
   -2.9065    6.4210    0.0000 C   0  0  0  0  0  0  0  0  0  0  0  0
    1.6013    1.4710    0.0000 O   0  0  0  0  0  0  0  0  0  0  0  0
    1.1888    2.1855    0.0000 C   0  0  0  0  0  0  0  0  0  0  0  0
    0.7763    0.0420    0.0000 O   0  0  0  0  0  0  0  0  0  0  0  0
   -0.0487    0.0420    0.0000 C   0  0  0  0  0  0  0  0  0  0  0  0
    1.0783   -0.4810    0.0000 H   0  0  0  0  0  0  0  0  0  0  0  0
    1.9033   -1.3060    0.0000 H   0  0  0  0  0  0  0  0  0  0  0  0
    2.7283   -0.4810    0.0000 H   0  0  0  0  0  0  0  0  0  0  0  0
   -0.3492    1.1210    0.0000 H   0  0  0  0  0  0  0  0  0  0  0  0
    0.0210    0.4797    0.0000 H   0  0  0  0  0  0  0  0  0  0  0  0
    0.5820    2.8120    0.0000 H   0  0  0  0  0  0  0  0  0  0  0  0
    1.1289    1.4918    0.0000 H   0  0  0  0  0  0  0  0  0  0  0  0
   -1.0637    2.3585    0.0000 H   0  0  0  0  0  0  0  0  0  0  0  0
   -0.6935    1.7172    0.0000 H   0  0  0  0  0  0  0  0  0  0  0  0
   -1.7782    3.5960    0.0000 H   0  0  0  0  0  0  0  0  0  0  0  0
   -1.4079    2.9547    0.0000 H   0  0  0  0  0  0  0  0  0  0  0  0
   -0.1310    4.5170    0.0000 H   0  0  0  0  0  0  0  0  0  0  0  0
   -0.5012    5.1583    0.0000 H   0  0  0  0  0  0  0  0  0  0  0  0
   -2.4927    4.8335    0.0000 H   0  0  0  0  0  0  0  0  0  0  0  0
   -2.1224    4.1922    0.0000 H   0  0  0  0  0  0  0  0  0  0  0  0
   -1.6976    7.4024    0.0000 H   0  0  0  0  0  0  0  0  0  0  0  0
   -2.4912    7.7620    0.0000 H   0  0  0  0  0  0  0  0  0  0  0  0
   -3.1647    7.2092    0.0000 H   0  0  0  0  0  0  0  0  0  0  0  0
    0.2829    6.0085    0.0000 H   0  0  0  0  0  0  0  0  0  0  0  0
   -0.0190    7.1355    0.0000 H   0  0  0  0  0  0  0  0  0  0  0  0
   -1.1460    6.8335    0.0000 H   0  0  0  0  0  0  0  0  0  0  0  0
   -3.7306    6.3814    0.0000 H   0  0  0  0  0  0  0  0  0  0  0  0
   -3.4860    5.8337    0.0000 H   0  0  0  0  0  0  0  0  0  0  0  0
   -2.0886    6.3133    0.0000 H   0  0  0  0  0  0  0  0  0  0  0  0
    1.9973    2.0213    0.0000 H   0  0  0  0  0  0  0  0  0  0  0  0
    1.8473    2.6824    0.0000 H   0  0  0  0  0  0  0  0  0  0  0  0
    1.2527    3.0080    0.0000 H   0  0  0  0  0  0  0  0  0  0  0  0
   -0.7682    0.4456    0.0000 H   0  0  0  0  0  0  0  0  0  0  0  0
   -0.6762   -0.4935    0.0000 H   0  0  0  0  0  0  0  0  0  0  0  0
    0.2367   -0.7320    0.0000 H   0  0  0  0  0  0  0  0  0  0  0  0
  1  2  1  0  0  0  0
  2  3  1  0  0  0  0
  3  4  1  0  0  0  0
  4  5  1  0  0  0  0
  5  6  1  0  0  0  0
  6  7  1  0  0  0  0
  7  8  1  0  0  0  0
  8  9  1  0  0  0  0
  9 10  1  0  0  0  0
 10 11  1  0  0  0  0
 11 12  1  0  0  0  0
 12 13  1  0  0  0  0
 11 14  1  0  0  0  0
 14 15  1  0  0  0  0
 11 16  1  0  0  0  0
 16 17  1  0  0  0  0
  3 18  1  0  0  0  0
 18 19  1  0  0  0  0
  3 20  1  0  0  0  0
 20 21  1  0  0  0  0
  1 22  1  0  0  0  0
  1 23  1  0  0  0  0
  1 24  1  0  0  0  0
  4 25  1  0  0  0  0
  4 26  1  0  0  0  0
  5 27  1  0  0  0  0
  5 28  1  0  0  0  0
  6 29  1  0  0  0  0
  6 30  1  0  0  0  0
  8 31  1  0  0  0  0
  8 32  1  0  0  0  0
  9 33  1  0  0  0  0
  9 34  1  0  0  0  0
 10 35  1  0  0  0  0
 10 36  1  0  0  0  0
 13 37  1  0  0  0  0
 13 38  1  0  0  0  0
 13 39  1  0  0  0  0
 15 40  1  0  0  0  0
 15 41  1  0  0  0  0
 15 42  1  0  0  0  0
 17 43  1  0  0  0  0
 17 44  1  0  0  0  0
 17 45  1  0  0  0  0
 19 46  1  0  0  0  0
 19 47  1  0  0  0  0
 19 48  1  0  0  0  0
 21 49  1  0  0  0  0
 21 50  1  0  0  0  0
 21 51  1  0  0  0  0
M  END
>  <InChIKey>
InChI=1S/C12H30O6SSi2/c1-13-20(14-2,15-3)11-7-9-19-10-8-12-21(16-4,17-5)18-6/h7-12H2,1-6H3

>  <UN GHS>
Non-irritant

>  <CASRN>
29055-11-6

> <Outcome>
0

>  <Index>
3031

>  <StandardizerResult>
Clear Stereo (ID: ClearStereo)
Wedge Clean (ID: WedgeClean)
Mesomerize (ID: Mesomerize)
Tautomerize (ID: Tautomerize)
Add Explicit Hydrogens (ID: AddExplicitH)
Neutralize (ID: Neutralize)
Clean 2D (ID: Clean2D)

> <knn Distance>
3.87298345565796

> <CpId>
3031

$$$$
3076
  Mrv1532301301811342D          

 44 47  0  0  0  0            999 V2000
    3.5163   -3.3112    0.0000 C   0  0  0  0  0  0  0  0  0  0  0  0
    3.8761   -2.5688    0.0000 C   0  0  0  0  0  0  0  0  0  0  0  0
    4.4080   -3.1995    0.0000 C   0  0  0  0  0  0  0  0  0  0  0  0
    5.2201   -3.0543    0.0000 C   0  0  0  0  0  0  0  0  0  0  0  0
    5.5004   -2.2784    0.0000 C   0  0  0  0  0  0  0  0  0  0  0  0
    4.9686   -1.6477    0.0000 C   0  0  0  0  0  0  0  0  0  0  0  0
    5.2489   -0.8717    0.0000 C   0  0  0  0  0  0  0  0  0  0  0  0
    6.0610   -0.7265    0.0000 C   0  0  0  0  0  0  0  0  0  0  0  0
    6.5928   -1.3572    0.0000 C   0  0  0  0  0  0  0  0  0  0  0  0
    7.4049   -1.2120    0.0000 C   0  0  0  0  0  0  0  0  0  0  0  0
    7.9367   -1.8427    0.0000 C   0  0  0  0  0  0  0  0  0  0  0  0
    8.7489   -1.6975    0.0000 O   0  0  0  0  0  0  0  0  0  0  0  0
    7.6564   -2.6186    0.0000 C   0  0  0  0  0  0  0  0  0  0  0  0
    6.8443   -2.7639    0.0000 C   0  0  0  0  0  0  0  0  0  0  0  0
    6.3125   -2.1331    0.0000 C   0  0  0  0  0  0  0  0  0  0  0  0
    4.1564   -1.7929    0.0000 C   0  0  0  0  0  0  0  0  0  0  0  0
    3.5051   -1.2865    0.0000 C   0  0  0  0  0  0  0  0  0  0  0  0
    2.8223   -1.7495    0.0000 C   0  0  0  0  0  0  0  0  0  0  0  0
    3.0516   -2.5420    0.0000 C   0  0  0  0  0  0  0  0  0  0  0  0
    2.5452   -3.1933    0.0000 O   0  0  0  0  0  0  0  0  0  0  0  0
    2.6921   -3.3491    0.0000 H   0  0  0  0  0  0  0  0  0  0  0  0
    3.1564   -4.0535    0.0000 H   0  0  0  0  0  0  0  0  0  0  0  0
    3.9970   -3.9817    0.0000 H   0  0  0  0  0  0  0  0  0  0  0  0
    4.8953   -3.8652    0.0000 H   0  0  0  0  0  0  0  0  0  0  0  0
    4.6883   -2.4236    0.0000 H   0  0  0  0  0  0  0  0  0  0  0  0
    5.8421   -3.5962    0.0000 H   0  0  0  0  0  0  0  0  0  0  0  0
    6.0450   -3.0633    0.0000 H   0  0  0  0  0  0  0  0  0  0  0  0
    5.7807   -1.5024    0.0000 H   0  0  0  0  0  0  0  0  0  0  0  0
    4.4367   -1.0169    0.0000 H   0  0  0  0  0  0  0  0  0  0  0  0
    5.3902   -0.0589    0.0000 H   0  0  0  0  0  0  0  0  0  0  0  0
    4.8346   -0.1583    0.0000 H   0  0  0  0  0  0  0  0  0  0  0  0
    6.8255   -0.4164    0.0000 H   0  0  0  0  0  0  0  0  0  0  0  0
    6.4330    0.0098    0.0000 H   0  0  0  0  0  0  0  0  0  0  0  0
    7.6852   -0.4361    0.0000 H   0  0  0  0  0  0  0  0  0  0  0  0
    9.2807   -2.3282    0.0000 H   0  0  0  0  0  0  0  0  0  0  0  0
    8.1883   -3.2493    0.0000 H   0  0  0  0  0  0  0  0  0  0  0  0
    7.0625   -3.5595    0.0000 H   0  0  0  0  0  0  0  0  0  0  0  0
    3.3639   -2.0222    0.0000 H   0  0  0  0  0  0  0  0  0  0  0  0
    3.4599   -0.4628    0.0000 H   0  0  0  0  0  0  0  0  0  0  0  0
    2.9004   -0.7253    0.0000 H   0  0  0  0  0  0  0  0  0  0  0  0
    2.2688   -1.1377    0.0000 H   0  0  0  0  0  0  0  0  0  0  0  0
    2.0056   -1.8663    0.0000 H   0  0  0  0  0  0  0  0  0  0  0  0
    2.2414   -2.3865    0.0000 H   0  0  0  0  0  0  0  0  0  0  0  0
    1.8454   -3.6302    0.0000 H   0  0  0  0  0  0  0  0  0  0  0  0
  1  2  1  0  0  0  0
  2  3  1  0  0  0  0
  3  4  1  0  0  0  0
  4  5  1  0  0  0  0
  5  6  1  0  0  0  0
  6  7  1  0  0  0  0
  7  8  1  0  0  0  0
  8  9  1  0  0  0  0
  9 10  4  0  0  0  0
 10 11  4  0  0  0  0
 11 12  1  0  0  0  0
 11 13  4  0  0  0  0
 13 14  4  0  0  0  0
 14 15  4  0  0  0  0
  5 15  1  0  0  0  0
  9 15  4  0  0  0  0
  6 16  1  0  0  0  0
  2 16  1  0  0  0  0
 16 17  1  0  0  0  0
 17 18  1  0  0  0  0
 18 19  1  0  0  0  0
  2 19  1  0  0  0  0
 19 20  1  0  0  0  0
  1 21  1  0  0  0  0
  1 22  1  0  0  0  0
  1 23  1  0  0  0  0
  3 24  1  0  0  0  0
  3 25  1  0  0  0  0
  4 26  1  0  0  0  0
  4 27  1  0  0  0  0
  5 28  1  0  0  0  0
  6 29  1  0  0  0  0
  7 30  1  0  0  0  0
  7 31  1  0  0  0  0
  8 32  1  0  0  0  0
  8 33  1  0  0  0  0
 10 34  1  0  0  0  0
 12 35  1  0  0  0  0
 13 36  1  0  0  0  0
 14 37  1  0  0  0  0
 16 38  1  0  0  0  0
 17 39  1  0  0  0  0
 17 40  1  0  0  0  0
 18 41  1  0  0  0  0
 18 42  1  0  0  0  0
 19 43  1  0  0  0  0
 20 44  1  0  0  0  0
M  END
>  <InChIKey>
InChI=1S/C18H24O2/c1-18-9-8-14-13-5-3-12(19)10-11(13)2-4-15(14)16(18)6-7-17(18)20/h3,5,10,14-17,19-20H,2,4,6-9H2,1H3

>  <CASRN>
50-28-2

> <Outcome>
0

>  <Index>
3076

>  <StandardizerResult>
Dearomatize (ID: Dearomatize)
Clear Stereo (ID: ClearStereo)
Wedge Clean (ID: WedgeClean)
Mesomerize (ID: Mesomerize)
Tautomerize (ID: Tautomerize)
Aromatize (ID: Aromatize)
Add Explicit Hydrogens (ID: AddExplicitH)
Neutralize (ID: Neutralize)
Clean 2D (ID: Clean2D)

> <knn Distance>
3.87298345565796

> <CpId>
3076

$$$$
3097
  Mrv1532301301811342D          

 72 71  0  0  0  0            999 V2000
   -2.4988    0.9876    0.0000 C   0  0  0  0  0  0  0  0  0  0  0  0
   -1.7844    1.4001    0.0000 C   0  0  0  0  0  0  0  0  0  0  0  0
   -1.0699    0.9876    0.0000 O   0  0  0  0  0  0  0  0  0  0  0  0
   -0.3554    1.4001    0.0000 Si  0  0  0  0  0  0  0  0  0  0  0  0
    0.3591    1.8126    0.0000 C   0  0  0  0  0  0  0  0  0  0  0  0
    1.0735    1.4001    0.0000 C   0  0  0  0  0  0  0  0  0  0  0  0
    1.7880    1.8126    0.0000 C   0  0  0  0  0  0  0  0  0  0  0  0
    2.5025    1.4001    0.0000 S   0  0  0  0  0  0  0  0  0  0  0  0
    3.2169    1.8126    0.0000 S   0  0  0  0  0  0  0  0  0  0  0  0
    3.9314    1.4001    0.0000 S   0  0  0  0  0  0  0  0  0  0  0  0
    4.6459    1.8126    0.0000 S   0  0  0  0  0  0  0  0  0  0  0  0
    5.3604    1.4001    0.0000 C   0  0  0  0  0  0  0  0  0  0  0  0
    6.0748    1.8126    0.0000 C   0  0  0  0  0  0  0  0  0  0  0  0
    6.7893    1.4001    0.0000 C   0  0  0  0  0  0  0  0  0  0  0  0
    7.5038    1.8126    0.0000 Si  0  0  0  0  0  0  0  0  0  0  0  0
    8.2182    2.2251    0.0000 O   0  0  0  0  0  0  0  0  0  0  0  0
    8.9327    1.8126    0.0000 C   0  0  0  0  0  0  0  0  0  0  0  0
    9.6472    2.2251    0.0000 C   0  0  0  0  0  0  0  0  0  0  0  0
    7.9163    1.0981    0.0000 O   0  0  0  0  0  0  0  0  0  0  0  0
    8.7413    1.0981    0.0000 C   0  0  0  0  0  0  0  0  0  0  0  0
    9.1538    0.3837    0.0000 C   0  0  0  0  0  0  0  0  0  0  0  0
    7.0913    2.5271    0.0000 O   0  0  0  0  0  0  0  0  0  0  0  0
    7.5038    3.2416    0.0000 C   0  0  0  0  0  0  0  0  0  0  0  0
    8.3288    3.2416    0.0000 C   0  0  0  0  0  0  0  0  0  0  0  0
    0.0571    0.6856    0.0000 O   0  0  0  0  0  0  0  0  0  0  0  0
    0.8821    0.6856    0.0000 C   0  0  0  0  0  0  0  0  0  0  0  0
    1.2946   -0.0288    0.0000 C   0  0  0  0  0  0  0  0  0  0  0  0
   -0.7679    2.1146    0.0000 O   0  0  0  0  0  0  0  0  0  0  0  0
   -0.3554    2.8291    0.0000 C   0  0  0  0  0  0  0  0  0  0  0  0
    0.4696    2.8291    0.0000 C   0  0  0  0  0  0  0  0  0  0  0  0
   -2.9113    1.7021    0.0000 H   0  0  0  0  0  0  0  0  0  0  0  0
   -3.2133    0.5751    0.0000 H   0  0  0  0  0  0  0  0  0  0  0  0
   -2.0863    0.2731    0.0000 H   0  0  0  0  0  0  0  0  0  0  0  0
   -1.4141    2.1374    0.0000 H   0  0  0  0  0  0  0  0  0  0  0  0
   -2.1546    2.1374    0.0000 H   0  0  0  0  0  0  0  0  0  0  0  0
    0.7293    2.5499    0.0000 H   0  0  0  0  0  0  0  0  0  0  0  0
   -0.0112    2.5499    0.0000 H   0  0  0  0  0  0  0  0  0  0  0  0
    1.7280    0.8979    0.0000 H   0  0  0  0  0  0  0  0  0  0  0  0
    0.3113    1.0844    0.0000 H   0  0  0  0  0  0  0  0  0  0  0  0
    2.1583    2.5499    0.0000 H   0  0  0  0  0  0  0  0  0  0  0  0
    1.4177    2.5499    0.0000 H   0  0  0  0  0  0  0  0  0  0  0  0
    4.9901    0.6629    0.0000 H   0  0  0  0  0  0  0  0  0  0  0  0
    5.7306    0.6629    0.0000 H   0  0  0  0  0  0  0  0  0  0  0  0
    6.4451    2.5499    0.0000 H   0  0  0  0  0  0  0  0  0  0  0  0
    5.7046    2.5499    0.0000 H   0  0  0  0  0  0  0  0  0  0  0  0
    6.4190    0.6629    0.0000 H   0  0  0  0  0  0  0  0  0  0  0  0
    7.1596    0.6629    0.0000 H   0  0  0  0  0  0  0  0  0  0  0  0
    9.5872    1.3104    0.0000 H   0  0  0  0  0  0  0  0  0  0  0  0
    8.9327    2.6376    0.0000 H   0  0  0  0  0  0  0  0  0  0  0  0
   10.3405    1.7780    0.0000 H   0  0  0  0  0  0  0  0  0  0  0  0
   10.3748    2.6140    0.0000 H   0  0  0  0  0  0  0  0  0  0  0  0
    9.6607    3.0500    0.0000 H   0  0  0  0  0  0  0  0  0  0  0  0
    8.2390    1.7527    0.0000 H   0  0  0  0  0  0  0  0  0  0  0  0
    8.3288    0.3837    0.0000 H   0  0  0  0  0  0  0  0  0  0  0  0
    8.9402   -0.4132    0.0000 H   0  0  0  0  0  0  0  0  0  0  0  0
    9.8682   -0.0288    0.0000 H   0  0  0  0  0  0  0  0  0  0  0  0
    9.7371    0.9670    0.0000 H   0  0  0  0  0  0  0  0  0  0  0  0
    7.4558    4.0652    0.0000 H   0  0  0  0  0  0  0  0  0  0  0  0
    6.8145    3.6949    0.0000 H   0  0  0  0  0  0  0  0  0  0  0  0
    8.9370    3.7989    0.0000 H   0  0  0  0  0  0  0  0  0  0  0  0
    8.2928    4.0658    0.0000 H   0  0  0  0  0  0  0  0  0  0  0  0
    8.0130    2.4794    0.0000 H   0  0  0  0  0  0  0  0  0  0  0  0
    0.2501    0.1553    0.0000 H   0  0  0  0  0  0  0  0  0  0  0  0
    0.7388   -0.1268    0.0000 H   0  0  0  0  0  0  0  0  0  0  0  0
    1.1869   -0.8468    0.0000 H   0  0  0  0  0  0  0  0  0  0  0  0
    2.0423   -0.3775    0.0000 H   0  0  0  0  0  0  0  0  0  0  0  0
    1.8519    0.5794    0.0000 H   0  0  0  0  0  0  0  0  0  0  0  0
   -0.4034    3.6527    0.0000 H   0  0  0  0  0  0  0  0  0  0  0  0
   -1.0447    3.2824    0.0000 H   0  0  0  0  0  0  0  0  0  0  0  0
    1.2828    2.9680    0.0000 H   0  0  0  0  0  0  0  0  0  0  0  0
    0.7990    3.5854    0.0000 H   0  0  0  0  0  0  0  0  0  0  0  0
    0.0174    3.5191    0.0000 H   0  0  0  0  0  0  0  0  0  0  0  0
  1  2  1  0  0  0  0
  2  3  1  0  0  0  0
  3  4  1  0  0  0  0
  4  5  1  0  0  0  0
  5  6  1  0  0  0  0
  6  7  1  0  0  0  0
  7  8  1  0  0  0  0
  8  9  1  0  0  0  0
  9 10  1  0  0  0  0
 10 11  1  0  0  0  0
 11 12  1  0  0  0  0
 12 13  1  0  0  0  0
 13 14  1  0  0  0  0
 14 15  1  0  0  0  0
 15 16  1  0  0  0  0
 16 17  1  0  0  0  0
 17 18  1  0  0  0  0
 15 19  1  0  0  0  0
 19 20  1  0  0  0  0
 20 21  1  0  0  0  0
 15 22  1  0  0  0  0
 22 23  1  0  0  0  0
 23 24  1  0  0  0  0
  4 25  1  0  0  0  0
 25 26  1  0  0  0  0
 26 27  1  0  0  0  0
  4 28  1  0  0  0  0
 28 29  1  0  0  0  0
 29 30  1  0  0  0  0
  1 31  1  0  0  0  0
  1 32  1  0  0  0  0
  1 33  1  0  0  0  0
  2 34  1  0  0  0  0
  2 35  1  0  0  0  0
  5 36  1  0  0  0  0
  5 37  1  0  0  0  0
  6 38  1  0  0  0  0
  6 39  1  0  0  0  0
  7 40  1  0  0  0  0
  7 41  1  0  0  0  0
 12 42  1  0  0  0  0
 12 43  1  0  0  0  0
 13 44  1  0  0  0  0
 13 45  1  0  0  0  0
 14 46  1  0  0  0  0
 14 47  1  0  0  0  0
 17 48  1  0  0  0  0
 17 49  1  0  0  0  0
 18 50  1  0  0  0  0
 18 51  1  0  0  0  0
 18 52  1  0  0  0  0
 20 53  1  0  0  0  0
 20 54  1  0  0  0  0
 21 55  1  0  0  0  0
 21 56  1  0  0  0  0
 21 57  1  0  0  0  0
 23 58  1  0  0  0  0
 23 59  1  0  0  0  0
 24 60  1  0  0  0  0
 24 61  1  0  0  0  0
 24 62  1  0  0  0  0
 26 63  1  0  0  0  0
 26 64  1  0  0  0  0
 27 65  1  0  0  0  0
 27 66  1  0  0  0  0
 27 67  1  0  0  0  0
 29 68  1  0  0  0  0
 29 69  1  0  0  0  0
 30 70  1  0  0  0  0
 30 71  1  0  0  0  0
 30 72  1  0  0  0  0
M  END
>  <InChIKey>
InChI=1S/C18H42O6S4Si2/c1-7-19-29(20-8-2,21-9-3)17-13-15-25-27-28-26-16-14-18-30(22-10-4,23-11-5)24-12-6/h7-18H2,1-6H3

>  <UN GHS>
Non-irritant

>  <CASRN>
40372-72-3

> <Outcome>
0

>  <Index>
3097

>  <StandardizerResult>
Clear Stereo (ID: ClearStereo)
Wedge Clean (ID: WedgeClean)
Mesomerize (ID: Mesomerize)
Tautomerize (ID: Tautomerize)
Add Explicit Hydrogens (ID: AddExplicitH)
Neutralize (ID: Neutralize)
Clean 2D (ID: Clean2D)

> <knn Distance>
3.87298345565796

> <CpId>
3097

$$$$
3171
  Mrv1532301301811342D          

 32 32  0  0  0  0            999 V2000
    0.0465    2.4879    0.0000 C   0  0  0  0  0  0  0  0  0  0  0  0
    0.7610    2.0754    0.0000 O   0  0  0  0  0  0  0  0  0  0  0  0
    0.7610    1.2504    0.0000 C   0  0  0  0  0  0  0  0  0  0  0  0
    1.4755    0.8379    0.0000 C   0  0  0  0  0  0  0  0  0  0  0  0
    1.4755    0.0129    0.0000 C   0  0  0  0  0  0  0  0  0  0  0  0
    0.7610   -0.3996    0.0000 C   0  0  0  0  0  0  0  0  0  0  0  0
    0.7610   -1.2246    0.0000 O   0  0  0  0  0  0  0  0  0  0  0  0
    1.4755   -1.6371    0.0000 C   0  0  0  0  0  0  0  0  0  0  0  0
    0.0465    0.0129    0.0000 C   0  0  0  0  0  0  0  0  0  0  0  0
    0.0465    0.8379    0.0000 C   0  0  0  0  0  0  0  0  0  0  0  0
   -0.6679   -0.3996    0.0000 C   0  0  0  0  0  0  0  0  0  0  0  0
   -1.3824    0.0129    0.0000 O   0  0  0  0  0  0  0  0  0  0  0  0
   -0.6679   -1.2246    0.0000 C   0  0  0  0  0  0  0  0  0  0  0  0
    0.0465   -1.6371    0.0000 C   0  0  0  0  0  0  0  0  0  0  0  0
   -1.3824   -1.6371    0.0000 N   0  0  0  0  0  0  0  0  0  0  0  0
    0.4590    3.2024    0.0000 H   0  0  0  0  0  0  0  0  0  0  0  0
   -0.6679    2.9004    0.0000 H   0  0  0  0  0  0  0  0  0  0  0  0
   -0.3660    1.7734    0.0000 H   0  0  0  0  0  0  0  0  0  0  0  0
    2.1899    1.2504    0.0000 H   0  0  0  0  0  0  0  0  0  0  0  0
    2.1899   -0.3996    0.0000 H   0  0  0  0  0  0  0  0  0  0  0  0
    1.0630   -2.3516    0.0000 H   0  0  0  0  0  0  0  0  0  0  0  0
    2.1899   -2.0496    0.0000 H   0  0  0  0  0  0  0  0  0  0  0  0
    1.8880   -0.9226    0.0000 H   0  0  0  0  0  0  0  0  0  0  0  0
   -0.6679    1.2504    0.0000 H   0  0  0  0  0  0  0  0  0  0  0  0
   -0.6679    0.4254    0.0000 H   0  0  0  0  0  0  0  0  0  0  0  0
   -2.2074    0.0129    0.0000 H   0  0  0  0  0  0  0  0  0  0  0  0
    0.0465   -0.8121    0.0000 H   0  0  0  0  0  0  0  0  0  0  0  0
   -0.6679   -2.0496    0.0000 H   0  0  0  0  0  0  0  0  0  0  0  0
    0.0465   -2.4621    0.0000 H   0  0  0  0  0  0  0  0  0  0  0  0
    0.7610   -2.0496    0.0000 H   0  0  0  0  0  0  0  0  0  0  0  0
   -2.0717   -1.1838    0.0000 H   0  0  0  0  0  0  0  0  0  0  0  0
   -2.0717   -2.0905    0.0000 H   0  0  0  0  0  0  0  0  0  0  0  0
  1  2  1  0  0  0  0
  2  3  1  0  0  0  0
  3  4  4  0  0  0  0
  4  5  4  0  0  0  0
  5  6  4  0  0  0  0
  6  7  1  0  0  0  0
  7  8  1  0  0  0  0
  6  9  4  0  0  0  0
  9 10  4  0  0  0  0
  3 10  4  0  0  0  0
  9 11  1  0  0  0  0
 11 12  1  0  0  0  0
 11 13  1  0  0  0  0
 13 14  1  0  0  0  0
 13 15  1  0  0  0  0
  1 16  1  0  0  0  0
  1 17  1  0  0  0  0
  1 18  1  0  0  0  0
  4 19  1  0  0  0  0
  5 20  1  0  0  0  0
  8 21  1  0  0  0  0
  8 22  1  0  0  0  0
  8 23  1  0  0  0  0
 10 24  1  0  0  0  0
 11 25  1  0  0  0  0
 12 26  1  0  0  0  0
 13 27  1  0  0  0  0
 14 28  1  0  0  0  0
 14 29  1  0  0  0  0
 14 30  1  0  0  0  0
 15 31  1  0  0  0  0
 15 32  1  0  0  0  0
M  END
>  <InChIKey>
InChI=1S/C11H17NO3/c1-7(12)11(13)9-6-8(14-2)4-5-10(9)15-3/h4-7,11,13H,12H2,1-3H3

>  <CASRN>
390-28-3

> <Outcome>
0

>  <Index>
3171

>  <StandardizerResult>
Dearomatize (ID: Dearomatize)
Clear Stereo (ID: ClearStereo)
Wedge Clean (ID: WedgeClean)
Mesomerize (ID: Mesomerize)
Tautomerize (ID: Tautomerize)
Aromatize (ID: Aromatize)
Add Explicit Hydrogens (ID: AddExplicitH)
Neutralize (ID: Neutralize)
Clean 2D (ID: Clean2D)

> <knn Distance>
3.87298345565796

> <CpId>
3171

$$$$
3183
  Mrv1532301301811342D          

 65 65  0  0  0  0            999 V2000
   -3.7375   -2.3995    0.0000 C   0  0  0  0  0  0  0  0  0  0  0  0
   -3.5660   -1.5926    0.0000 C   0  0  0  0  0  0  0  0  0  0  0  0
   -2.7813   -1.3376    0.0000 C   0  0  0  0  0  0  0  0  0  0  0  0
   -2.6098   -0.5307    0.0000 C   0  0  0  0  0  0  0  0  0  0  0  0
   -1.8252   -0.2757    0.0000 C   0  0  0  0  0  0  0  0  0  0  0  0
   -1.5703   -1.0603    0.0000 C   0  0  0  0  0  0  0  0  0  0  0  0
   -2.0801    0.5089    0.0000 C   0  0  0  0  0  0  0  0  0  0  0  0
   -1.0406   -0.0208    0.0000 C   0  0  0  0  0  0  0  0  0  0  0  0
   -0.4275   -0.5728    0.0000 O   0  0  0  0  0  0  0  0  0  0  0  0
   -0.8690    0.7862    0.0000 C   0  0  0  0  0  0  0  0  0  0  0  0
   -0.0844    1.0411    0.0000 C   0  0  0  0  0  0  0  0  0  0  0  0
    0.0871    1.8481    0.0000 C   0  0  0  0  0  0  0  0  0  0  0  0
   -0.4649    2.4612    0.0000 C   0  0  0  0  0  0  0  0  0  0  0  0
   -1.2854    2.3750    0.0000 O   0  0  0  0  0  0  0  0  0  0  0  0
   -0.0524    3.1757    0.0000 C   0  0  0  0  0  0  0  0  0  0  0  0
    0.7545    3.0041    0.0000 C   0  0  0  0  0  0  0  0  0  0  0  0
    1.3676    3.5562    0.0000 C   0  0  0  0  0  0  0  0  0  0  0  0
    0.8408    2.1837    0.0000 C   0  0  0  0  0  0  0  0  0  0  0  0
    1.5553    1.7712    0.0000 C   0  0  0  0  0  0  0  0  0  0  0  0
    2.2697    2.1837    0.0000 C   0  0  0  0  0  0  0  0  0  0  0  0
    2.9842    1.7712    0.0000 C   0  0  0  0  0  0  0  0  0  0  0  0
    3.6987    2.1837    0.0000 C   0  0  0  0  0  0  0  0  0  0  0  0
    4.4131    1.7712    0.0000 C   0  0  0  0  0  0  0  0  0  0  0  0
    5.1276    2.1837    0.0000 C   0  0  0  0  0  0  0  0  0  0  0  0
    5.8421    1.7712    0.0000 C   0  0  0  0  0  0  0  0  0  0  0  0
    6.5565    2.1837    0.0000 O   0  0  0  0  0  0  0  0  0  0  0  0
    5.8421    0.9462    0.0000 O   0  0  0  0  0  0  0  0  0  0  0  0
   -4.5445   -2.2280    0.0000 H   0  0  0  0  0  0  0  0  0  0  0  0
   -3.9090   -3.2065    0.0000 H   0  0  0  0  0  0  0  0  0  0  0  0
   -2.9305   -2.5711    0.0000 H   0  0  0  0  0  0  0  0  0  0  0  0
   -3.8661   -0.8241    0.0000 H   0  0  0  0  0  0  0  0  0  0  0  0
   -4.3616   -1.3744    0.0000 H   0  0  0  0  0  0  0  0  0  0  0  0
   -2.4812   -2.1061    0.0000 H   0  0  0  0  0  0  0  0  0  0  0  0
   -1.9857   -1.5558    0.0000 H   0  0  0  0  0  0  0  0  0  0  0  0
   -2.9099    0.2378    0.0000 H   0  0  0  0  0  0  0  0  0  0  0  0
   -3.4054   -0.3125    0.0000 H   0  0  0  0  0  0  0  0  0  0  0  0
   -1.2947   -1.8380    0.0000 H   0  0  0  0  0  0  0  0  0  0  0  0
   -0.7604   -1.2176    0.0000 H   0  0  0  0  0  0  0  0  0  0  0  0
   -1.0236   -0.4424    0.0000 H   0  0  0  0  0  0  0  0  0  0  0  0
   -1.2576    0.4445    0.0000 H   0  0  0  0  0  0  0  0  0  0  0  0
   -1.7062    1.2443    0.0000 H   0  0  0  0  0  0  0  0  0  0  0  0
   -2.6167    1.1356    0.0000 H   0  0  0  0  0  0  0  0  0  0  0  0
   -0.2559    0.2342    0.0000 H   0  0  0  0  0  0  0  0  0  0  0  0
    0.3495   -0.8503    0.0000 H   0  0  0  0  0  0  0  0  0  0  0  0
   -0.7922    1.6076    0.0000 H   0  0  0  0  0  0  0  0  0  0  0  0
    0.7225    0.8696    0.0000 H   0  0  0  0  0  0  0  0  0  0  0  0
    0.7283    1.3289    0.0000 H   0  0  0  0  0  0  0  0  0  0  0  0
   -0.9143    3.1531    0.0000 H   0  0  0  0  0  0  0  0  0  0  0  0
   -2.1088    2.3229    0.0000 H   0  0  0  0  0  0  0  0  0  0  0  0
    0.3189    3.9124    0.0000 H   0  0  0  0  0  0  0  0  0  0  0  0
   -0.2833    3.9677    0.0000 H   0  0  0  0  0  0  0  0  0  0  0  0
    2.1523    3.3012    0.0000 H   0  0  0  0  0  0  0  0  0  0  0  0
    1.1961    4.3631    0.0000 H   0  0  0  0  0  0  0  0  0  0  0  0
    1.5327    2.6330    0.0000 H   0  0  0  0  0  0  0  0  0  0  0  0
    1.6823    0.9560    0.0000 H   0  0  0  0  0  0  0  0  0  0  0  0
    2.1805    1.2329    0.0000 H   0  0  0  0  0  0  0  0  0  0  0  0
    2.6907    2.8932    0.0000 H   0  0  0  0  0  0  0  0  0  0  0  0
    3.4202    1.0708    0.0000 H   0  0  0  0  0  0  0  0  0  0  0  0
    4.0689    2.9209    0.0000 H   0  0  0  0  0  0  0  0  0  0  0  0
    3.3284    2.9209    0.0000 H   0  0  0  0  0  0  0  0  0  0  0  0
    4.0429    1.0339    0.0000 H   0  0  0  0  0  0  0  0  0  0  0  0
    4.7834    1.0339    0.0000 H   0  0  0  0  0  0  0  0  0  0  0  0
    5.4979    2.9209    0.0000 H   0  0  0  0  0  0  0  0  0  0  0  0
    4.7573    2.9209    0.0000 H   0  0  0  0  0  0  0  0  0  0  0  0
    7.2710    1.7712    0.0000 H   0  0  0  0  0  0  0  0  0  0  0  0
  1  2  1  0  0  0  0
  2  3  1  0  0  0  0
  3  4  1  0  0  0  0
  4  5  1  0  0  0  0
  5  6  1  0  0  0  0
  5  7  1  0  0  0  0
  5  8  1  0  0  0  0
  8  9  1  0  0  0  0
 10  8  1  4  0  0  0
 10 11  2  0  0  0  0
 11 12  1  0  0  0  0
 12 13  1  0  0  0  0
 13 14  1  0  0  0  0
 13 15  1  0  0  0  0
 15 16  1  0  0  0  0
 16 17  2  0  0  0  0
 16 18  1  0  0  0  0
 12 18  1  0  0  0  0
 18 19  1  0  0  0  0
 20 19  1  4  0  0  0
 20 21  2  0  0  0  0
 21 22  1  0  0  0  0
 22 23  1  0  0  0  0
 23 24  1  0  0  0  0
 24 25  1  0  0  0  0
 25 26  1  0  0  0  0
 25 27  2  0  0  0  0
  1 28  1  0  0  0  0
  1 29  1  0  0  0  0
  1 30  1  0  0  0  0
  2 31  1  0  0  0  0
  2 32  1  0  0  0  0
  3 33  1  0  0  0  0
  3 34  1  0  0  0  0
  4 35  1  0  0  0  0
  4 36  1  0  0  0  0
  6 37  1  0  0  0  0
  6 38  1  0  0  0  0
  6 39  1  0  0  0  0
  7 40  1  0  0  0  0
  7 41  1  0  0  0  0
  7 42  1  0  0  0  0
  8 43  1  0  0  0  0
  9 44  1  0  0  0  0
 10 45  1  0  0  0  0
 11 46  1  0  0  0  0
 12 47  1  0  0  0  0
 13 48  1  0  0  0  0
 14 49  1  0  0  0  0
 15 50  1  0  0  0  0
 15 51  1  0  0  0  0
 17 52  1  4  0  0  0
 17 53  1  0  0  0  0
 18 54  1  0  0  0  0
 19 55  1  0  0  0  0
 19 56  1  0  0  0  0
 20 57  1  0  0  0  0
 21 58  1  0  0  0  0
 22 59  1  0  0  0  0
 22 60  1  0  0  0  0
 23 61  1  0  0  0  0
 23 62  1  0  0  0  0
 24 63  1  0  0  0  0
 24 64  1  0  0  0  0
 26 65  1  0  0  0  0
M  END
>  <InChIKey>
InChI=1S/C23H38O4/c1-5-6-15-23(3,4)21(25)14-13-19-18(17(2)16-20(19)24)11-9-7-8-10-12-22(26)27/h7,9,13-14,18-21,24-25H,2,5-6,8,10-12,15-16H2,1,3-4H3,(H,26,27)

>  <CASRN>
61263-35-2

> <Outcome>
0

>  <Index>
3183

>  <StandardizerResult>
Clear Stereo (ID: ClearStereo)
Wedge Clean (ID: WedgeClean)
Mesomerize (ID: Mesomerize)
Tautomerize (ID: Tautomerize)
Add Explicit Hydrogens (ID: AddExplicitH)
Neutralize (ID: Neutralize)
Clean 2D (ID: Clean2D)

> <knn Distance>
3.87298345565796

> <CpId>
3183

$$$$
3263
  Mrv1532301301811342D          

 36 35  0  0  0  0            999 V2000
   -3.0277    0.6561    0.0000 C   0  0  0  0  0  0  0  0  0  0  0  0
   -2.3132    0.2436    0.0000 O   0  0  0  0  0  0  0  0  0  0  0  0
   -1.5987    0.6561    0.0000 Si  0  0  0  0  0  0  0  0  0  0  0  0
   -0.8843    1.0686    0.0000 C   0  0  0  0  0  0  0  0  0  0  0  0
   -0.1698    0.6561    0.0000 C   0  0  0  0  0  0  0  0  0  0  0  0
    0.5447    1.0686    0.0000 C   0  0  0  0  0  0  0  0  0  0  0  0
    1.2592    0.6561    0.0000 O   0  0  0  0  0  0  0  0  0  0  0  0
    1.9736    1.0686    0.0000 C   0  0  0  0  0  0  0  0  0  0  0  0
    1.9736    1.8936    0.0000 O   0  0  0  0  0  0  0  0  0  0  0  0
    2.6881    0.6561    0.0000 C   0  0  0  0  0  0  0  0  0  0  0  0
    3.4026    1.0686    0.0000 C   0  0  0  0  0  0  0  0  0  0  0  0
    2.6881   -0.1689    0.0000 C   0  0  0  0  0  0  0  0  0  0  0  0
   -1.1862   -0.0584    0.0000 O   0  0  0  0  0  0  0  0  0  0  0  0
   -0.3612   -0.0584    0.0000 C   0  0  0  0  0  0  0  0  0  0  0  0
   -2.0112    1.3706    0.0000 O   0  0  0  0  0  0  0  0  0  0  0  0
   -1.5987    2.0851    0.0000 C   0  0  0  0  0  0  0  0  0  0  0  0
   -2.6152    1.3706    0.0000 H   0  0  0  0  0  0  0  0  0  0  0  0
   -3.7421    1.0686    0.0000 H   0  0  0  0  0  0  0  0  0  0  0  0
   -3.4402   -0.0584    0.0000 H   0  0  0  0  0  0  0  0  0  0  0  0
   -0.5140    1.8059    0.0000 H   0  0  0  0  0  0  0  0  0  0  0  0
   -1.2545    1.8059    0.0000 H   0  0  0  0  0  0  0  0  0  0  0  0
    0.4847    0.1539    0.0000 H   0  0  0  0  0  0  0  0  0  0  0  0
   -0.1698    1.4811    0.0000 H   0  0  0  0  0  0  0  0  0  0  0  0
    1.1767    1.5989    0.0000 H   0  0  0  0  0  0  0  0  0  0  0  0
    0.6879    1.8811    0.0000 H   0  0  0  0  0  0  0  0  0  0  0  0
    3.8151    0.3541    0.0000 H   0  0  0  0  0  0  0  0  0  0  0  0
    4.1170    1.4811    0.0000 H   0  0  0  0  0  0  0  0  0  0  0  0
    2.9901    1.7831    0.0000 H   0  0  0  0  0  0  0  0  0  0  0  0
    1.9736   -0.5814    0.0000 H   0  0  0  0  0  0  0  0  0  0  0  0
    3.4026   -0.5814    0.0000 H   0  0  0  0  0  0  0  0  0  0  0  0
   -0.5681   -0.8570    0.0000 H   0  0  0  0  0  0  0  0  0  0  0  0
    0.0338   -0.7826    0.0000 H   0  0  0  0  0  0  0  0  0  0  0  0
   -0.8635    0.5962    0.0000 H   0  0  0  0  0  0  0  0  0  0  0  0
   -0.8895    2.5064    0.0000 H   0  0  0  0  0  0  0  0  0  0  0  0
   -1.7488    2.8963    0.0000 H   0  0  0  0  0  0  0  0  0  0  0  0
   -2.4118    2.2249    0.0000 H   0  0  0  0  0  0  0  0  0  0  0  0
  1  2  1  0  0  0  0
  2  3  1  0  0  0  0
  3  4  1  0  0  0  0
  4  5  1  0  0  0  0
  5  6  1  0  0  0  0
  6  7  1  0  0  0  0
  7  8  1  0  0  0  0
  8  9  2  0  0  0  0
  8 10  1  0  0  0  0
 10 11  1  0  0  0  0
 10 12  2  0  0  0  0
  3 13  1  0  0  0  0
 13 14  1  0  0  0  0
  3 15  1  0  0  0  0
 15 16  1  0  0  0  0
  1 17  1  0  0  0  0
  1 18  1  0  0  0  0
  1 19  1  0  0  0  0
  4 20  1  0  0  0  0
  4 21  1  0  0  0  0
  5 22  1  0  0  0  0
  5 23  1  0  0  0  0
  6 24  1  0  0  0  0
  6 25  1  0  0  0  0
 11 26  1  0  0  0  0
 11 27  1  0  0  0  0
 11 28  1  0  0  0  0
 12 29  1  0  0  0  0
 12 30  1  0  0  0  0
 14 31  1  0  0  0  0
 14 32  1  0  0  0  0
 14 33  1  0  0  0  0
 16 34  1  0  0  0  0
 16 35  1  0  0  0  0
 16 36  1  0  0  0  0
M  END
>  <InChIKey>
InChI=1S/C10H20O5Si/c1-9(2)10(11)15-7-6-8-16(12-3,13-4)14-5/h1,6-8H2,2-5H3

>  <UN GHS>
Non-irritant

>  <CASRN>
2530-85-0

> <Outcome>
0

>  <Index>
3263

>  <StandardizerResult>
Clear Stereo (ID: ClearStereo)
Wedge Clean (ID: WedgeClean)
Mesomerize (ID: Mesomerize)
Tautomerize (ID: Tautomerize)
Add Explicit Hydrogens (ID: AddExplicitH)
Neutralize (ID: Neutralize)
Clean 2D (ID: Clean2D)

> <knn Distance>
3.87298345565796

> <CpId>
3263

$$$$
3340
  Mrv1532301301811342D          

 34 34  0  0  0  0            999 V2000
   -2.2201   -1.2341    0.0000 C   0  0  0  0  0  0  0  0  0  0  0  0
   -1.5057   -1.6466    0.0000 C   0  0  0  0  0  0  0  0  0  0  0  0
   -0.7912   -1.2341    0.0000 N   0  0  0  0  0  0  0  0  0  0  0  0
   -0.7912   -0.4091    0.0000 C   0  0  0  0  0  0  0  0  0  0  0  0
   -1.5057    0.0034    0.0000 C   0  0  0  0  0  0  0  0  0  0  0  0
   -0.0767   -1.6466    0.0000 C   0  0  0  0  0  0  0  0  0  0  0  0
   -0.0767   -2.4716    0.0000 C   0  0  0  0  0  0  0  0  0  0  0  0
    0.6377   -1.2341    0.0000 C   0  0  0  0  0  0  0  0  0  0  0  0
    1.3522   -1.6466    0.0000 O   0  0  0  0  0  0  0  0  0  0  0  0
    0.6377   -0.4091    0.0000 C   0  0  0  0  0  0  0  0  0  0  0  0
   -0.0767    0.0034    0.0000 C   0  0  0  0  0  0  0  0  0  0  0  0
   -0.0767    0.8284    0.0000 C   0  0  0  0  0  0  0  0  0  0  0  0
    0.6377    1.2409    0.0000 C   0  0  0  0  0  0  0  0  0  0  0  0
    1.3522    0.8284    0.0000 C   0  0  0  0  0  0  0  0  0  0  0  0
    1.3522    0.0034    0.0000 C   0  0  0  0  0  0  0  0  0  0  0  0
   -1.8076   -0.5197    0.0000 H   0  0  0  0  0  0  0  0  0  0  0  0
   -2.9346   -0.8216    0.0000 H   0  0  0  0  0  0  0  0  0  0  0  0
   -2.6326   -1.9486    0.0000 H   0  0  0  0  0  0  0  0  0  0  0  0
   -1.8759   -2.3839    0.0000 H   0  0  0  0  0  0  0  0  0  0  0  0
   -1.1354   -2.3839    0.0000 H   0  0  0  0  0  0  0  0  0  0  0  0
   -0.0767   -0.8216    0.0000 H   0  0  0  0  0  0  0  0  0  0  0  0
   -1.5057   -0.8216    0.0000 H   0  0  0  0  0  0  0  0  0  0  0  0
   -0.8512    0.5056    0.0000 H   0  0  0  0  0  0  0  0  0  0  0  0
   -1.7192    0.8003    0.0000 H   0  0  0  0  0  0  0  0  0  0  0  0
   -2.3236    0.1111    0.0000 H   0  0  0  0  0  0  0  0  0  0  0  0
   -0.7912   -2.0591    0.0000 H   0  0  0  0  0  0  0  0  0  0  0  0
   -0.6601   -3.0550    0.0000 H   0  0  0  0  0  0  0  0  0  0  0  0
    0.3358   -3.1861    0.0000 H   0  0  0  0  0  0  0  0  0  0  0  0
    0.7202   -2.2581    0.0000 H   0  0  0  0  0  0  0  0  0  0  0  0
    0.6377    0.4159    0.0000 H   0  0  0  0  0  0  0  0  0  0  0  0
   -0.4424    1.5679    0.0000 H   0  0  0  0  0  0  0  0  0  0  0  0
    0.6377    2.0659    0.0000 H   0  0  0  0  0  0  0  0  0  0  0  0
    2.0667    1.2409    0.0000 H   0  0  0  0  0  0  0  0  0  0  0  0
    2.0667   -0.4091    0.0000 H   0  0  0  0  0  0  0  0  0  0  0  0
  1  2  1  0  0  0  0
  2  3  1  0  0  0  0
  3  4  1  0  0  0  0
  4  5  1  0  0  0  0
  3  6  1  0  0  0  0
  6  7  1  0  0  0  0
  6  8  1  0  0  0  0
  8  9  2  0  0  0  0
  8 10  1  0  0  0  0
 10 11  4  0  0  0  0
 11 12  4  0  0  0  0
 12 13  4  0  0  0  0
 13 14  4  0  0  0  0
 14 15  4  0  0  0  0
 10 15  4  0  0  0  0
  1 16  1  0  0  0  0
  1 17  1  0  0  0  0
  1 18  1  0  0  0  0
  2 19  1  0  0  0  0
  2 20  1  0  0  0  0
  4 21  1  0  0  0  0
  4 22  1  0  0  0  0
  5 23  1  0  0  0  0
  5 24  1  0  0  0  0
  5 25  1  0  0  0  0
  6 26  1  0  0  0  0
  7 27  1  0  0  0  0
  7 28  1  0  0  0  0
  7 29  1  0  0  0  0
 11 30  1  0  0  0  0
 12 31  1  0  0  0  0
 13 32  1  0  0  0  0
 14 33  1  0  0  0  0
 15 34  1  0  0  0  0
M  END
>  <InChIKey>
InChI=1S/C13H19NO/c1-4-14(5-2)11(3)13(15)12-9-7-6-8-10-12/h6-11H,4-5H2,1-3H3

>  <CASRN>
90-84-6

> <Outcome>
0

>  <Index>
3340

>  <StandardizerResult>
Dearomatize (ID: Dearomatize)
Clear Stereo (ID: ClearStereo)
Wedge Clean (ID: WedgeClean)
Mesomerize (ID: Mesomerize)
Tautomerize (ID: Tautomerize)
Aromatize (ID: Aromatize)
Add Explicit Hydrogens (ID: AddExplicitH)
Neutralize (ID: Neutralize)
Clean 2D (ID: Clean2D)

> <knn Distance>
3.87298345565796

> <CpId>
3340

$$$$
3483
  Mrv1532301301811342D          

 28 29  0  0  0  0            999 V2000
    2.1434   -0.4125    0.0000 C   0  0  0  0  0  0  0  0  0  0  0  0
    2.1434   -1.2375    0.0000 C   0  0  0  0  0  0  0  0  0  0  0  0
    2.8579   -1.6500    0.0000 C   0  0  0  0  0  0  0  0  0  0  0  0
    2.8579   -2.4750    0.0000 C   0  0  0  0  0  0  0  0  0  0  0  0
    3.5724   -2.8875    0.0000 C   0  0  0  0  0  0  0  0  0  0  0  0
    2.1434   -2.8875    0.0000 N   0  0  0  0  0  0  0  0  0  0  0  0
    1.4289   -2.4750    0.0000 C   0  0  0  0  0  0  0  0  0  0  0  0
    0.7145   -2.8875    0.0000 N   0  0  0  0  0  0  0  0  0  0  0  0
    0.0000   -2.4750    0.0000 C   0  0  0  0  0  0  0  0  0  0  0  0
   -0.7145   -2.8875    0.0000 C   0  0  0  0  0  0  0  0  0  0  0  0
   -1.4289   -2.4750    0.0000 C   0  0  0  0  0  0  0  0  0  0  0  0
   -1.4289   -1.6500    0.0000 C   0  0  0  0  0  0  0  0  0  0  0  0
   -0.7145   -1.2375    0.0000 C   0  0  0  0  0  0  0  0  0  0  0  0
    0.0000   -1.6500    0.0000 C   0  0  0  0  0  0  0  0  0  0  0  0
    1.4289   -1.6500    0.0000 N   0  0  0  0  0  0  0  0  0  0  0  0
    2.9684   -0.4125    0.0000 H   0  0  0  0  0  0  0  0  0  0  0  0
    2.1434    0.4125    0.0000 H   0  0  0  0  0  0  0  0  0  0  0  0
    1.3184   -0.4125    0.0000 H   0  0  0  0  0  0  0  0  0  0  0  0
    3.5724   -1.2375    0.0000 H   0  0  0  0  0  0  0  0  0  0  0  0
    3.1599   -3.6020    0.0000 H   0  0  0  0  0  0  0  0  0  0  0  0
    4.2868   -3.3000    0.0000 H   0  0  0  0  0  0  0  0  0  0  0  0
    3.9849   -2.1730    0.0000 H   0  0  0  0  0  0  0  0  0  0  0  0
    0.7145   -3.7125    0.0000 H   0  0  0  0  0  0  0  0  0  0  0  0
   -0.7145   -3.7125    0.0000 H   0  0  0  0  0  0  0  0  0  0  0  0
   -2.1434   -2.8875    0.0000 H   0  0  0  0  0  0  0  0  0  0  0  0
   -2.1434   -1.2375    0.0000 H   0  0  0  0  0  0  0  0  0  0  0  0
   -0.7145   -0.4125    0.0000 H   0  0  0  0  0  0  0  0  0  0  0  0
    0.7145   -1.2375    0.0000 H   0  0  0  0  0  0  0  0  0  0  0  0
  1  2  1  0  0  0  0
  2  3  4  0  0  0  0
  3  4  4  0  0  0  0
  4  5  1  0  0  0  0
  4  6  4  0  0  0  0
  6  7  4  0  0  0  0
  7  8  1  0  0  0  0
  8  9  1  0  0  0  0
  9 10  4  0  0  0  0
 10 11  4  0  0  0  0
 11 12  4  0  0  0  0
 12 13  4  0  0  0  0
 13 14  4  0  0  0  0
  9 14  4  0  0  0  0
  7 15  4  0  0  0  0
  2 15  4  0  0  0  0
  1 16  1  0  0  0  0
  1 17  1  0  0  0  0
  1 18  1  0  0  0  0
  3 19  1  0  0  0  0
  5 20  1  0  0  0  0
  5 21  1  0  0  0  0
  5 22  1  0  0  0  0
  8 23  1  0  0  0  0
 10 24  1  0  0  0  0
 11 25  1  0  0  0  0
 12 26  1  0  0  0  0
 13 27  1  0  0  0  0
 14 28  1  0  0  0  0
M  END
>  <InChIKey>
InChI=1S/C12H13N3/c1-9-8-10(2)14-12(13-9)15-11-6-4-3-5-7-11/h3-8H,1-2H3,(H,13,14,15)

>  <UN GHS>
Non-irritant

>  <CASRN>
53112-28-0

> <Outcome>
0

>  <Index>
3483

>  <StandardizerResult>
Dearomatize (ID: Dearomatize)
Clear Stereo (ID: ClearStereo)
Wedge Clean (ID: WedgeClean)
Mesomerize (ID: Mesomerize)
Tautomerize (ID: Tautomerize)
Aromatize (ID: Aromatize)
Add Explicit Hydrogens (ID: AddExplicitH)
Neutralize (ID: Neutralize)
Clean 2D (ID: Clean2D)

> <knn Distance>
3.87298345565796

> <CpId>
3483

$$$$
20
  Mrv1532301301811342D          

 30 29  0  0  0  0            999 V2000
    2.5609   -1.4238    0.0000 C   0  0  0  0  0  0  0  0  0  0  0  0
    1.7359   -1.4238    0.0000 C   0  0  0  0  0  0  0  0  0  0  0  0
    1.3234   -0.7093    0.0000 C   0  0  0  0  0  0  0  0  0  0  0  0
    2.0378   -0.2968    0.0000 C   0  0  0  0  0  0  0  0  0  0  0  0
    0.9109    0.0051    0.0000 N   0  0  0  0  0  0  0  0  0  0  0  0
    0.0859    0.0051    0.0000 N   0  0  0  0  0  0  0  0  0  0  0  0
   -0.3266    0.7196    0.0000 C   0  0  0  0  0  0  0  0  0  0  0  0
    0.3878    1.1321    0.0000 C   0  0  0  0  0  0  0  0  0  0  0  0
   -0.7391    1.4341    0.0000 C   0  0  0  0  0  0  0  0  0  0  0  0
   -1.5641    1.4341    0.0000 C   0  0  0  0  0  0  0  0  0  0  0  0
   -1.0411    0.3071    0.0000 C   0  0  0  0  0  0  0  0  0  0  0  0
   -1.7556   -0.1054    0.0000 N   0  0  0  0  0  0  0  0  0  0  0  0
    0.6089   -1.1218    0.0000 C   0  0  0  0  0  0  0  0  0  0  0  0
   -0.1056   -1.5343    0.0000 N   0  0  0  0  0  0  0  0  0  0  0  0
    2.5609   -2.2488    0.0000 H   0  0  0  0  0  0  0  0  0  0  0  0
    3.3859   -1.4238    0.0000 H   0  0  0  0  0  0  0  0  0  0  0  0
    2.5609   -0.5988    0.0000 H   0  0  0  0  0  0  0  0  0  0  0  0
    1.0466   -1.8772    0.0000 H   0  0  0  0  0  0  0  0  0  0  0  0
    1.6879   -2.2474    0.0000 H   0  0  0  0  0  0  0  0  0  0  0  0
    2.7523    0.1157    0.0000 H   0  0  0  0  0  0  0  0  0  0  0  0
    2.0378    0.5282    0.0000 H   0  0  0  0  0  0  0  0  0  0  0  0
    1.3234    0.1157    0.0000 H   0  0  0  0  0  0  0  0  0  0  0  0
    0.8003    0.4176    0.0000 H   0  0  0  0  0  0  0  0  0  0  0  0
    1.1023    1.5446    0.0000 H   0  0  0  0  0  0  0  0  0  0  0  0
   -0.0247    1.8466    0.0000 H   0  0  0  0  0  0  0  0  0  0  0  0
   -0.9527    2.2310    0.0000 H   0  0  0  0  0  0  0  0  0  0  0  0
   -1.1516    0.7196    0.0000 H   0  0  0  0  0  0  0  0  0  0  0  0
   -1.3506    2.2310    0.0000 H   0  0  0  0  0  0  0  0  0  0  0  0
   -2.2786    1.8466    0.0000 H   0  0  0  0  0  0  0  0  0  0  0  0
   -2.1475    0.8507    0.0000 H   0  0  0  0  0  0  0  0  0  0  0  0
  1  2  1  0  0  0  0
  2  3  1  0  0  0  0
  3  4  1  0  0  0  0
  5  3  1  4  0  0  0
  5  6  2  0  0  0  0
  6  7  1  0  0  0  0
  7  8  1  0  0  0  0
  7  9  1  0  0  0  0
  9 10  1  0  0  0  0
  7 11  1  0  0  0  0
 11 12  3  0  0  0  0
  3 13  1  0  0  0  0
 13 14  3  0  0  0  0
  1 15  1  0  0  0  0
  1 16  1  0  0  0  0
  1 17  1  0  0  0  0
  2 18  1  0  0  0  0
  2 19  1  0  0  0  0
  4 20  1  0  0  0  0
  4 21  1  0  0  0  0
  4 22  1  0  0  0  0
  8 23  1  0  0  0  0
  8 24  1  0  0  0  0
  8 25  1  0  0  0  0
  9 26  1  0  0  0  0
  9 27  1  0  0  0  0
 10 28  1  0  0  0  0
 10 29  1  0  0  0  0
 10 30  1  0  0  0  0
M  END
>  <InChIKey>
AVTLBBWTUPQRAY-UHFFFAOYSA-N

>  <UN GHS>
Non-irritant

>  <CASRN>
13472-08-7

> <Outcome>
0

>  <Index>
20

>  <StandardizerResult>
Clear Stereo (ID: ClearStereo)
Wedge Clean (ID: WedgeClean)
Mesomerize (ID: Mesomerize)
Tautomerize (ID: Tautomerize)
Add Explicit Hydrogens (ID: AddExplicitH)
Neutralize (ID: Neutralize)
Clean 2D (ID: Clean2D)

> <knn Distance>
4.0

> <CpId>
20

$$$$
45
  Mrv1532301301811342D          

193196  0  0  0  0            999 V2000
   -1.6833   -3.7833    0.0000 C   0  0  0  0  0  0  0  0  0  0  0  0
   -1.6833   -4.6083    0.0000 C   0  0  0  0  0  0  0  0  0  0  0  0
   -2.5083   -4.6083    0.0000 C   0  0  0  0  0  0  0  0  0  0  0  0
   -0.8583   -4.6083    0.0000 C   0  0  0  0  0  0  0  0  0  0  0  0
   -1.6833   -5.4333    0.0000 C   0  0  0  0  0  0  0  0  0  0  0  0
   -0.9688   -5.8458    0.0000 C   0  0  0  0  0  0  0  0  0  0  0  0
   -0.9688   -6.6708    0.0000 C   0  0  0  0  0  0  0  0  0  0  0  0
   -0.2543   -7.0833    0.0000 C   0  0  0  0  0  0  0  0  0  0  0  0
    0.4602   -6.6708    0.0000 C   0  0  0  0  0  0  0  0  0  0  0  0
    1.1746   -7.0833    0.0000 C   0  0  0  0  0  0  0  0  0  0  0  0
    1.1746   -7.9083    0.0000 O   0  0  0  0  0  0  0  0  0  0  0  0
    1.8891   -6.6708    0.0000 O   0  0  0  0  0  0  0  0  0  0  0  0
    2.6036   -7.0833    0.0000 C   0  0  0  0  0  0  0  0  0  0  0  0
    3.3180   -6.6708    0.0000 C   0  0  0  0  0  0  0  0  0  0  0  0
    4.0325   -6.2583    0.0000 C   0  0  0  0  0  0  0  0  0  0  0  0
    4.7470   -6.6708    0.0000 O   0  0  0  0  0  0  0  0  0  0  0  0
    5.4615   -6.2583    0.0000 C   0  0  0  0  0  0  0  0  0  0  0  0
    5.4615   -5.4333    0.0000 O   0  0  0  0  0  0  0  0  0  0  0  0
    6.1759   -6.6708    0.0000 C   0  0  0  0  0  0  0  0  0  0  0  0
    6.8904   -6.2583    0.0000 C   0  0  0  0  0  0  0  0  0  0  0  0
    7.6049   -6.6708    0.0000 C   0  0  0  0  0  0  0  0  0  0  0  0
    8.3193   -6.2583    0.0000 C   0  0  0  0  0  0  0  0  0  0  0  0
    9.0338   -6.6708    0.0000 C   0  0  0  0  0  0  0  0  0  0  0  0
    9.0338   -7.4958    0.0000 C   0  0  0  0  0  0  0  0  0  0  0  0
    9.7483   -7.9083    0.0000 O   0  0  0  0  0  0  0  0  0  0  0  0
    8.3193   -7.9083    0.0000 C   0  0  0  0  0  0  0  0  0  0  0  0
    7.6049   -7.4958    0.0000 C   0  0  0  0  0  0  0  0  0  0  0  0
    8.3193   -8.7333    0.0000 C   0  0  0  0  0  0  0  0  0  0  0  0
    8.3193   -9.5583    0.0000 C   0  0  0  0  0  0  0  0  0  0  0  0
    7.4943   -8.7333    0.0000 C   0  0  0  0  0  0  0  0  0  0  0  0
    9.1443   -8.7333    0.0000 C   0  0  0  0  0  0  0  0  0  0  0  0
    9.7483   -6.2583    0.0000 C   0  0  0  0  0  0  0  0  0  0  0  0
   10.4628   -5.8458    0.0000 C   0  0  0  0  0  0  0  0  0  0  0  0
   10.1608   -6.9728    0.0000 C   0  0  0  0  0  0  0  0  0  0  0  0
    9.3358   -5.5438    0.0000 C   0  0  0  0  0  0  0  0  0  0  0  0
    3.7305   -7.3853    0.0000 C   0  0  0  0  0  0  0  0  0  0  0  0
    3.3180   -8.0997    0.0000 O   0  0  0  0  0  0  0  0  0  0  0  0
    2.4930   -8.0997    0.0000 C   0  0  0  0  0  0  0  0  0  0  0  0
    2.0805   -7.3853    0.0000 O   0  0  0  0  0  0  0  0  0  0  0  0
    2.0805   -8.8142    0.0000 C   0  0  0  0  0  0  0  0  0  0  0  0
    2.4930   -9.5287    0.0000 C   0  0  0  0  0  0  0  0  0  0  0  0
    2.0805  -10.2431    0.0000 C   0  0  0  0  0  0  0  0  0  0  0  0
    2.4930  -10.9576    0.0000 C   0  0  0  0  0  0  0  0  0  0  0  0
    2.0805  -11.6721    0.0000 C   0  0  0  0  0  0  0  0  0  0  0  0
    1.2555  -11.6721    0.0000 C   0  0  0  0  0  0  0  0  0  0  0  0
    0.8430  -12.3866    0.0000 O   0  0  0  0  0  0  0  0  0  0  0  0
    0.8430  -10.9576    0.0000 C   0  0  0  0  0  0  0  0  0  0  0  0
    1.2555  -10.2431    0.0000 C   0  0  0  0  0  0  0  0  0  0  0  0
    0.0180  -10.9576    0.0000 C   0  0  0  0  0  0  0  0  0  0  0  0
   -0.8070  -10.9576    0.0000 C   0  0  0  0  0  0  0  0  0  0  0  0
    0.0180  -10.1326    0.0000 C   0  0  0  0  0  0  0  0  0  0  0  0
    0.0180  -11.7826    0.0000 C   0  0  0  0  0  0  0  0  0  0  0  0
    2.4930  -12.3866    0.0000 C   0  0  0  0  0  0  0  0  0  0  0  0
    2.9055  -13.1010    0.0000 C   0  0  0  0  0  0  0  0  0  0  0  0
    1.7786  -12.7991    0.0000 C   0  0  0  0  0  0  0  0  0  0  0  0
    3.2075  -11.9741    0.0000 C   0  0  0  0  0  0  0  0  0  0  0  0
    2.9055   -5.9563    0.0000 C   0  0  0  0  0  0  0  0  0  0  0  0
    3.3180   -5.2419    0.0000 O   0  0  0  0  0  0  0  0  0  0  0  0
    2.9055   -4.5274    0.0000 C   0  0  0  0  0  0  0  0  0  0  0  0
    2.0805   -4.5274    0.0000 O   0  0  0  0  0  0  0  0  0  0  0  0
    3.3180   -3.8129    0.0000 C   0  0  0  0  0  0  0  0  0  0  0  0
    2.9055   -3.0984    0.0000 C   0  0  0  0  0  0  0  0  0  0  0  0
    3.3180   -2.3840    0.0000 C   0  0  0  0  0  0  0  0  0  0  0  0
    2.9055   -1.6695    0.0000 C   0  0  0  0  0  0  0  0  0  0  0  0
    3.3180   -0.9550    0.0000 C   0  0  0  0  0  0  0  0  0  0  0  0
    4.1430   -0.9550    0.0000 C   0  0  0  0  0  0  0  0  0  0  0  0
    4.5555   -0.2406    0.0000 O   0  0  0  0  0  0  0  0  0  0  0  0
    4.5555   -1.6695    0.0000 C   0  0  0  0  0  0  0  0  0  0  0  0
    4.1430   -2.3840    0.0000 C   0  0  0  0  0  0  0  0  0  0  0  0
    5.3805   -1.6695    0.0000 C   0  0  0  0  0  0  0  0  0  0  0  0
    6.2055   -1.6695    0.0000 C   0  0  0  0  0  0  0  0  0  0  0  0
    5.3805   -2.4945    0.0000 C   0  0  0  0  0  0  0  0  0  0  0  0
    5.3805   -0.8445    0.0000 C   0  0  0  0  0  0  0  0  0  0  0  0
    2.9055   -0.2406    0.0000 C   0  0  0  0  0  0  0  0  0  0  0  0
    2.4930    0.4739    0.0000 C   0  0  0  0  0  0  0  0  0  0  0  0
    3.6200    0.1719    0.0000 C   0  0  0  0  0  0  0  0  0  0  0  0
    2.1911   -0.6531    0.0000 C   0  0  0  0  0  0  0  0  0  0  0  0
   -1.6833   -7.0833    0.0000 C   0  0  0  0  0  0  0  0  0  0  0  0
   -2.3977   -6.6708    0.0000 C   0  0  0  0  0  0  0  0  0  0  0  0
   -2.3977   -5.8458    0.0000 C   0  0  0  0  0  0  0  0  0  0  0  0
   -3.1122   -5.4333    0.0000 O   0  0  0  0  0  0  0  0  0  0  0  0
   -3.1122   -7.0833    0.0000 C   0  0  0  0  0  0  0  0  0  0  0  0
   -3.8267   -7.4958    0.0000 C   0  0  0  0  0  0  0  0  0  0  0  0
   -3.5247   -6.3688    0.0000 C   0  0  0  0  0  0  0  0  0  0  0  0
   -2.6997   -7.7978    0.0000 C   0  0  0  0  0  0  0  0  0  0  0  0
   -0.8583   -3.7833    0.0000 H   0  0  0  0  0  0  0  0  0  0  0  0
   -1.6833   -2.9583    0.0000 H   0  0  0  0  0  0  0  0  0  0  0  0
   -2.5083   -3.7833    0.0000 H   0  0  0  0  0  0  0  0  0  0  0  0
   -3.2705   -4.2926    0.0000 H   0  0  0  0  0  0  0  0  0  0  0  0
   -3.0916   -5.1917    0.0000 H   0  0  0  0  0  0  0  0  0  0  0  0
   -2.1925   -5.3705    0.0000 H   0  0  0  0  0  0  0  0  0  0  0  0
   -1.1740   -5.3705    0.0000 H   0  0  0  0  0  0  0  0  0  0  0  0
   -0.2749   -5.1917    0.0000 H   0  0  0  0  0  0  0  0  0  0  0  0
   -0.0960   -4.2926    0.0000 H   0  0  0  0  0  0  0  0  0  0  0  0
   -0.2113   -6.1727    0.0000 H   0  0  0  0  0  0  0  0  0  0  0  0
   -0.6246   -7.8205    0.0000 H   0  0  0  0  0  0  0  0  0  0  0  0
    0.1160   -7.8205    0.0000 H   0  0  0  0  0  0  0  0  0  0  0  0
    1.1899   -6.2859    0.0000 H   0  0  0  0  0  0  0  0  0  0  0  0
    0.5231   -5.8482    0.0000 H   0  0  0  0  0  0  0  0  0  0  0  0
    2.7468   -7.8958    0.0000 H   0  0  0  0  0  0  0  0  0  0  0  0
    3.2356   -7.6136    0.0000 H   0  0  0  0  0  0  0  0  0  0  0  0
    4.4028   -5.5210    0.0000 H   0  0  0  0  0  0  0  0  0  0  0  0
    3.6623   -5.5210    0.0000 H   0  0  0  0  0  0  0  0  0  0  0  0
    5.8057   -7.4080    0.0000 H   0  0  0  0  0  0  0  0  0  0  0  0
    6.5462   -7.4080    0.0000 H   0  0  0  0  0  0  0  0  0  0  0  0
    7.2607   -5.5210    0.0000 H   0  0  0  0  0  0  0  0  0  0  0  0
    6.5201   -5.5210    0.0000 H   0  0  0  0  0  0  0  0  0  0  0  0
    8.3193   -5.4333    0.0000 H   0  0  0  0  0  0  0  0  0  0  0  0
    9.7483   -8.7333    0.0000 H   0  0  0  0  0  0  0  0  0  0  0  0
    6.8904   -7.9083    0.0000 H   0  0  0  0  0  0  0  0  0  0  0  0
    7.4943   -9.5583    0.0000 H   0  0  0  0  0  0  0  0  0  0  0  0
    8.3193  -10.3833    0.0000 H   0  0  0  0  0  0  0  0  0  0  0  0
    9.1443   -9.5583    0.0000 H   0  0  0  0  0  0  0  0  0  0  0  0
    7.8101   -7.9711    0.0000 H   0  0  0  0  0  0  0  0  0  0  0  0
    6.9110   -8.1499    0.0000 H   0  0  0  0  0  0  0  0  0  0  0  0
    6.7321   -9.0490    0.0000 H   0  0  0  0  0  0  0  0  0  0  0  0
    9.4265   -7.9580    0.0000 H   0  0  0  0  0  0  0  0  0  0  0  0
    8.8622   -7.9580    0.0000 H   0  0  0  0  0  0  0  0  0  0  0  0
    9.7277   -9.3167    0.0000 H   0  0  0  0  0  0  0  0  0  0  0  0
   10.8753   -6.5603    0.0000 H   0  0  0  0  0  0  0  0  0  0  0  0
   11.1772   -5.4333    0.0000 H   0  0  0  0  0  0  0  0  0  0  0  0
   10.0503   -5.1313    0.0000 H   0  0  0  0  0  0  0  0  0  0  0  0
    9.3428   -7.0804    0.0000 H   0  0  0  0  0  0  0  0  0  0  0  0
    9.9473   -7.7697    0.0000 H   0  0  0  0  0  0  0  0  0  0  0  0
   10.8153   -7.4750    0.0000 H   0  0  0  0  0  0  0  0  0  0  0  0
    9.2281   -4.7259    0.0000 H   0  0  0  0  0  0  0  0  0  0  0  0
    8.5389   -5.3303    0.0000 H   0  0  0  0  0  0  0  0  0  0  0  0
    8.8336   -6.1983    0.0000 H   0  0  0  0  0  0  0  0  0  0  0  0
    4.4678   -7.7555    0.0000 H   0  0  0  0  0  0  0  0  0  0  0  0
    4.4678   -7.0150    0.0000 H   0  0  0  0  0  0  0  0  0  0  0  0
    1.3433   -8.4439    0.0000 H   0  0  0  0  0  0  0  0  0  0  0  0
    1.3433   -9.1845    0.0000 H   0  0  0  0  0  0  0  0  0  0  0  0
    3.2303   -9.8989    0.0000 H   0  0  0  0  0  0  0  0  0  0  0  0
    3.2303   -9.1584    0.0000 H   0  0  0  0  0  0  0  0  0  0  0  0
    3.3180  -10.9576    0.0000 H   0  0  0  0  0  0  0  0  0  0  0  0
    0.0180  -12.3866    0.0000 H   0  0  0  0  0  0  0  0  0  0  0  0
    0.8430   -9.5287    0.0000 H   0  0  0  0  0  0  0  0  0  0  0  0
   -0.8070  -10.1326    0.0000 H   0  0  0  0  0  0  0  0  0  0  0  0
   -1.6320  -10.9576    0.0000 H   0  0  0  0  0  0  0  0  0  0  0  0
   -0.8070  -11.7826    0.0000 H   0  0  0  0  0  0  0  0  0  0  0  0
    0.7802  -10.4483    0.0000 H   0  0  0  0  0  0  0  0  0  0  0  0
    0.6014   -9.5493    0.0000 H   0  0  0  0  0  0  0  0  0  0  0  0
   -0.2977   -9.3704    0.0000 H   0  0  0  0  0  0  0  0  0  0  0  0
    0.7933  -12.0648    0.0000 H   0  0  0  0  0  0  0  0  0  0  0  0
    0.7933  -11.5005    0.0000 H   0  0  0  0  0  0  0  0  0  0  0  0
   -0.5653  -12.3660    0.0000 H   0  0  0  0  0  0  0  0  0  0  0  0
    2.1911  -13.5135    0.0000 H   0  0  0  0  0  0  0  0  0  0  0  0
    3.3180  -13.8155    0.0000 H   0  0  0  0  0  0  0  0  0  0  0  0
    3.6200  -12.6885    0.0000 H   0  0  0  0  0  0  0  0  0  0  0  0
    1.6709  -11.9811    0.0000 H   0  0  0  0  0  0  0  0  0  0  0  0
    0.9817  -12.5855    0.0000 H   0  0  0  0  0  0  0  0  0  0  0  0
    1.2763  -13.4536    0.0000 H   0  0  0  0  0  0  0  0  0  0  0  0
    4.0255  -11.8664    0.0000 H   0  0  0  0  0  0  0  0  0  0  0  0
    3.4210  -11.1772    0.0000 H   0  0  0  0  0  0  0  0  0  0  0  0
    2.5530  -11.4718    0.0000 H   0  0  0  0  0  0  0  0  0  0  0  0
    2.1683   -5.5861    0.0000 H   0  0  0  0  0  0  0  0  0  0  0  0
    2.1683   -6.3266    0.0000 H   0  0  0  0  0  0  0  0  0  0  0  0
    4.0553   -4.1832    0.0000 H   0  0  0  0  0  0  0  0  0  0  0  0
    4.0553   -3.4427    0.0000 H   0  0  0  0  0  0  0  0  0  0  0  0
    2.1683   -2.7282    0.0000 H   0  0  0  0  0  0  0  0  0  0  0  0
    2.1683   -3.4687    0.0000 H   0  0  0  0  0  0  0  0  0  0  0  0
    2.0805   -1.6695    0.0000 H   0  0  0  0  0  0  0  0  0  0  0  0
    5.3805   -0.2406    0.0000 H   0  0  0  0  0  0  0  0  0  0  0  0
    4.5555   -3.0984    0.0000 H   0  0  0  0  0  0  0  0  0  0  0  0
    6.2055   -2.4945    0.0000 H   0  0  0  0  0  0  0  0  0  0  0  0
    7.0305   -1.6695    0.0000 H   0  0  0  0  0  0  0  0  0  0  0  0
    6.2055   -0.8445    0.0000 H   0  0  0  0  0  0  0  0  0  0  0  0
    4.6183   -2.1788    0.0000 H   0  0  0  0  0  0  0  0  0  0  0  0
    4.7972   -3.0779    0.0000 H   0  0  0  0  0  0  0  0  0  0  0  0
    5.6963   -3.2567    0.0000 H   0  0  0  0  0  0  0  0  0  0  0  0
    4.6053   -0.5623    0.0000 H   0  0  0  0  0  0  0  0  0  0  0  0
    4.6053   -1.1267    0.0000 H   0  0  0  0  0  0  0  0  0  0  0  0
    5.9639   -0.2611    0.0000 H   0  0  0  0  0  0  0  0  0  0  0  0
    3.2075    0.8864    0.0000 H   0  0  0  0  0  0  0  0  0  0  0  0
    2.0805    1.1884    0.0000 H   0  0  0  0  0  0  0  0  0  0  0  0
    1.7786    0.0614    0.0000 H   0  0  0  0  0  0  0  0  0  0  0  0
    3.7277   -0.6460    0.0000 H   0  0  0  0  0  0  0  0  0  0  0  0
    4.4169   -0.0416    0.0000 H   0  0  0  0  0  0  0  0  0  0  0  0
    4.1222    0.8265    0.0000 H   0  0  0  0  0  0  0  0  0  0  0  0
    1.3731   -0.7607    0.0000 H   0  0  0  0  0  0  0  0  0  0  0  0
    1.9775   -1.4499    0.0000 H   0  0  0  0  0  0  0  0  0  0  0  0
    2.8456   -1.1553    0.0000 H   0  0  0  0  0  0  0  0  0  0  0  0
   -1.6833   -7.9083    0.0000 H   0  0  0  0  0  0  0  0  0  0  0  0
   -3.8435   -5.8151    0.0000 H   0  0  0  0  0  0  0  0  0  0  0  0
   -4.2392   -6.7813    0.0000 H   0  0  0  0  0  0  0  0  0  0  0  0
   -4.5411   -7.9083    0.0000 H   0  0  0  0  0  0  0  0  0  0  0  0
   -3.4142   -8.2103    0.0000 H   0  0  0  0  0  0  0  0  0  0  0  0
   -2.6997   -6.3691    0.0000 H   0  0  0  0  0  0  0  0  0  0  0  0
   -3.1116   -5.6547    0.0000 H   0  0  0  0  0  0  0  0  0  0  0  0
   -4.3215   -6.1548    0.0000 H   0  0  0  0  0  0  0  0  0  0  0  0
   -2.5920   -8.6157    0.0000 H   0  0  0  0  0  0  0  0  0  0  0  0
   -1.9028   -8.0113    0.0000 H   0  0  0  0  0  0  0  0  0  0  0  0
   -2.1975   -7.1432    0.0000 H   0  0  0  0  0  0  0  0  0  0  0  0
  1  2  1  0  0  0  0
  2  3  1  0  0  0  0
  2  4  1  0  0  0  0
  2  5  1  0  0  0  0
  5  6  4  0  0  0  0
  6  7  4  0  0  0  0
  7  8  1  0  0  0  0
  8  9  1  0  0  0  0
  9 10  1  0  0  0  0
 10 11  2  0  0  0  0
 10 12  1  0  0  0  0
 12 13  1  0  0  0  0
 13 14  1  0  0  0  0
 14 15  1  0  0  0  0
 15 16  1  0  0  0  0
 16 17  1  0  0  0  0
 17 18  2  0  0  0  0
 17 19  1  0  0  0  0
 19 20  1  0  0  0  0
 20 21  1  0  0  0  0
 21 22  4  0  0  0  0
 22 23  4  0  0  0  0
 23 24  4  0  0  0  0
 24 25  1  0  0  0  0
 24 26  4  0  0  0  0
 26 27  4  0  0  0  0
 21 27  4  0  0  0  0
 26 28  1  0  0  0  0
 28 29  1  0  0  0  0
 28 30  1  0  0  0  0
 28 31  1  0  0  0  0
 23 32  1  0  0  0  0
 32 33  1  0  0  0  0
 32 34  1  0  0  0  0
 32 35  1  0  0  0  0
 14 36  1  0  0  0  0
 36 37  1  0  0  0  0
 37 38  1  0  0  0  0
 38 39  2  0  0  0  0
 38 40  1  0  0  0  0
 40 41  1  0  0  0  0
 41 42  1  0  0  0  0
 42 43  4  0  0  0  0
 43 44  4  0  0  0  0
 44 45  4  0  0  0  0
 45 46  1  0  0  0  0
 45 47  4  0  0  0  0
 47 48  4  0  0  0  0
 42 48  4  0  0  0  0
 47 49  1  0  0  0  0
 49 50  1  0  0  0  0
 49 51  1  0  0  0  0
 49 52  1  0  0  0  0
 44 53  1  0  0  0  0
 53 54  1  0  0  0  0
 53 55  1  0  0  0  0
 53 56  1  0  0  0  0
 14 57  1  0  0  0  0
 57 58  1  0  0  0  0
 58 59  1  0  0  0  0
 59 60  2  0  0  0  0
 59 61  1  0  0  0  0
 61 62  1  0  0  0  0
 62 63  1  0  0  0  0
 63 64  4  0  0  0  0
 64 65  4  0  0  0  0
 65 66  4  0  0  0  0
 66 67  1  0  0  0  0
 66 68  4  0  0  0  0
 68 69  4  0  0  0  0
 63 69  4  0  0  0  0
 68 70  1  0  0  0  0
 70 71  1  0  0  0  0
 70 72  1  0  0  0  0
 70 73  1  0  0  0  0
 65 74  1  0  0  0  0
 74 75  1  0  0  0  0
 74 76  1  0  0  0  0
 74 77  1  0  0  0  0
  7 78  4  0  0  0  0
 78 79  4  0  0  0  0
 79 80  4  0  0  0  0
  5 80  4  0  0  0  0
 80 81  1  0  0  0  0
 79 82  1  0  0  0  0
 82 83  1  0  0  0  0
 82 84  1  0  0  0  0
 82 85  1  0  0  0  0
  1 86  1  0  0  0  0
  1 87  1  0  0  0  0
  1 88  1  0  0  0  0
  3 89  1  0  0  0  0
  3 90  1  0  0  0  0
  3 91  1  0  0  0  0
  4 92  1  0  0  0  0
  4 93  1  0  0  0  0
  4 94  1  0  0  0  0
  6 95  1  0  0  0  0
  8 96  1  0  0  0  0
  8 97  1  0  0  0  0
  9 98  1  0  0  0  0
  9 99  1  0  0  0  0
 13100  1  0  0  0  0
 13101  1  0  0  0  0
 15102  1  0  0  0  0
 15103  1  0  0  0  0
 19104  1  0  0  0  0
 19105  1  0  0  0  0
 20106  1  0  0  0  0
 20107  1  0  0  0  0
 22108  1  0  0  0  0
 25109  1  0  0  0  0
 27110  1  0  0  0  0
 29111  1  0  0  0  0
 29112  1  0  0  0  0
 29113  1  0  0  0  0
 30114  1  0  0  0  0
 30115  1  0  0  0  0
 30116  1  0  0  0  0
 31117  1  0  0  0  0
 31118  1  0  0  0  0
 31119  1  0  0  0  0
 33120  1  0  0  0  0
 33121  1  0  0  0  0
 33122  1  0  0  0  0
 34123  1  0  0  0  0
 34124  1  0  0  0  0
 34125  1  0  0  0  0
 35126  1  0  0  0  0
 35127  1  0  0  0  0
 35128  1  0  0  0  0
 36129  1  0  0  0  0
 36130  1  0  0  0  0
 40131  1  0  0  0  0
 40132  1  0  0  0  0
 41133  1  0  0  0  0
 41134  1  0  0  0  0
 43135  1  0  0  0  0
 46136  1  0  0  0  0
 48137  1  0  0  0  0
 50138  1  0  0  0  0
 50139  1  0  0  0  0
 50140  1  0  0  0  0
 51141  1  0  0  0  0
 51142  1  0  0  0  0
 51143  1  0  0  0  0
 52144  1  0  0  0  0
 52145  1  0  0  0  0
 52146  1  0  0  0  0
 54147  1  0  0  0  0
 54148  1  0  0  0  0
 54149  1  0  0  0  0
 55150  1  0  0  0  0
 55151  1  0  0  0  0
 55152  1  0  0  0  0
 56153  1  0  0  0  0
 56154  1  0  0  0  0
 56155  1  0  0  0  0
 57156  1  0  0  0  0
 57157  1  0  0  0  0
 61158  1  0  0  0  0
 61159  1  0  0  0  0
 62160  1  0  0  0  0
 62161  1  0  0  0  0
 64162  1  0  0  0  0
 67163  1  0  0  0  0
 69164  1  0  0  0  0
 71165  1  0  0  0  0
 71166  1  0  0  0  0
 71167  1  0  0  0  0
 72168  1  0  0  0  0
 72169  1  0  0  0  0
 72170  1  0  0  0  0
 73171  1  0  0  0  0
 73172  1  0  0  0  0
 73173  1  0  0  0  0
 75174  1  0  0  0  0
 75175  1  0  0  0  0
 75176  1  0  0  0  0
 76177  1  0  0  0  0
 76178  1  0  0  0  0
 76179  1  0  0  0  0
 77180  1  0  0  0  0
 77181  1  0  0  0  0
 77182  1  0  0  0  0
 78183  1  0  0  0  0
 81184  1  0  0  0  0
 83185  1  0  0  0  0
 83186  1  0  0  0  0
 83187  1  0  0  0  0
 84188  1  0  0  0  0
 84189  1  0  0  0  0
 84190  1  0  0  0  0
 85191  1  0  0  0  0
 85192  1  0  0  0  0
 85193  1  0  0  0  0
M  END
>  <InChIKey>
BGYHLZZASRKEJE-UHFFFAOYSA-N

>  <UN GHS>
Non-irritant

>  <CASRN>
6683-19-8

> <Outcome>
0

>  <Index>
45

>  <StandardizerResult>
Dearomatize (ID: Dearomatize)
Clear Stereo (ID: ClearStereo)
Wedge Clean (ID: WedgeClean)
Mesomerize (ID: Mesomerize)
Tautomerize (ID: Tautomerize)
Aromatize (ID: Aromatize)
Add Explicit Hydrogens (ID: AddExplicitH)
Neutralize (ID: Neutralize)
Clean 2D (ID: Clean2D)

> <knn Distance>
4.0

> <CpId>
45

$$$$
65
  Mrv1532301301811342D          

  7  6  0  0  0  0            999 V2000
    1.2375    0.7145    0.0000 O   0  0  0  0  0  0  0  0  0  0  0  0
    0.8250    0.0000    0.0000 B   0  0  0  0  0  0  0  0  0  0  0  0
    1.2375   -0.7145    0.0000 O   0  0  0  0  0  0  0  0  0  0  0  0
   -0.0000    0.0000    0.0000 O   0  0  0  0  0  0  0  0  0  0  0  0
    2.0625    0.7145    0.0000 H   0  0  0  0  0  0  0  0  0  0  0  0
    0.8250   -1.4289    0.0000 H   0  0  0  0  0  0  0  0  0  0  0  0
   -0.4125    0.7145    0.0000 H   0  0  0  0  0  0  0  0  0  0  0  0
  1  2  1  0  0  0  0
  2  3  1  0  0  0  0
  2  4  1  0  0  0  0
  1  5  1  0  0  0  0
  3  6  1  0  0  0  0
  4  7  1  0  0  0  0
M  END
>  <InChIKey>
BTBUEUYNUDRHOZ-UHFFFAOYSA-N

>  <UN GHS>
Non-irritant

>  <CASRN>
12007-92-0

> <Outcome>
0

>  <Index>
65

>  <StandardizerResult>
Clear Stereo (ID: ClearStereo)
Wedge Clean (ID: WedgeClean)
Mesomerize (ID: Mesomerize)
Tautomerize (ID: Tautomerize)
Add Explicit Hydrogens (ID: AddExplicitH)
Neutralize (ID: Neutralize)
Clean 2D (ID: Clean2D)

> <knn Distance>
4.0

> <CpId>
65

$$$$
134
  Mrv1532301301811342D          

  7  6  0  0  0  0            999 V2000
    0.8250   -0.8250    0.0000 O   0  0  0  0  0  0  0  0  0  0  0  0
    0.8250    0.0000    0.0000 S   0  0  0  0  0  0  0  0  0  0  0  0
    0.8250    0.8250    0.0000 O   0  0  0  0  0  0  0  0  0  0  0  0
    1.6500   -0.0000    0.0000 O   0  0  0  0  0  0  0  0  0  0  0  0
    0.0000    0.0000    0.0000 S   0  0  0  0  0  0  0  0  0  0  0  0
    0.1105   -1.2375    0.0000 H   0  0  0  0  0  0  0  0  0  0  0  0
    1.5395    1.2375    0.0000 H   0  0  0  0  0  0  0  0  0  0  0  0
  1  2  1  0  0  0  0
  2  3  1  0  0  0  0
  2  4  2  0  0  0  0
  2  5  2  0  0  0  0
  1  6  1  0  0  0  0
  3  7  1  0  0  0  0
M  END
>  <InChIKey>
DHCDFWKWKRSZHF-UHFFFAOYSA-N

>  <UN GHS>
Non-irritant

>  <CASRN>
7783-18-8

> <Outcome>
0

>  <Index>
134

>  <StandardizerResult>
Clear Stereo (ID: ClearStereo)
Wedge Clean (ID: WedgeClean)
Mesomerize (ID: Mesomerize)
Tautomerize (ID: Tautomerize)
Add Explicit Hydrogens (ID: AddExplicitH)
Neutralize (ID: Neutralize)
Clean 2D (ID: Clean2D)

> <knn Distance>
4.0

> <CpId>
134

$$$$
145
  Mrv1532301301811342D          

 66 70  0  0  0  0            999 V2000
   -0.6864   -5.3838    0.0000 C   0  0  0  0  0  0  0  0  0  0  0  0
    0.0280   -4.9713    0.0000 C   0  0  0  0  0  0  0  0  0  0  0  0
    0.0280   -4.1463    0.0000 C   0  0  0  0  0  0  0  0  0  0  0  0
    0.7425   -3.7338    0.0000 C   0  0  0  0  0  0  0  0  0  0  0  0
    0.7425   -2.9088    0.0000 C   0  0  0  0  0  0  0  0  0  0  0  0
    1.4570   -4.1463    0.0000 C   0  0  0  0  0  0  0  0  0  0  0  0
    2.1715   -3.7338    0.0000 N   0  0  0  0  0  0  0  0  0  0  0  0
    2.1715   -2.9088    0.0000 C   0  0  0  0  0  0  0  0  0  0  0  0
    1.4570   -2.4963    0.0000 C   0  0  0  0  0  0  0  0  0  0  0  0
    1.4570   -1.6713    0.0000 C   0  0  0  0  0  0  0  0  0  0  0  0
    2.1715   -1.2588    0.0000 C   0  0  0  0  0  0  0  0  0  0  0  0
    2.1715   -0.4338    0.0000 N   0  0  0  0  0  0  0  0  0  0  0  0
    1.4570   -0.0213    0.0000 C   0  0  0  0  0  0  0  0  0  0  0  0
    0.7425   -0.4338    0.0000 C   0  0  0  0  0  0  0  0  0  0  0  0
    0.7425   -1.2588    0.0000 C   0  0  0  0  0  0  0  0  0  0  0  0
    0.0280   -0.0213    0.0000 C   0  0  0  0  0  0  0  0  0  0  0  0
    0.0280    0.8037    0.0000 C   0  0  0  0  0  0  0  0  0  0  0  0
   -0.6864    1.2162    0.0000 C   0  0  0  0  0  0  0  0  0  0  0  0
    0.7425    1.2162    0.0000 C   0  0  0  0  0  0  0  0  0  0  0  0
    1.4570    0.8037    0.0000 C   0  0  0  0  0  0  0  0  0  0  0  0
    2.1715    1.2162    0.0000 C   0  0  0  0  0  0  0  0  0  0  0  0
    2.8859   -1.6713    0.0000 C   0  0  0  0  0  0  0  0  0  0  0  0
    3.6004   -1.2588    0.0000 C   0  0  0  0  0  0  0  0  0  0  0  0
    3.6004   -0.4338    0.0000 O   0  0  0  0  0  0  0  0  0  0  0  0
    4.3149   -1.6713    0.0000 C   0  0  0  0  0  0  0  0  0  0  0  0
    5.0293   -1.2588    0.0000 C   0  0  0  0  0  0  0  0  0  0  0  0
    5.7438   -1.6713    0.0000 C   0  0  0  0  0  0  0  0  0  0  0  0
    5.7438   -2.4963    0.0000 C   0  0  0  0  0  0  0  0  0  0  0  0
    5.0293   -2.9088    0.0000 C   0  0  0  0  0  0  0  0  0  0  0  0
    4.3149   -2.4963    0.0000 C   0  0  0  0  0  0  0  0  0  0  0  0
    3.6004   -2.9088    0.0000 C   0  0  0  0  0  0  0  0  0  0  0  0
    3.6004   -3.7338    0.0000 O   0  0  0  0  0  0  0  0  0  0  0  0
    2.8859   -2.4963    0.0000 C   0  0  0  0  0  0  0  0  0  0  0  0
    1.4570   -4.9713    0.0000 C   0  0  0  0  0  0  0  0  0  0  0  0
    2.1715   -5.3838    0.0000 C   0  0  0  0  0  0  0  0  0  0  0  0
    0.7425   -5.3838    0.0000 C   0  0  0  0  0  0  0  0  0  0  0  0
   -1.0989   -4.6693    0.0000 H   0  0  0  0  0  0  0  0  0  0  0  0
   -1.4009   -5.7963    0.0000 H   0  0  0  0  0  0  0  0  0  0  0  0
   -0.2739   -6.0982    0.0000 H   0  0  0  0  0  0  0  0  0  0  0  0
   -0.6864   -3.7338    0.0000 H   0  0  0  0  0  0  0  0  0  0  0  0
    0.7425   -2.0838    0.0000 H   0  0  0  0  0  0  0  0  0  0  0  0
    0.0280   -2.4963    0.0000 H   0  0  0  0  0  0  0  0  0  0  0  0
    0.0280   -3.3213    0.0000 H   0  0  0  0  0  0  0  0  0  0  0  0
    2.8859   -4.1463    0.0000 H   0  0  0  0  0  0  0  0  0  0  0  0
    1.4570   -3.3213    0.0000 H   0  0  0  0  0  0  0  0  0  0  0  0
    1.4570   -0.8463    0.0000 H   0  0  0  0  0  0  0  0  0  0  0  0
    2.8859   -0.0213    0.0000 H   0  0  0  0  0  0  0  0  0  0  0  0
    0.1591   -0.6754    0.0000 H   0  0  0  0  0  0  0  0  0  0  0  0
   -0.0825   -1.2588    0.0000 H   0  0  0  0  0  0  0  0  0  0  0  0
    0.1591   -1.8421    0.0000 H   0  0  0  0  0  0  0  0  0  0  0  0
   -0.7929   -0.1027    0.0000 H   0  0  0  0  0  0  0  0  0  0  0  0
   -0.2739    1.9307    0.0000 H   0  0  0  0  0  0  0  0  0  0  0  0
   -1.4009    1.6287    0.0000 H   0  0  0  0  0  0  0  0  0  0  0  0
   -1.0989    0.5018    0.0000 H   0  0  0  0  0  0  0  0  0  0  0  0
    0.7425    2.0412    0.0000 H   0  0  0  0  0  0  0  0  0  0  0  0
    2.5840    0.5018    0.0000 H   0  0  0  0  0  0  0  0  0  0  0  0
    2.8859    1.6287    0.0000 H   0  0  0  0  0  0  0  0  0  0  0  0
    1.7590    1.9307    0.0000 H   0  0  0  0  0  0  0  0  0  0  0  0
    5.0293   -0.4338    0.0000 H   0  0  0  0  0  0  0  0  0  0  0  0
    6.4583   -1.2588    0.0000 H   0  0  0  0  0  0  0  0  0  0  0  0
    6.4583   -2.9088    0.0000 H   0  0  0  0  0  0  0  0  0  0  0  0
    5.0293   -3.7338    0.0000 H   0  0  0  0  0  0  0  0  0  0  0  0
    1.7590   -6.0982    0.0000 H   0  0  0  0  0  0  0  0  0  0  0  0
    2.8859   -5.7963    0.0000 H   0  0  0  0  0  0  0  0  0  0  0  0
    2.5840   -4.6693    0.0000 H   0  0  0  0  0  0  0  0  0  0  0  0
    0.7425   -6.2088    0.0000 H   0  0  0  0  0  0  0  0  0  0  0  0
  1  2  1  0  0  0  0
  2  3  4  0  0  0  0
  3  4  4  0  0  0  0
  4  5  1  0  0  0  0
  4  6  4  0  0  0  0
  6  7  1  0  0  0  0
  7  8  1  0  0  0  0
  8  9  4  0  0  0  0
  9 10  4  0  0  0  0
 10 11  4  0  0  0  0
 11 12  1  0  0  0  0
 12 13  1  0  0  0  0
 13 14  4  0  0  0  0
 14 15  1  0  0  0  0
 14 16  4  0  0  0  0
 16 17  4  0  0  0  0
 17 18  1  0  0  0  0
 17 19  4  0  0  0  0
 19 20  4  0  0  0  0
 13 20  4  0  0  0  0
 20 21  1  0  0  0  0
 11 22  4  0  0  0  0
 22 23  1  0  0  0  0
 23 24  2  0  0  0  0
 23 25  1  0  0  0  0
 25 26  4  0  0  0  0
 26 27  4  0  0  0  0
 27 28  4  0  0  0  0
 28 29  4  0  0  0  0
 29 30  4  0  0  0  0
 25 30  4  0  0  0  0
 30 31  1  0  0  0  0
 31 32  2  0  0  0  0
 31 33  1  0  0  0  0
  8 33  4  0  0  0  0
 22 33  4  0  0  0  0
  6 34  4  0  0  0  0
 34 35  1  0  0  0  0
 34 36  4  0  0  0  0
  2 36  4  0  0  0  0
  1 37  1  0  0  0  0
  1 38  1  0  0  0  0
  1 39  1  0  0  0  0
  3 40  1  0  0  0  0
  5 41  1  0  0  0  0
  5 42  1  0  0  0  0
  5 43  1  0  0  0  0
  7 44  1  0  0  0  0
  9 45  1  0  0  0  0
 10 46  1  0  0  0  0
 12 47  1  0  0  0  0
 15 48  1  0  0  0  0
 15 49  1  0  0  0  0
 15 50  1  0  0  0  0
 16 51  1  0  0  0  0
 18 52  1  0  0  0  0
 18 53  1  0  0  0  0
 18 54  1  0  0  0  0
 19 55  1  0  0  0  0
 21 56  1  0  0  0  0
 21 57  1  0  0  0  0
 21 58  1  0  0  0  0
 26 59  1  0  0  0  0
 27 60  1  0  0  0  0
 28 61  1  0  0  0  0
 29 62  1  0  0  0  0
 35 63  1  0  0  0  0
 35 64  1  0  0  0  0
 35 65  1  0  0  0  0
 36 66  1  0  0  0  0
M  END
>  <InChIKey>
DMDRBXCDTZRMHZ-UHFFFAOYSA-N

>  <UN GHS>
Non-irritant

>  <CASRN>
116-75-6

> <Outcome>
0

>  <Index>
145

>  <StandardizerResult>
Dearomatize (ID: Dearomatize)
Clear Stereo (ID: ClearStereo)
Wedge Clean (ID: WedgeClean)
Mesomerize (ID: Mesomerize)
Tautomerize (ID: Tautomerize)
Aromatize (ID: Aromatize)
Add Explicit Hydrogens (ID: AddExplicitH)
Neutralize (ID: Neutralize)
Clean 2D (ID: Clean2D)

> <knn Distance>
4.0

> <CpId>
145

$$$$
213
  Mrv1532301301811342D          

 23 23  0  0  0  0            999 V2000
    1.0379    3.1811    0.0000 N   0  0  0  0  0  0  0  0  0  0  0  0
    1.4504    2.4666    0.0000 P   0  0  0  0  0  0  0  0  0  0  0  0
    1.8629    1.7522    0.0000 N   0  0  0  0  0  0  0  0  0  0  0  0
    2.1649    2.8791    0.0000 O   0  0  0  0  0  0  0  0  0  0  0  0
    0.7359    2.0541    0.0000 N   0  0  0  0  0  0  0  0  0  0  0  0
    0.7359    1.2291    0.0000 C   0  0  0  0  0  0  0  0  0  0  0  0
    1.4504    0.8166    0.0000 C   0  0  0  0  0  0  0  0  0  0  0  0
    1.4504   -0.0084    0.0000 C   0  0  0  0  0  0  0  0  0  0  0  0
    0.7359   -0.4209    0.0000 C   0  0  0  0  0  0  0  0  0  0  0  0
    0.0215   -0.0084    0.0000 C   0  0  0  0  0  0  0  0  0  0  0  0
    0.0215    0.8166    0.0000 C   0  0  0  0  0  0  0  0  0  0  0  0
   -0.6930    1.2291    0.0000 N   0  0  0  0  0  0  0  0  0  0  0  0
   -0.6930    2.0541    0.0000 O   0  0  0  0  0  0  0  0  0  0  0  0
   -1.4075    0.8166    0.0000 O   0  0  0  0  0  0  0  0  0  0  0  0
    1.4504    3.8956    0.0000 H   0  0  0  0  0  0  0  0  0  0  0  0
    0.2129    3.1811    0.0000 H   0  0  0  0  0  0  0  0  0  0  0  0
    1.4504    1.0377    0.0000 H   0  0  0  0  0  0  0  0  0  0  0  0
    2.6879    1.7522    0.0000 H   0  0  0  0  0  0  0  0  0  0  0  0
    0.0215    2.4666    0.0000 H   0  0  0  0  0  0  0  0  0  0  0  0
    2.2754    0.8166    0.0000 H   0  0  0  0  0  0  0  0  0  0  0  0
    2.1649   -0.4209    0.0000 H   0  0  0  0  0  0  0  0  0  0  0  0
    0.7359   -1.2459    0.0000 H   0  0  0  0  0  0  0  0  0  0  0  0
   -0.6930   -0.4209    0.0000 H   0  0  0  0  0  0  0  0  0  0  0  0
  1  2  1  0  0  0  0
  2  3  1  0  0  0  0
  2  4  2  0  0  0  0
  2  5  1  0  0  0  0
  5  6  1  0  0  0  0
  6  7  4  0  0  0  0
  7  8  4  0  0  0  0
  8  9  4  0  0  0  0
  9 10  4  0  0  0  0
 10 11  4  0  0  0  0
  6 11  4  0  0  0  0
 11 12  1  0  0  0  0
 12 13  2  0  0  0  0
 12 14  2  0  0  0  0
  1 15  1  0  0  0  0
  1 16  1  0  0  0  0
  3 17  1  0  0  0  0
  3 18  1  0  0  0  0
  5 19  1  0  0  0  0
  7 20  1  0  0  0  0
  8 21  1  0  0  0  0
  9 22  1  0  0  0  0
 10 23  1  0  0  0  0
M  END
>  <InChIKey>
GDPVISFVPDYFPN-UHFFFAOYSA-N

>  <UN GHS>
Non-irritant

> <Outcome>
0

>  <Index>
213

>  <StandardizerResult>
Dearomatize (ID: Dearomatize)
Clear Stereo (ID: ClearStereo)
Wedge Clean (ID: WedgeClean)
Mesomerize (ID: Mesomerize)
Tautomerize (ID: Tautomerize)
Aromatize (ID: Aromatize)
Add Explicit Hydrogens (ID: AddExplicitH)
Neutralize (ID: Neutralize)
Clean 2D (ID: Clean2D)

> <knn Distance>
4.0

> <CpId>
213

$$$$
326
  Mrv1532301301811342D          

 75 77  0  0  0  0            999 V2000
   -4.2870    2.4746    0.0000 C   0  0  0  0  0  0  0  0  0  0  0  0
   -4.2870    3.2996    0.0000 C   0  0  0  0  0  0  0  0  0  0  0  0
   -5.0015    3.7121    0.0000 C   0  0  0  0  0  0  0  0  0  0  0  0
   -5.0015    4.5371    0.0000 C   0  0  0  0  0  0  0  0  0  0  0  0
   -5.7160    4.9496    0.0000 O   0  0  0  0  0  0  0  0  0  0  0  0
   -5.7160    5.7746    0.0000 C   0  0  0  0  0  0  0  0  0  0  0  0
   -5.0015    6.1871    0.0000 O   0  0  0  0  0  0  0  0  0  0  0  0
   -6.4304    6.1871    0.0000 C   0  0  0  0  0  0  0  0  0  0  0  0
   -7.1449    5.7746    0.0000 C   0  0  0  0  0  0  0  0  0  0  0  0
   -7.8594    6.1871    0.0000 C   0  0  0  0  0  0  0  0  0  0  0  0
   -7.8594    7.0121    0.0000 C   0  0  0  0  0  0  0  0  0  0  0  0
   -8.5739    7.4246    0.0000 O   0  0  0  0  0  0  0  0  0  0  0  0
   -8.5739    8.2496    0.0000 C   0  0  0  0  0  0  0  0  0  0  0  0
   -9.2883    8.6621    0.0000 C   0  0  0  0  0  0  0  0  0  0  0  0
   -9.2883    9.4871    0.0000 C   0  0  0  0  0  0  0  0  0  0  0  0
  -10.0028    9.8996    0.0000 O   0  0  0  0  0  0  0  0  0  0  0  0
  -10.0028   10.7246    0.0000 C   0  0  0  0  0  0  0  0  0  0  0  0
   -9.2883   11.1371    0.0000 O   0  0  0  0  0  0  0  0  0  0  0  0
  -10.7173   11.1371    0.0000 C   0  0  0  0  0  0  0  0  0  0  0  0
  -10.7173   11.9621    0.0000 C   0  0  0  0  0  0  0  0  0  0  0  0
   -7.1449    7.4246    0.0000 C   0  0  0  0  0  0  0  0  0  0  0  0
   -6.4304    7.0121    0.0000 C   0  0  0  0  0  0  0  0  0  0  0  0
   -4.2870    4.9496    0.0000 C   0  0  0  0  0  0  0  0  0  0  0  0
   -3.5726    4.5371    0.0000 C   0  0  0  0  0  0  0  0  0  0  0  0
   -3.5726    3.7121    0.0000 C   0  0  0  0  0  0  0  0  0  0  0  0
   -2.8581    3.2996    0.0000 O   0  0  0  0  0  0  0  0  0  0  0  0
   -2.1436    3.7121    0.0000 C   0  0  0  0  0  0  0  0  0  0  0  0
   -2.1436    4.5371    0.0000 O   0  0  0  0  0  0  0  0  0  0  0  0
   -1.4291    3.2996    0.0000 C   0  0  0  0  0  0  0  0  0  0  0  0
   -0.7147    3.7121    0.0000 C   0  0  0  0  0  0  0  0  0  0  0  0
   -0.0002    3.2996    0.0000 C   0  0  0  0  0  0  0  0  0  0  0  0
   -0.0002    2.4746    0.0000 C   0  0  0  0  0  0  0  0  0  0  0  0
    0.7143    2.0621    0.0000 O   0  0  0  0  0  0  0  0  0  0  0  0
    1.4287    2.4746    0.0000 C   0  0  0  0  0  0  0  0  0  0  0  0
    2.1432    2.0621    0.0000 C   0  0  0  0  0  0  0  0  0  0  0  0
    2.8577    2.4746    0.0000 C   0  0  0  0  0  0  0  0  0  0  0  0
    3.5721    2.0621    0.0000 O   0  0  0  0  0  0  0  0  0  0  0  0
    4.2866    2.4746    0.0000 C   0  0  0  0  0  0  0  0  0  0  0  0
    4.2866    3.2996    0.0000 O   0  0  0  0  0  0  0  0  0  0  0  0
    5.0011    2.0621    0.0000 C   0  0  0  0  0  0  0  0  0  0  0  0
    5.7156    2.4746    0.0000 C   0  0  0  0  0  0  0  0  0  0  0  0
   -0.7147    2.0621    0.0000 C   0  0  0  0  0  0  0  0  0  0  0  0
   -1.4291    2.4746    0.0000 C   0  0  0  0  0  0  0  0  0  0  0  0
   -5.1120    2.4746    0.0000 H   0  0  0  0  0  0  0  0  0  0  0  0
   -4.2870    1.6496    0.0000 H   0  0  0  0  0  0  0  0  0  0  0  0
   -3.4620    2.4746    0.0000 H   0  0  0  0  0  0  0  0  0  0  0  0
   -5.7160    3.2996    0.0000 H   0  0  0  0  0  0  0  0  0  0  0  0
   -7.1449    4.9496    0.0000 H   0  0  0  0  0  0  0  0  0  0  0  0
   -8.5739    5.7746    0.0000 H   0  0  0  0  0  0  0  0  0  0  0  0
   -7.7503    8.2976    0.0000 H   0  0  0  0  0  0  0  0  0  0  0  0
   -8.1205    8.9389    0.0000 H   0  0  0  0  0  0  0  0  0  0  0  0
  -10.1119    8.6142    0.0000 H   0  0  0  0  0  0  0  0  0  0  0  0
   -9.7417    7.9729    0.0000 H   0  0  0  0  0  0  0  0  0  0  0  0
   -8.4647    9.5351    0.0000 H   0  0  0  0  0  0  0  0  0  0  0  0
   -8.8350   10.1764    0.0000 H   0  0  0  0  0  0  0  0  0  0  0  0
  -11.4317   10.7246    0.0000 H   0  0  0  0  0  0  0  0  0  0  0  0
  -10.0028   12.3746    0.0000 H   0  0  0  0  0  0  0  0  0  0  0  0
  -11.4317   12.3746    0.0000 H   0  0  0  0  0  0  0  0  0  0  0  0
   -7.1449    8.2496    0.0000 H   0  0  0  0  0  0  0  0  0  0  0  0
   -5.7160    7.4246    0.0000 H   0  0  0  0  0  0  0  0  0  0  0  0
   -4.2870    5.7746    0.0000 H   0  0  0  0  0  0  0  0  0  0  0  0
   -2.8581    4.9496    0.0000 H   0  0  0  0  0  0  0  0  0  0  0  0
   -0.7147    4.5371    0.0000 H   0  0  0  0  0  0  0  0  0  0  0  0
    0.7143    3.7121    0.0000 H   0  0  0  0  0  0  0  0  0  0  0  0
    1.7990    3.2119    0.0000 H   0  0  0  0  0  0  0  0  0  0  0  0
    1.0585    3.2119    0.0000 H   0  0  0  0  0  0  0  0  0  0  0  0
    1.7729    1.3249    0.0000 H   0  0  0  0  0  0  0  0  0  0  0  0
    2.5135    1.3249    0.0000 H   0  0  0  0  0  0  0  0  0  0  0  0
    3.2279    3.2119    0.0000 H   0  0  0  0  0  0  0  0  0  0  0  0
    2.4874    3.2119    0.0000 H   0  0  0  0  0  0  0  0  0  0  0  0
    5.0011    1.2371    0.0000 H   0  0  0  0  0  0  0  0  0  0  0  0
    6.4300    2.0621    0.0000 H   0  0  0  0  0  0  0  0  0  0  0  0
    5.7156    3.2996    0.0000 H   0  0  0  0  0  0  0  0  0  0  0  0
   -0.7147    1.2371    0.0000 H   0  0  0  0  0  0  0  0  0  0  0  0
   -2.1436    2.0621    0.0000 H   0  0  0  0  0  0  0  0  0  0  0  0
  1  2  1  0  0  0  0
  2  3  4  0  0  0  0
  3  4  4  0  0  0  0
  4  5  1  0  0  0  0
  5  6  1  0  0  0  0
  6  7  2  0  0  0  0
  6  8  1  0  0  0  0
  8  9  4  0  0  0  0
  9 10  4  0  0  0  0
 10 11  4  0  0  0  0
 11 12  1  0  0  0  0
 12 13  1  0  0  0  0
 13 14  1  0  0  0  0
 14 15  1  0  0  0  0
 15 16  1  0  0  0  0
 16 17  1  0  0  0  0
 17 18  2  0  0  0  0
 17 19  1  0  0  0  0
 19 20  2  0  0  0  0
 11 21  4  0  0  0  0
 21 22  4  0  0  0  0
  8 22  4  0  0  0  0
  4 23  4  0  0  0  0
 23 24  4  0  0  0  0
 24 25  4  0  0  0  0
  2 25  4  0  0  0  0
 25 26  1  0  0  0  0
 26 27  1  0  0  0  0
 27 28  2  0  0  0  0
 27 29  1  0  0  0  0
 29 30  4  0  0  0  0
 30 31  4  0  0  0  0
 31 32  4  0  0  0  0
 32 33  1  0  0  0  0
 33 34  1  0  0  0  0
 34 35  1  0  0  0  0
 35 36  1  0  0  0  0
 36 37  1  0  0  0  0
 37 38  1  0  0  0  0
 38 39  2  0  0  0  0
 38 40  1  0  0  0  0
 40 41  2  0  0  0  0
 32 42  4  0  0  0  0
 42 43  4  0  0  0  0
 29 43  4  0  0  0  0
  1 44  1  0  0  0  0
  1 45  1  0  0  0  0
  1 46  1  0  0  0  0
  3 47  1  0  0  0  0
  9 48  1  0  0  0  0
 10 49  1  0  0  0  0
 13 50  1  0  0  0  0
 13 51  1  0  0  0  0
 14 52  1  0  0  0  0
 14 53  1  0  0  0  0
 15 54  1  0  0  0  0
 15 55  1  0  0  0  0
 19 56  1  0  0  0  0
 20 57  1  0  0  0  0
 20 58  1  0  0  0  0
 21 59  1  0  0  0  0
 22 60  1  0  0  0  0
 23 61  1  0  0  0  0
 24 62  1  0  0  0  0
 30 63  1  0  0  0  0
 31 64  1  0  0  0  0
 34 65  1  0  0  0  0
 34 66  1  0  0  0  0
 35 67  1  0  0  0  0
 35 68  1  0  0  0  0
 36 69  1  0  0  0  0
 36 70  1  0  0  0  0
 40 71  1  0  0  0  0
 41 72  1  0  0  0  0
 41 73  1  0  0  0  0
 42 74  1  0  0  0  0
 43 75  1  0  0  0  0
M  END
>  <InChIKey>
ISSYGWIDLYOJEN-UHFFFAOYSA-N

>  <UN GHS>
Non-irritant

> <Outcome>
0

>  <Index>
326

>  <StandardizerResult>
Dearomatize (ID: Dearomatize)
Clear Stereo (ID: ClearStereo)
Wedge Clean (ID: WedgeClean)
Mesomerize (ID: Mesomerize)
Tautomerize (ID: Tautomerize)
Aromatize (ID: Aromatize)
Add Explicit Hydrogens (ID: AddExplicitH)
Neutralize (ID: Neutralize)
Clean 2D (ID: Clean2D)

> <knn Distance>
4.0

> <CpId>
326

$$$$
327
  Mrv1532301301811342D          

113112  0  0  0  0            999 V2000
   20.3230   12.5588    0.0000 C   0  0  0  0  0  0  0  0  0  0  0  0
   21.0375   12.1463    0.0000 C   0  0  0  0  0  0  0  0  0  0  0  0
   21.7520   12.5588    0.0000 C   0  0  0  0  0  0  0  0  0  0  0  0
   22.4664   12.1463    0.0000 C   0  0  0  0  0  0  0  0  0  0  0  0
   23.1809   12.5588    0.0000 C   0  0  0  0  0  0  0  0  0  0  0  0
   23.8954   12.1463    0.0000 C   0  0  0  0  0  0  0  0  0  0  0  0
   24.6099   12.5588    0.0000 C   0  0  0  0  0  0  0  0  0  0  0  0
   25.3243   12.1463    0.0000 C   0  0  0  0  0  0  0  0  0  0  0  0
   26.0388   12.5588    0.0000 C   0  0  0  0  0  0  0  0  0  0  0  0
   26.7533   12.1463    0.0000 C   0  0  0  0  0  0  0  0  0  0  0  0
   27.4677   12.5588    0.0000 C   0  0  0  0  0  0  0  0  0  0  0  0
   28.1822   12.1463    0.0000 C   0  0  0  0  0  0  0  0  0  0  0  0
   28.8967   12.5588    0.0000 C   0  0  0  0  0  0  0  0  0  0  0  0
   29.6112   12.1463    0.0000 C   0  0  0  0  0  0  0  0  0  0  0  0
   30.3256   12.5588    0.0000 C   0  0  0  0  0  0  0  0  0  0  0  0
   31.0401   12.1463    0.0000 C   0  0  0  0  0  0  0  0  0  0  0  0
   31.7546   12.5588    0.0000 C   0  0  0  0  0  0  0  0  0  0  0  0
   32.4690   12.1463    0.0000 C   0  0  0  0  0  0  0  0  0  0  0  0
   33.1835   12.5588    0.0000 N   0  0  0  0  0  0  0  0  0  0  0  0
   33.1835   13.3838    0.0000 O   0  0  0  0  0  0  0  0  0  0  0  0
   33.8980   12.1463    0.0000 C   0  0  0  0  0  0  0  0  0  0  0  0
   34.6124   12.5588    0.0000 C   0  0  0  0  0  0  0  0  0  0  0  0
   35.3269   12.1463    0.0000 C   0  0  0  0  0  0  0  0  0  0  0  0
   36.0414   12.5588    0.0000 C   0  0  0  0  0  0  0  0  0  0  0  0
   36.7559   12.1463    0.0000 C   0  0  0  0  0  0  0  0  0  0  0  0
   37.4703   12.5588    0.0000 C   0  0  0  0  0  0  0  0  0  0  0  0
   38.1848   12.1463    0.0000 C   0  0  0  0  0  0  0  0  0  0  0  0
   38.8993   12.5588    0.0000 C   0  0  0  0  0  0  0  0  0  0  0  0
   39.6137   12.1463    0.0000 C   0  0  0  0  0  0  0  0  0  0  0  0
   40.3282   12.5588    0.0000 C   0  0  0  0  0  0  0  0  0  0  0  0
   41.0427   12.1463    0.0000 C   0  0  0  0  0  0  0  0  0  0  0  0
   41.7572   12.5588    0.0000 C   0  0  0  0  0  0  0  0  0  0  0  0
   42.4716   12.1463    0.0000 C   0  0  0  0  0  0  0  0  0  0  0  0
   43.1861   12.5588    0.0000 C   0  0  0  0  0  0  0  0  0  0  0  0
   43.9006   12.1463    0.0000 C   0  0  0  0  0  0  0  0  0  0  0  0
   44.6150   12.5588    0.0000 C   0  0  0  0  0  0  0  0  0  0  0  0
   45.3295   12.1463    0.0000 C   0  0  0  0  0  0  0  0  0  0  0  0
   46.0440   12.5588    0.0000 C   0  0  0  0  0  0  0  0  0  0  0  0
   20.7355   13.2733    0.0000 H   0  0  0  0  0  0  0  0  0  0  0  0
   19.6086   12.9713    0.0000 H   0  0  0  0  0  0  0  0  0  0  0  0
   19.9105   11.8443    0.0000 H   0  0  0  0  0  0  0  0  0  0  0  0
   20.6672   11.4091    0.0000 H   0  0  0  0  0  0  0  0  0  0  0  0
   21.4078   11.4091    0.0000 H   0  0  0  0  0  0  0  0  0  0  0  0
   22.1222   13.2961    0.0000 H   0  0  0  0  0  0  0  0  0  0  0  0
   21.3817   13.2961    0.0000 H   0  0  0  0  0  0  0  0  0  0  0  0
   22.0962   11.4091    0.0000 H   0  0  0  0  0  0  0  0  0  0  0  0
   22.8367   11.4091    0.0000 H   0  0  0  0  0  0  0  0  0  0  0  0
   23.5512   13.2961    0.0000 H   0  0  0  0  0  0  0  0  0  0  0  0
   22.8107   13.2961    0.0000 H   0  0  0  0  0  0  0  0  0  0  0  0
   23.5251   11.4091    0.0000 H   0  0  0  0  0  0  0  0  0  0  0  0
   24.2656   11.4091    0.0000 H   0  0  0  0  0  0  0  0  0  0  0  0
   24.9801   13.2961    0.0000 H   0  0  0  0  0  0  0  0  0  0  0  0
   24.2396   13.2961    0.0000 H   0  0  0  0  0  0  0  0  0  0  0  0
   24.9541   11.4091    0.0000 H   0  0  0  0  0  0  0  0  0  0  0  0
   25.6946   11.4091    0.0000 H   0  0  0  0  0  0  0  0  0  0  0  0
   26.4091   13.2961    0.0000 H   0  0  0  0  0  0  0  0  0  0  0  0
   25.6685   13.2961    0.0000 H   0  0  0  0  0  0  0  0  0  0  0  0
   26.3830   11.4091    0.0000 H   0  0  0  0  0  0  0  0  0  0  0  0
   27.1235   11.4091    0.0000 H   0  0  0  0  0  0  0  0  0  0  0  0
   27.8380   13.2961    0.0000 H   0  0  0  0  0  0  0  0  0  0  0  0
   27.0975   13.2961    0.0000 H   0  0  0  0  0  0  0  0  0  0  0  0
   27.8119   11.4091    0.0000 H   0  0  0  0  0  0  0  0  0  0  0  0
   28.5525   11.4091    0.0000 H   0  0  0  0  0  0  0  0  0  0  0  0
   29.2669   13.2961    0.0000 H   0  0  0  0  0  0  0  0  0  0  0  0
   28.5264   13.2961    0.0000 H   0  0  0  0  0  0  0  0  0  0  0  0
   29.2409   11.4091    0.0000 H   0  0  0  0  0  0  0  0  0  0  0  0
   29.9814   11.4091    0.0000 H   0  0  0  0  0  0  0  0  0  0  0  0
   30.6959   13.2961    0.0000 H   0  0  0  0  0  0  0  0  0  0  0  0
   29.9554   13.2961    0.0000 H   0  0  0  0  0  0  0  0  0  0  0  0
   30.6698   11.4091    0.0000 H   0  0  0  0  0  0  0  0  0  0  0  0
   31.4104   11.4091    0.0000 H   0  0  0  0  0  0  0  0  0  0  0  0
   32.1248   13.2961    0.0000 H   0  0  0  0  0  0  0  0  0  0  0  0
   31.3843   13.2961    0.0000 H   0  0  0  0  0  0  0  0  0  0  0  0
   32.0988   11.4091    0.0000 H   0  0  0  0  0  0  0  0  0  0  0  0
   32.8393   11.4091    0.0000 H   0  0  0  0  0  0  0  0  0  0  0  0
   33.8980   13.7963    0.0000 H   0  0  0  0  0  0  0  0  0  0  0  0
   33.5277   11.4091    0.0000 H   0  0  0  0  0  0  0  0  0  0  0  0
   34.2682   11.4091    0.0000 H   0  0  0  0  0  0  0  0  0  0  0  0
   34.9827   13.2961    0.0000 H   0  0  0  0  0  0  0  0  0  0  0  0
   34.2422   13.2961    0.0000 H   0  0  0  0  0  0  0  0  0  0  0  0
   34.9567   11.4091    0.0000 H   0  0  0  0  0  0  0  0  0  0  0  0
   35.6972   11.4091    0.0000 H   0  0  0  0  0  0  0  0  0  0  0  0
   36.4116   13.2961    0.0000 H   0  0  0  0  0  0  0  0  0  0  0  0
   35.6711   13.2961    0.0000 H   0  0  0  0  0  0  0  0  0  0  0  0
   36.3856   11.4091    0.0000 H   0  0  0  0  0  0  0  0  0  0  0  0
   37.1261   11.4091    0.0000 H   0  0  0  0  0  0  0  0  0  0  0  0
   37.8406   13.2961    0.0000 H   0  0  0  0  0  0  0  0  0  0  0  0
   37.1001   13.2961    0.0000 H   0  0  0  0  0  0  0  0  0  0  0  0
   37.8145   11.4091    0.0000 H   0  0  0  0  0  0  0  0  0  0  0  0
   38.5551   11.4091    0.0000 H   0  0  0  0  0  0  0  0  0  0  0  0
   39.2695   13.2961    0.0000 H   0  0  0  0  0  0  0  0  0  0  0  0
   38.5290   13.2961    0.0000 H   0  0  0  0  0  0  0  0  0  0  0  0
   39.2435   11.4091    0.0000 H   0  0  0  0  0  0  0  0  0  0  0  0
   39.9840   11.4091    0.0000 H   0  0  0  0  0  0  0  0  0  0  0  0
   40.6985   13.2961    0.0000 H   0  0  0  0  0  0  0  0  0  0  0  0
   39.9580   13.2961    0.0000 H   0  0  0  0  0  0  0  0  0  0  0  0
   40.6724   11.4091    0.0000 H   0  0  0  0  0  0  0  0  0  0  0  0
   41.4129   11.4091    0.0000 H   0  0  0  0  0  0  0  0  0  0  0  0
   42.1274   13.2961    0.0000 H   0  0  0  0  0  0  0  0  0  0  0  0
   41.3869   13.2961    0.0000 H   0  0  0  0  0  0  0  0  0  0  0  0
   42.1014   11.4091    0.0000 H   0  0  0  0  0  0  0  0  0  0  0  0
   42.8419   11.4091    0.0000 H   0  0  0  0  0  0  0  0  0  0  0  0
   43.5564   13.2961    0.0000 H   0  0  0  0  0  0  0  0  0  0  0  0
   42.8158   13.2961    0.0000 H   0  0  0  0  0  0  0  0  0  0  0  0
   43.5303   11.4091    0.0000 H   0  0  0  0  0  0  0  0  0  0  0  0
   44.2708   11.4091    0.0000 H   0  0  0  0  0  0  0  0  0  0  0  0
   44.9853   13.2961    0.0000 H   0  0  0  0  0  0  0  0  0  0  0  0
   44.2448   13.2961    0.0000 H   0  0  0  0  0  0  0  0  0  0  0  0
   44.9593   11.4091    0.0000 H   0  0  0  0  0  0  0  0  0  0  0  0
   45.6998   11.4091    0.0000 H   0  0  0  0  0  0  0  0  0  0  0  0
   46.4565   11.8443    0.0000 H   0  0  0  0  0  0  0  0  0  0  0  0
   46.7585   12.9713    0.0000 H   0  0  0  0  0  0  0  0  0  0  0  0
   45.6315   13.2733    0.0000 H   0  0  0  0  0  0  0  0  0  0  0  0
  1  2  1  0  0  0  0
  2  3  1  0  0  0  0
  3  4  1  0  0  0  0
  4  5  1  0  0  0  0
  5  6  1  0  0  0  0
  6  7  1  0  0  0  0
  7  8  1  0  0  0  0
  8  9  1  0  0  0  0
  9 10  1  0  0  0  0
 10 11  1  0  0  0  0
 11 12  1  0  0  0  0
 12 13  1  0  0  0  0
 13 14  1  0  0  0  0
 14 15  1  0  0  0  0
 15 16  1  0  0  0  0
 16 17  1  0  0  0  0
 17 18  1  0  0  0  0
 18 19  1  0  0  0  0
 19 20  1  0  0  0  0
 19 21  1  0  0  0  0
 21 22  1  0  0  0  0
 22 23  1  0  0  0  0
 23 24  1  0  0  0  0
 24 25  1  0  0  0  0
 25 26  1  0  0  0  0
 26 27  1  0  0  0  0
 27 28  1  0  0  0  0
 28 29  1  0  0  0  0
 29 30  1  0  0  0  0
 30 31  1  0  0  0  0
 31 32  1  0  0  0  0
 32 33  1  0  0  0  0
 33 34  1  0  0  0  0
 34 35  1  0  0  0  0
 35 36  1  0  0  0  0
 36 37  1  0  0  0  0
 37 38  1  0  0  0  0
  1 39  1  0  0  0  0
  1 40  1  0  0  0  0
  1 41  1  0  0  0  0
  2 42  1  0  0  0  0
  2 43  1  0  0  0  0
  3 44  1  0  0  0  0
  3 45  1  0  0  0  0
  4 46  1  0  0  0  0
  4 47  1  0  0  0  0
  5 48  1  0  0  0  0
  5 49  1  0  0  0  0
  6 50  1  0  0  0  0
  6 51  1  0  0  0  0
  7 52  1  0  0  0  0
  7 53  1  0  0  0  0
  8 54  1  0  0  0  0
  8 55  1  0  0  0  0
  9 56  1  0  0  0  0
  9 57  1  0  0  0  0
 10 58  1  0  0  0  0
 10 59  1  0  0  0  0
 11 60  1  0  0  0  0
 11 61  1  0  0  0  0
 12 62  1  0  0  0  0
 12 63  1  0  0  0  0
 13 64  1  0  0  0  0
 13 65  1  0  0  0  0
 14 66  1  0  0  0  0
 14 67  1  0  0  0  0
 15 68  1  0  0  0  0
 15 69  1  0  0  0  0
 16 70  1  0  0  0  0
 16 71  1  0  0  0  0
 17 72  1  0  0  0  0
 17 73  1  0  0  0  0
 18 74  1  0  0  0  0
 18 75  1  0  0  0  0
 20 76  1  0  0  0  0
 21 77  1  0  0  0  0
 21 78  1  0  0  0  0
 22 79  1  0  0  0  0
 22 80  1  0  0  0  0
 23 81  1  0  0  0  0
 23 82  1  0  0  0  0
 24 83  1  0  0  0  0
 24 84  1  0  0  0  0
 25 85  1  0  0  0  0
 25 86  1  0  0  0  0
 26 87  1  0  0  0  0
 26 88  1  0  0  0  0
 27 89  1  0  0  0  0
 27 90  1  0  0  0  0
 28 91  1  0  0  0  0
 28 92  1  0  0  0  0
 29 93  1  0  0  0  0
 29 94  1  0  0  0  0
 30 95  1  0  0  0  0
 30 96  1  0  0  0  0
 31 97  1  0  0  0  0
 31 98  1  0  0  0  0
 32 99  1  0  0  0  0
 32100  1  0  0  0  0
 33101  1  0  0  0  0
 33102  1  0  0  0  0
 34103  1  0  0  0  0
 34104  1  0  0  0  0
 35105  1  0  0  0  0
 35106  1  0  0  0  0
 36107  1  0  0  0  0
 36108  1  0  0  0  0
 37109  1  0  0  0  0
 37110  1  0  0  0  0
 38111  1  0  0  0  0
 38112  1  0  0  0  0
 38113  1  0  0  0  0
M  END
>  <InChIKey>
ITUWQZXQRZLLCR-UHFFFAOYSA-N

>  <UN GHS>
Non-irritant

>  <CASRN>
143925-92-2

> <Outcome>
0

>  <Index>
327

>  <StandardizerResult>
Clear Stereo (ID: ClearStereo)
Wedge Clean (ID: WedgeClean)
Mesomerize (ID: Mesomerize)
Tautomerize (ID: Tautomerize)
Add Explicit Hydrogens (ID: AddExplicitH)
Neutralize (ID: Neutralize)
Clean 2D (ID: Clean2D)

> <knn Distance>
4.0

> <CpId>
327

$$$$
339
  Mrv1532301301811342D          

 14 14  0  0  0  0            999 V2000
    1.3229    2.4562    0.0000 O   0  0  0  0  0  0  0  0  0  0  0  0
    0.6084    2.0437    0.0000 C   0  0  0  0  0  0  0  0  0  0  0  0
    0.6084    1.2187    0.0000 C   0  0  0  0  0  0  0  0  0  0  0  0
    1.2759    0.7338    0.0000 C   0  0  0  0  0  0  0  0  0  0  0  0
    1.0209   -0.0509    0.0000 O   0  0  0  0  0  0  0  0  0  0  0  0
    0.1959   -0.0509    0.0000 C   0  0  0  0  0  0  0  0  0  0  0  0
   -0.2890   -0.7183    0.0000 O   0  0  0  0  0  0  0  0  0  0  0  0
   -0.0590    0.7338    0.0000 O   0  0  0  0  0  0  0  0  0  0  0  0
    2.0374    2.0437    0.0000 H   0  0  0  0  0  0  0  0  0  0  0  0
    0.1551    2.7330    0.0000 H   0  0  0  0  0  0  0  0  0  0  0  0
   -0.2152    2.0916    0.0000 H   0  0  0  0  0  0  0  0  0  0  0  0
   -0.1266    1.5932    0.0000 H   0  0  0  0  0  0  0  0  0  0  0  0
    2.0884    0.5905    0.0000 H   0  0  0  0  0  0  0  0  0  0  0  0
    1.8490    1.3272    0.0000 H   0  0  0  0  0  0  0  0  0  0  0  0
  1  2  1  0  0  0  0
  2  3  1  0  0  0  0
  3  4  1  0  0  0  0
  4  5  1  0  0  0  0
  5  6  1  0  0  0  0
  6  7  2  0  0  0  0
  6  8  1  0  0  0  0
  3  8  1  0  0  0  0
  1  9  1  0  0  0  0
  2 10  1  0  0  0  0
  2 11  1  0  0  0  0
  3 12  1  0  0  0  0
  4 13  1  0  0  0  0
  4 14  1  0  0  0  0
M  END
>  <InChIKey>
JFMGYULNQJPJCY-UHFFFAOYSA-N

>  <UN GHS>
Non-irritant

>  <CASRN>
931-40-8

> <Outcome>
0

>  <Index>
339

>  <StandardizerResult>
Clear Stereo (ID: ClearStereo)
Wedge Clean (ID: WedgeClean)
Mesomerize (ID: Mesomerize)
Tautomerize (ID: Tautomerize)
Add Explicit Hydrogens (ID: AddExplicitH)
Neutralize (ID: Neutralize)
Clean 2D (ID: Clean2D)

> <knn Distance>
4.0

> <CpId>
339

$$$$
346
  Mrv1532301301811342D          

 16 15  0  0  0  0            999 V2000
    0.4926    0.5603    0.0000 N   0  0  0  0  0  0  0  0  0  0  0  0
    1.2071    0.1478    0.0000 C   0  0  0  0  0  0  0  0  0  0  0  0
    1.9216    0.5603    0.0000 O   0  0  0  0  0  0  0  0  0  0  0  0
    1.2071   -0.6772    0.0000 O   0  0  0  0  0  0  0  0  0  0  0  0
    1.9216   -1.0897    0.0000 C   0  0  0  0  0  0  0  0  0  0  0  0
    1.9216   -1.9147    0.0000 C   0  0  0  0  0  0  0  0  0  0  0  0
    2.6360   -2.3272    0.0000 Cl  0  0  0  0  0  0  0  0  0  0  0  0
    2.6360   -0.6772    0.0000 C   0  0  0  0  0  0  0  0  0  0  0  0
    3.3505   -1.0897    0.0000 Cl  0  0  0  0  0  0  0  0  0  0  0  0
    0.4926    1.3853    0.0000 H   0  0  0  0  0  0  0  0  0  0  0  0
   -0.2219    0.1478    0.0000 H   0  0  0  0  0  0  0  0  0  0  0  0
    1.2071   -1.5022    0.0000 H   0  0  0  0  0  0  0  0  0  0  0  0
    1.2896   -2.4450    0.0000 H   0  0  0  0  0  0  0  0  0  0  0  0
    1.7783   -2.7272    0.0000 H   0  0  0  0  0  0  0  0  0  0  0  0
    3.0063    0.0600    0.0000 H   0  0  0  0  0  0  0  0  0  0  0  0
    2.2658    0.0600    0.0000 H   0  0  0  0  0  0  0  0  0  0  0  0
  1  2  1  0  0  0  0
  2  3  2  0  0  0  0
  2  4  1  0  0  0  0
  4  5  1  0  0  0  0
  5  6  1  0  0  0  0
  6  7  1  0  0  0  0
  5  8  1  0  0  0  0
  8  9  1  0  0  0  0
  1 10  1  0  0  0  0
  1 11  1  0  0  0  0
  5 12  1  0  0  0  0
  6 13  1  0  0  0  0
  6 14  1  0  0  0  0
  8 15  1  0  0  0  0
  8 16  1  0  0  0  0
M  END
>  <InChIKey>
JMNCUXPHXKHBPY-UHFFFAOYSA-N

>  <UN GHS>
Non-irritant

>  <CASRN>
61791-12-6

> <Outcome>
0

>  <Index>
346

>  <StandardizerResult>
Clear Stereo (ID: ClearStereo)
Wedge Clean (ID: WedgeClean)
Mesomerize (ID: Mesomerize)
Tautomerize (ID: Tautomerize)
Add Explicit Hydrogens (ID: AddExplicitH)
Neutralize (ID: Neutralize)
Clean 2D (ID: Clean2D)

> <knn Distance>
4.0

> <CpId>
346

$$$$
362
  Mrv1532301301811342D          

 39 40  0  0  0  0            999 V2000
    0.2745   -0.2518    0.0000 C   0  0  0  0  0  0  0  0  0  0  0  0
    0.6870   -0.9662    0.0000 O   0  0  0  0  0  0  0  0  0  0  0  0
    1.5120   -0.9662    0.0000 Si  0  0  0  0  0  0  0  0  0  0  0  0
    2.3370   -0.9662    0.0000 O   0  0  0  0  0  0  0  0  0  0  0  0
    2.7495   -1.6807    0.0000 C   0  0  0  0  0  0  0  0  0  0  0  0
    1.5120   -1.7912    0.0000 C   0  0  0  0  0  0  0  0  0  0  0  0
    2.1794   -2.2762    0.0000 C   0  0  0  0  0  0  0  0  0  0  0  0
    1.9245   -3.0608    0.0000 C   0  0  0  0  0  0  0  0  0  0  0  0
    1.0995   -3.0608    0.0000 C   0  0  0  0  0  0  0  0  0  0  0  0
    0.8446   -2.2762    0.0000 C   0  0  0  0  0  0  0  0  0  0  0  0
    1.5120   -0.1412    0.0000 C   0  0  0  0  0  0  0  0  0  0  0  0
    0.8446    0.3437    0.0000 C   0  0  0  0  0  0  0  0  0  0  0  0
    1.0995    1.1283    0.0000 C   0  0  0  0  0  0  0  0  0  0  0  0
    1.9245    1.1283    0.0000 C   0  0  0  0  0  0  0  0  0  0  0  0
    2.1794    0.3437    0.0000 C   0  0  0  0  0  0  0  0  0  0  0  0
   -0.0034    0.5250    0.0000 H   0  0  0  0  0  0  0  0  0  0  0  0
   -0.5446   -0.1530    0.0000 H   0  0  0  0  0  0  0  0  0  0  0  0
   -0.1801   -0.9402    0.0000 H   0  0  0  0  0  0  0  0  0  0  0  0
    3.0274   -2.4575    0.0000 H   0  0  0  0  0  0  0  0  0  0  0  0
    3.5686   -1.7795    0.0000 H   0  0  0  0  0  0  0  0  0  0  0  0
    3.2041   -0.9923    0.0000 H   0  0  0  0  0  0  0  0  0  0  0  0
    0.7769   -1.4167    0.0000 H   0  0  0  0  0  0  0  0  0  0  0  0
    2.1058   -1.4545    0.0000 H   0  0  0  0  0  0  0  0  0  0  0  0
    1.3948   -2.5311    0.0000 H   0  0  0  0  0  0  0  0  0  0  0  0
    2.0393   -3.8778    0.0000 H   0  0  0  0  0  0  0  0  0  0  0  0
    2.6660   -3.4224    0.0000 H   0  0  0  0  0  0  0  0  0  0  0  0
    0.3580   -3.4224    0.0000 H   0  0  0  0  0  0  0  0  0  0  0  0
    0.9847   -3.8778    0.0000 H   0  0  0  0  0  0  0  0  0  0  0  0
    0.0327   -2.1294    0.0000 H   0  0  0  0  0  0  0  0  0  0  0  0
    0.1507   -2.7225    0.0000 H   0  0  0  0  0  0  0  0  0  0  0  0
    2.2471   -0.5158    0.0000 H   0  0  0  0  0  0  0  0  0  0  0  0
    0.9182   -0.4780    0.0000 H   0  0  0  0  0  0  0  0  0  0  0  0
    1.6292    0.5986    0.0000 H   0  0  0  0  0  0  0  0  0  0  0  0
    0.9847    1.9453    0.0000 H   0  0  0  0  0  0  0  0  0  0  0  0
    0.3580    1.4900    0.0000 H   0  0  0  0  0  0  0  0  0  0  0  0
    2.6660    1.4900    0.0000 H   0  0  0  0  0  0  0  0  0  0  0  0
    2.0393    1.9453    0.0000 H   0  0  0  0  0  0  0  0  0  0  0  0
    2.9913    0.1969    0.0000 H   0  0  0  0  0  0  0  0  0  0  0  0
    2.8733    0.7900    0.0000 H   0  0  0  0  0  0  0  0  0  0  0  0
  1  2  1  0  0  0  0
  2  3  1  0  0  0  0
  3  4  1  0  0  0  0
  4  5  1  0  0  0  0
  3  6  1  0  0  0  0
  6  7  1  0  0  0  0
  7  8  1  0  0  0  0
  8  9  1  0  0  0  0
  9 10  1  0  0  0  0
  6 10  1  0  0  0  0
  3 11  1  0  0  0  0
 11 12  1  0  0  0  0
 12 13  1  0  0  0  0
 13 14  1  0  0  0  0
 14 15  1  0  0  0  0
 11 15  1  0  0  0  0
  1 16  1  0  0  0  0
  1 17  1  0  0  0  0
  1 18  1  0  0  0  0
  5 19  1  0  0  0  0
  5 20  1  0  0  0  0
  5 21  1  0  0  0  0
  6 22  1  0  0  0  0
  7 23  1  0  0  0  0
  7 24  1  0  0  0  0
  8 25  1  0  0  0  0
  8 26  1  0  0  0  0
  9 27  1  0  0  0  0
  9 28  1  0  0  0  0
 10 29  1  0  0  0  0
 10 30  1  0  0  0  0
 11 31  1  0  0  0  0
 12 32  1  0  0  0  0
 12 33  1  0  0  0  0
 13 34  1  0  0  0  0
 13 35  1  0  0  0  0
 14 36  1  0  0  0  0
 14 37  1  0  0  0  0
 15 38  1  0  0  0  0
 15 39  1  0  0  0  0
M  END
>  <InChIKey>
JWCYDYZLEAQGJJ-UHFFFAOYSA-N

>  <UN GHS>
Non-irritant

>  <CASRN>
126990-35-0

> <Outcome>
0

>  <Index>
362

>  <StandardizerResult>
Clear Stereo (ID: ClearStereo)
Wedge Clean (ID: WedgeClean)
Mesomerize (ID: Mesomerize)
Tautomerize (ID: Tautomerize)
Add Explicit Hydrogens (ID: AddExplicitH)
Neutralize (ID: Neutralize)
Clean 2D (ID: Clean2D)

> <knn Distance>
4.0

> <CpId>
362

$$$$
388
  Mrv1532301301811342D          

 22 22  0  0  0  0            999 V2000
    2.0371    2.7486    0.0000 O   0  0  0  0  0  0  0  0  0  0  0  0
    1.3227    2.3361    0.0000 C   0  0  0  0  0  0  0  0  0  0  0  0
    1.3227    1.5111    0.0000 C   0  0  0  0  0  0  0  0  0  0  0  0
    0.6082    1.0986    0.0000 N   0  0  0  0  0  0  0  0  0  0  0  0
    0.6082    0.2736    0.0000 C   0  0  0  0  0  0  0  0  0  0  0  0
   -0.1063   -0.1389    0.0000 C   0  0  0  0  0  0  0  0  0  0  0  0
   -0.8208    0.2736    0.0000 O   0  0  0  0  0  0  0  0  0  0  0  0
   -0.8208    1.0986    0.0000 C   0  0  0  0  0  0  0  0  0  0  0  0
   -0.1063    1.5111    0.0000 C   0  0  0  0  0  0  0  0  0  0  0  0
    2.7516    2.3361    0.0000 H   0  0  0  0  0  0  0  0  0  0  0  0
    0.8693    3.0253    0.0000 H   0  0  0  0  0  0  0  0  0  0  0  0
    0.4991    2.3840    0.0000 H   0  0  0  0  0  0  0  0  0  0  0  0
    1.7760    0.8218    0.0000 H   0  0  0  0  0  0  0  0  0  0  0  0
    2.1463    1.4631    0.0000 H   0  0  0  0  0  0  0  0  0  0  0  0
    1.0615   -0.4157    0.0000 H   0  0  0  0  0  0  0  0  0  0  0  0
    1.4318    0.2256    0.0000 H   0  0  0  0  0  0  0  0  0  0  0  0
   -0.4765   -0.8762    0.0000 H   0  0  0  0  0  0  0  0  0  0  0  0
    0.2640   -0.8762    0.0000 H   0  0  0  0  0  0  0  0  0  0  0  0
   -1.2741    1.7878    0.0000 H   0  0  0  0  0  0  0  0  0  0  0  0
   -1.6444    1.1465    0.0000 H   0  0  0  0  0  0  0  0  0  0  0  0
    0.2640    2.2483    0.0000 H   0  0  0  0  0  0  0  0  0  0  0  0
   -0.4765    2.2483    0.0000 H   0  0  0  0  0  0  0  0  0  0  0  0
  1  2  1  0  0  0  0
  2  3  1  0  0  0  0
  3  4  1  0  0  0  0
  4  5  1  0  0  0  0
  5  6  1  0  0  0  0
  6  7  1  0  0  0  0
  7  8  1  0  0  0  0
  8  9  1  0  0  0  0
  4  9  1  0  0  0  0
  1 10  1  0  0  0  0
  2 11  1  0  0  0  0
  2 12  1  0  0  0  0
  3 13  1  0  0  0  0
  3 14  1  0  0  0  0
  5 15  1  0  0  0  0
  5 16  1  0  0  0  0
  6 17  1  0  0  0  0
  6 18  1  0  0  0  0
  8 19  1  0  0  0  0
  8 20  1  0  0  0  0
  9 21  1  0  0  0  0
  9 22  1  0  0  0  0
M  END
>  <InChIKey>
KKFDCBRMNNSAAW-UHFFFAOYSA-N

>  <UN GHS>
Non-irritant

>  <CASRN>
622-40-2

> <Outcome>
0

>  <Index>
388

>  <StandardizerResult>
Clear Stereo (ID: ClearStereo)
Wedge Clean (ID: WedgeClean)
Mesomerize (ID: Mesomerize)
Tautomerize (ID: Tautomerize)
Add Explicit Hydrogens (ID: AddExplicitH)
Neutralize (ID: Neutralize)
Clean 2D (ID: Clean2D)

> <knn Distance>
4.0

> <CpId>
388

$$$$
389
  Mrv1532301301811342D          

 20 21  0  0  0  0            999 V2000
    1.1003   -1.7662    0.0000 O   0  0  0  0  0  0  0  0  0  0  0  0
    1.3552   -0.9816    0.0000 C   0  0  0  0  0  0  0  0  0  0  0  0
    0.8703   -0.3142    0.0000 C   0  0  0  0  0  0  0  0  0  0  0  0
    1.3552    0.3533    0.0000 O   0  0  0  0  0  0  0  0  0  0  0  0
    2.1398    0.0983    0.0000 C   0  0  0  0  0  0  0  0  0  0  0  0
    2.9245    0.3533    0.0000 C   0  0  0  0  0  0  0  0  0  0  0  0
    3.1794    1.1379    0.0000 O   0  0  0  0  0  0  0  0  0  0  0  0
    3.4094   -0.3142    0.0000 C   0  0  0  0  0  0  0  0  0  0  0  0
    2.9245   -0.9816    0.0000 O   0  0  0  0  0  0  0  0  0  0  0  0
    2.1398   -0.7267    0.0000 C   0  0  0  0  0  0  0  0  0  0  0  0
    0.2933   -1.9377    0.0000 H   0  0  0  0  0  0  0  0  0  0  0  0
    1.9386   -1.5650    0.0000 H   0  0  0  0  0  0  0  0  0  0  0  0
    0.1419    0.0732    0.0000 H   0  0  0  0  0  0  0  0  0  0  0  0
    0.1419   -0.7015    0.0000 H   0  0  0  0  0  0  0  0  0  0  0  0
    2.1398    0.9233    0.0000 H   0  0  0  0  0  0  0  0  0  0  0  0
    3.7393    0.4823    0.0000 H   0  0  0  0  0  0  0  0  0  0  0  0
    3.0184    1.9471    0.0000 H   0  0  0  0  0  0  0  0  0  0  0  0
    3.9314   -0.9530    0.0000 H   0  0  0  0  0  0  0  0  0  0  0  0
    4.2268   -0.4254    0.0000 H   0  0  0  0  0  0  0  0  0  0  0  0
    1.4724   -0.2417    0.0000 H   0  0  0  0  0  0  0  0  0  0  0  0
  1  2  1  0  0  0  0
  2  3  1  0  0  0  0
  3  4  1  0  0  0  0
  4  5  1  0  0  0  0
  5  6  1  0  0  0  0
  6  7  1  0  0  0  0
  6  8  1  0  0  0  0
  8  9  1  0  0  0  0
  9 10  1  0  0  0  0
  2 10  1  0  0  0  0
  5 10  1  0  0  0  0
  1 11  1  0  0  0  0
  2 12  1  0  0  0  0
  3 13  1  0  0  0  0
  3 14  1  0  0  0  0
  5 15  1  0  0  0  0
  6 16  1  0  0  0  0
  7 17  1  0  0  0  0
  8 18  1  0  0  0  0
  8 19  1  0  0  0  0
 10 20  1  0  0  0  0
M  END
>  <InChIKey>
KLDXJTOLSGUMSJ-JGWLITMVSA-N

>  <UN GHS>
Non-irritant

>  <CASRN>
652-67-5

> <Outcome>
0

>  <Index>
389

>  <StandardizerResult>
Clear Stereo (ID: ClearStereo)
Wedge Clean (ID: WedgeClean)
Mesomerize (ID: Mesomerize)
Tautomerize (ID: Tautomerize)
Add Explicit Hydrogens (ID: AddExplicitH)
Neutralize (ID: Neutralize)
Clean 2D (ID: Clean2D)

> <knn Distance>
4.0

> <CpId>
389

$$$$
396
  Mrv1532301301811342D          

 25 24  0  0  0  0            999 V2000
    2.7789    0.7447    0.0000 C   0  0  0  0  0  0  0  0  0  0  0  0
    2.0645    0.3322    0.0000 O   0  0  0  0  0  0  0  0  0  0  0  0
    1.3500    0.7447    0.0000 Si  0  0  0  0  0  0  0  0  0  0  0  0
    1.7625    1.4592    0.0000 C   0  0  0  0  0  0  0  0  0  0  0  0
    0.6355    1.1572    0.0000 C   0  0  0  0  0  0  0  0  0  0  0  0
   -0.0790    0.7447    0.0000 C   0  0  0  0  0  0  0  0  0  0  0  0
   -0.7934    1.1572    0.0000 C   0  0  0  0  0  0  0  0  0  0  0  0
   -1.5079    0.7447    0.0000 Cl  0  0  0  0  0  0  0  0  0  0  0  0
    0.9375    0.0303    0.0000 O   0  0  0  0  0  0  0  0  0  0  0  0
    0.1125    0.0303    0.0000 C   0  0  0  0  0  0  0  0  0  0  0  0
    3.1914    0.0303    0.0000 H   0  0  0  0  0  0  0  0  0  0  0  0
    3.4934    1.1572    0.0000 H   0  0  0  0  0  0  0  0  0  0  0  0
    2.3664    1.4592    0.0000 H   0  0  0  0  0  0  0  0  0  0  0  0
    2.1750    2.1737    0.0000 H   0  0  0  0  0  0  0  0  0  0  0  0
    1.3500    2.1737    0.0000 H   0  0  0  0  0  0  0  0  0  0  0  0
    0.9375    1.4592    0.0000 H   0  0  0  0  0  0  0  0  0  0  0  0
    0.1333    1.8117    0.0000 H   0  0  0  0  0  0  0  0  0  0  0  0
    0.6355    0.3322    0.0000 H   0  0  0  0  0  0  0  0  0  0  0  0
   -0.7335    0.2425    0.0000 H   0  0  0  0  0  0  0  0  0  0  0  0
   -0.0790    1.5697    0.0000 H   0  0  0  0  0  0  0  0  0  0  0  0
   -0.9367    1.9697    0.0000 H   0  0  0  0  0  0  0  0  0  0  0  0
   -1.4254    1.6875    0.0000 H   0  0  0  0  0  0  0  0  0  0  0  0
   -0.5679   -0.4363    0.0000 H   0  0  0  0  0  0  0  0  0  0  0  0
    0.0113   -0.7885    0.0000 H   0  0  0  0  0  0  0  0  0  0  0  0
    0.6589   -0.5878    0.0000 H   0  0  0  0  0  0  0  0  0  0  0  0
  1  2  1  0  0  0  0
  2  3  1  0  0  0  0
  3  4  1  0  0  0  0
  3  5  1  0  0  0  0
  5  6  1  0  0  0  0
  6  7  1  0  0  0  0
  7  8  1  0  0  0  0
  3  9  1  0  0  0  0
  9 10  1  0  0  0  0
  1 11  1  0  0  0  0
  1 12  1  0  0  0  0
  1 13  1  0  0  0  0
  4 14  1  0  0  0  0
  4 15  1  0  0  0  0
  4 16  1  0  0  0  0
  5 17  1  0  0  0  0
  5 18  1  0  0  0  0
  6 19  1  0  0  0  0
  6 20  1  0  0  0  0
  7 21  1  0  0  0  0
  7 22  1  0  0  0  0
 10 23  1  0  0  0  0
 10 24  1  0  0  0  0
 10 25  1  0  0  0  0
M  END
>  <InChIKey>
KNTKCYKJRSMRMZ-UHFFFAOYSA-N

>  <UN GHS>
Non-irritant

>  <CASRN>
18171-19-2

> <Outcome>
0

>  <Index>
396

>  <StandardizerResult>
Clear Stereo (ID: ClearStereo)
Wedge Clean (ID: WedgeClean)
Mesomerize (ID: Mesomerize)
Tautomerize (ID: Tautomerize)
Add Explicit Hydrogens (ID: AddExplicitH)
Neutralize (ID: Neutralize)
Clean 2D (ID: Clean2D)

> <knn Distance>
4.0

> <CpId>
396

$$$$
438
  Mrv1532301301811342D          

 20 20  0  0  0  0            999 V2000
    0.7145    2.0625    0.0000 C   0  0  0  0  0  0  0  0  0  0  0  0
    0.7145    1.2375    0.0000 C   0  0  0  0  0  0  0  0  0  0  0  0
    1.4290    0.8250    0.0000 C   0  0  0  0  0  0  0  0  0  0  0  0
    1.4290   -0.0000    0.0000 C   0  0  0  0  0  0  0  0  0  0  0  0
    0.7145   -0.4125    0.0000 C   0  0  0  0  0  0  0  0  0  0  0  0
    0.0000    0.0000    0.0000 C   0  0  0  0  0  0  0  0  0  0  0  0
    0.0000    0.8250    0.0000 C   0  0  0  0  0  0  0  0  0  0  0  0
    0.7145   -1.2375    0.0000 S   0  0  0  0  0  0  0  0  0  0  0  0
    0.7145   -2.0625    0.0000 N   0  0  0  0  0  0  0  0  0  0  0  0
   -0.1105   -1.2375    0.0000 O   0  0  0  0  0  0  0  0  0  0  0  0
    1.5395   -1.2375    0.0000 O   0  0  0  0  0  0  0  0  0  0  0  0
    1.5395    2.0625    0.0000 H   0  0  0  0  0  0  0  0  0  0  0  0
    0.7145    2.8875    0.0000 H   0  0  0  0  0  0  0  0  0  0  0  0
   -0.1105    2.0625    0.0000 H   0  0  0  0  0  0  0  0  0  0  0  0
    2.1434    1.2375    0.0000 H   0  0  0  0  0  0  0  0  0  0  0  0
    2.1434   -0.4125    0.0000 H   0  0  0  0  0  0  0  0  0  0  0  0
   -0.7145   -0.4125    0.0000 H   0  0  0  0  0  0  0  0  0  0  0  0
   -0.7145    1.2375    0.0000 H   0  0  0  0  0  0  0  0  0  0  0  0
    0.0000   -2.4750    0.0000 H   0  0  0  0  0  0  0  0  0  0  0  0
    1.4290   -2.4750    0.0000 H   0  0  0  0  0  0  0  0  0  0  0  0
  1  2  1  0  0  0  0
  2  3  4  0  0  0  0
  3  4  4  0  0  0  0
  4  5  4  0  0  0  0
  5  6  4  0  0  0  0
  6  7  4  0  0  0  0
  2  7  4  0  0  0  0
  5  8  1  0  0  0  0
  8  9  1  0  0  0  0
  8 10  2  0  0  0  0
  8 11  2  0  0  0  0
  1 12  1  0  0  0  0
  1 13  1  0  0  0  0
  1 14  1  0  0  0  0
  3 15  1  0  0  0  0
  4 16  1  0  0  0  0
  6 17  1  0  0  0  0
  7 18  1  0  0  0  0
  9 19  1  0  0  0  0
  9 20  1  0  0  0  0
M  END
>  <InChIKey>
LMYRWZFENFIFIT-UHFFFAOYSA-N

>  <UN GHS>
Non-irritant

>  <CASRN>
70-55-3

> <Outcome>
0

>  <Index>
438

>  <StandardizerResult>
Dearomatize (ID: Dearomatize)
Clear Stereo (ID: ClearStereo)
Wedge Clean (ID: WedgeClean)
Mesomerize (ID: Mesomerize)
Tautomerize (ID: Tautomerize)
Aromatize (ID: Aromatize)
Add Explicit Hydrogens (ID: AddExplicitH)
Neutralize (ID: Neutralize)
Clean 2D (ID: Clean2D)

> <knn Distance>
4.0

> <CpId>
438

$$$$
473
  Mrv1532301301811342D          

 22 21  0  0  0  0            999 V2000
   -0.7512   -3.5541    0.0000 O   0  0  0  0  0  0  0  0  0  0  0  0
   -0.0367   -3.9666    0.0000 C   0  0  0  0  0  0  0  0  0  0  0  0
   -0.0367   -4.7916    0.0000 O   0  0  0  0  0  0  0  0  0  0  0  0
    0.6778   -3.5541    0.0000 C   0  0  0  0  0  0  0  0  0  0  0  0
    0.6778   -2.7291    0.0000 N   0  0  0  0  0  0  0  0  0  0  0  0
   -0.0367   -2.3166    0.0000 C   0  0  0  0  0  0  0  0  0  0  0  0
   -0.0367   -1.4916    0.0000 C   0  0  0  0  0  0  0  0  0  0  0  0
    0.6778   -1.0791    0.0000 O   0  0  0  0  0  0  0  0  0  0  0  0
   -0.7512   -1.0791    0.0000 O   0  0  0  0  0  0  0  0  0  0  0  0
    1.3922   -2.3166    0.0000 C   0  0  0  0  0  0  0  0  0  0  0  0
    1.3922   -1.4916    0.0000 C   0  0  0  0  0  0  0  0  0  0  0  0
    2.1067   -1.0791    0.0000 O   0  0  0  0  0  0  0  0  0  0  0  0
    1.0567   -0.7379    0.0000 O   0  0  0  0  0  0  0  0  0  0  0  0
   -0.7512   -2.7291    0.0000 H   0  0  0  0  0  0  0  0  0  0  0  0
    1.1311   -4.2433    0.0000 H   0  0  0  0  0  0  0  0  0  0  0  0
    1.5014   -3.6020    0.0000 H   0  0  0  0  0  0  0  0  0  0  0  0
   -0.0367   -3.1416    0.0000 H   0  0  0  0  0  0  0  0  0  0  0  0
   -0.7512   -1.9041    0.0000 H   0  0  0  0  0  0  0  0  0  0  0  0
    0.1929   -0.4116    0.0000 H   0  0  0  0  0  0  0  0  0  0  0  0
    1.8456   -3.0058    0.0000 H   0  0  0  0  0  0  0  0  0  0  0  0
    2.2158   -2.3645    0.0000 H   0  0  0  0  0  0  0  0  0  0  0  0
    2.8212   -1.4916    0.0000 H   0  0  0  0  0  0  0  0  0  0  0  0
  1  2  1  0  0  0  0
  2  3  2  0  0  0  0
  2  4  1  0  0  0  0
  4  5  1  0  0  0  0
  5  6  1  0  0  0  0
  6  7  1  0  0  0  0
  7  8  1  0  0  0  0
  7  9  2  0  0  0  0
  5 10  1  0  0  0  0
 10 11  1  0  0  0  0
 11 12  1  0  0  0  0
 11 13  2  0  0  0  0
  1 14  1  0  0  0  0
  4 15  1  0  0  0  0
  4 16  1  0  0  0  0
  6 17  1  0  0  0  0
  6 18  1  0  0  0  0
  8 19  1  0  0  0  0
 10 20  1  0  0  0  0
 10 21  1  0  0  0  0
 12 22  1  0  0  0  0
M  END
>  <InChIKey>
MGFYIUFZLHCRTH-UHFFFAOYSA-K

>  <UN GHS>
Non-irritant

>  <CASRN>
5064-31-3

> <Outcome>
0

>  <Index>
473

>  <StandardizerResult>
Clear Stereo (ID: ClearStereo)
Wedge Clean (ID: WedgeClean)
Mesomerize (ID: Mesomerize)
Tautomerize (ID: Tautomerize)
Add Explicit Hydrogens (ID: AddExplicitH)
Neutralize (ID: Neutralize)
Clean 2D (ID: Clean2D)

> <knn Distance>
4.0

> <CpId>
473

$$$$
526
  Mrv1532301301811342D          

 66 67  0  0  0  0            999 V2000
   -2.1678   -2.0098    0.0000 C   0  0  0  0  0  0  0  0  0  0  0  0
   -1.4533   -2.4223    0.0000 C   0  0  0  0  0  0  0  0  0  0  0  0
   -1.8658   -3.1368    0.0000 C   0  0  0  0  0  0  0  0  0  0  0  0
   -1.0408   -1.7079    0.0000 C   0  0  0  0  0  0  0  0  0  0  0  0
   -0.7388   -2.8348    0.0000 C   0  0  0  0  0  0  0  0  0  0  0  0
   -0.0244   -2.4223    0.0000 C   0  0  0  0  0  0  0  0  0  0  0  0
    0.6901   -2.8348    0.0000 C   0  0  0  0  0  0  0  0  0  0  0  0
    0.6901   -3.6598    0.0000 C   0  0  0  0  0  0  0  0  0  0  0  0
   -0.0244   -4.0723    0.0000 C   0  0  0  0  0  0  0  0  0  0  0  0
   -0.7388   -3.6598    0.0000 C   0  0  0  0  0  0  0  0  0  0  0  0
    1.4046   -4.0723    0.0000 O   0  0  0  0  0  0  0  0  0  0  0  0
    2.1191   -3.6598    0.0000 C   0  0  0  0  0  0  0  0  0  0  0  0
    2.1191   -2.8348    0.0000 O   0  0  0  0  0  0  0  0  0  0  0  0
    2.8335   -4.0723    0.0000 O   0  0  0  0  0  0  0  0  0  0  0  0
    3.5480   -3.6598    0.0000 O   0  0  0  0  0  0  0  0  0  0  0  0
    4.2625   -4.0723    0.0000 C   0  0  0  0  0  0  0  0  0  0  0  0
    4.2625   -4.8973    0.0000 O   0  0  0  0  0  0  0  0  0  0  0  0
    4.9769   -3.6598    0.0000 O   0  0  0  0  0  0  0  0  0  0  0  0
    5.6914   -4.0723    0.0000 C   0  0  0  0  0  0  0  0  0  0  0  0
    6.4059   -3.6598    0.0000 C   0  0  0  0  0  0  0  0  0  0  0  0
    7.1204   -4.0723    0.0000 C   0  0  0  0  0  0  0  0  0  0  0  0
    7.1204   -4.8973    0.0000 C   0  0  0  0  0  0  0  0  0  0  0  0
    6.4059   -5.3098    0.0000 C   0  0  0  0  0  0  0  0  0  0  0  0
    5.6914   -4.8973    0.0000 C   0  0  0  0  0  0  0  0  0  0  0  0
    7.8348   -5.3098    0.0000 C   0  0  0  0  0  0  0  0  0  0  0  0
    8.5493   -5.7223    0.0000 C   0  0  0  0  0  0  0  0  0  0  0  0
    7.4223   -6.0243    0.0000 C   0  0  0  0  0  0  0  0  0  0  0  0
    8.2473   -4.5954    0.0000 C   0  0  0  0  0  0  0  0  0  0  0  0
   -1.7553   -1.2954    0.0000 H   0  0  0  0  0  0  0  0  0  0  0  0
   -2.8822   -1.5973    0.0000 H   0  0  0  0  0  0  0  0  0  0  0  0
   -2.5803   -2.7243    0.0000 H   0  0  0  0  0  0  0  0  0  0  0  0
   -2.5203   -3.6390    0.0000 H   0  0  0  0  0  0  0  0  0  0  0  0
   -1.6523   -3.9337    0.0000 H   0  0  0  0  0  0  0  0  0  0  0  0
   -1.0479   -3.2445    0.0000 H   0  0  0  0  0  0  0  0  0  0  0  0
   -0.5386   -2.3624    0.0000 H   0  0  0  0  0  0  0  0  0  0  0  0
   -0.2439   -1.4943    0.0000 H   0  0  0  0  0  0  0  0  0  0  0  0
   -0.9331   -0.8899    0.0000 H   0  0  0  0  0  0  0  0  0  0  0  0
   -0.0244   -3.2473    0.0000 H   0  0  0  0  0  0  0  0  0  0  0  0
    0.7746   -2.2167    0.0000 H   0  0  0  0  0  0  0  0  0  0  0  0
    0.4021   -1.7161    0.0000 H   0  0  0  0  0  0  0  0  0  0  0  0
    1.3852   -3.2792    0.0000 H   0  0  0  0  0  0  0  0  0  0  0  0
    1.4390   -2.4886    0.0000 H   0  0  0  0  0  0  0  0  0  0  0  0
    0.6901   -4.4848    0.0000 H   0  0  0  0  0  0  0  0  0  0  0  0
   -0.6563   -4.6026    0.0000 H   0  0  0  0  0  0  0  0  0  0  0  0
   -0.1676   -4.8848    0.0000 H   0  0  0  0  0  0  0  0  0  0  0  0
   -1.2020   -4.3425    0.0000 H   0  0  0  0  0  0  0  0  0  0  0  0
   -1.5220   -3.4004    0.0000 H   0  0  0  0  0  0  0  0  0  0  0  0
    4.9769   -4.4848    0.0000 H   0  0  0  0  0  0  0  0  0  0  0  0
    6.7761   -2.9226    0.0000 H   0  0  0  0  0  0  0  0  0  0  0  0
    6.0356   -2.9226    0.0000 H   0  0  0  0  0  0  0  0  0  0  0  0
    7.9440   -4.0244    0.0000 H   0  0  0  0  0  0  0  0  0  0  0  0
    7.5737   -3.3831    0.0000 H   0  0  0  0  0  0  0  0  0  0  0  0
    7.1204   -5.7223    0.0000 H   0  0  0  0  0  0  0  0  0  0  0  0
    5.7739   -5.8401    0.0000 H   0  0  0  0  0  0  0  0  0  0  0  0
    6.2626   -6.1223    0.0000 H   0  0  0  0  0  0  0  0  0  0  0  0
    4.9956   -5.3406    0.0000 H   0  0  0  0  0  0  0  0  0  0  0  0
    6.4059   -4.4848    0.0000 H   0  0  0  0  0  0  0  0  0  0  0  0
    8.1368   -6.4368    0.0000 H   0  0  0  0  0  0  0  0  0  0  0  0
    9.2638   -6.1348    0.0000 H   0  0  0  0  0  0  0  0  0  0  0  0
    8.9618   -5.0079    0.0000 H   0  0  0  0  0  0  0  0  0  0  0  0
    6.5991   -6.0783    0.0000 H   0  0  0  0  0  0  0  0  0  0  0  0
    6.9201   -6.6788    0.0000 H   0  0  0  0  0  0  0  0  0  0  0  0
    7.5833   -6.8335    0.0000 H   0  0  0  0  0  0  0  0  0  0  0  0
    9.0258   -4.3223    0.0000 H   0  0  0  0  0  0  0  0  0  0  0  0
    8.5476   -3.8270    0.0000 H   0  0  0  0  0  0  0  0  0  0  0  0
    7.4224   -4.5808    0.0000 H   0  0  0  0  0  0  0  0  0  0  0  0
  1  2  1  0  0  0  0
  2  3  1  0  0  0  0
  2  4  1  0  0  0  0
  2  5  1  0  0  0  0
  5  6  1  0  0  0  0
  6  7  1  0  0  0  0
  7  8  1  0  0  0  0
  8  9  1  0  0  0  0
  9 10  1  0  0  0  0
  5 10  1  0  0  0  0
  8 11  1  0  0  0  0
 11 12  1  0  0  0  0
 12 13  2  0  0  0  0
 12 14  1  0  0  0  0
 14 15  1  0  0  0  0
 15 16  1  0  0  0  0
 16 17  2  0  0  0  0
 16 18  1  0  0  0  0
 18 19  1  0  0  0  0
 19 20  1  0  0  0  0
 20 21  1  0  0  0  0
 21 22  1  0  0  0  0
 22 23  1  0  0  0  0
 23 24  1  0  0  0  0
 19 24  1  0  0  0  0
 22 25  1  0  0  0  0
 25 26  1  0  0  0  0
 25 27  1  0  0  0  0
 25 28  1  0  0  0  0
  1 29  1  0  0  0  0
  1 30  1  0  0  0  0
  1 31  1  0  0  0  0
  3 32  1  0  0  0  0
  3 33  1  0  0  0  0
  3 34  1  0  0  0  0
  4 35  1  0  0  0  0
  4 36  1  0  0  0  0
  4 37  1  0  0  0  0
  5 38  1  0  0  0  0
  6 39  1  0  0  0  0
  6 40  1  0  0  0  0
  7 41  1  0  0  0  0
  7 42  1  0  0  0  0
  8 43  1  0  0  0  0
  9 44  1  0  0  0  0
  9 45  1  0  0  0  0
 10 46  1  0  0  0  0
 10 47  1  0  0  0  0
 19 48  1  0  0  0  0
 20 49  1  0  0  0  0
 20 50  1  0  0  0  0
 21 51  1  0  0  0  0
 21 52  1  0  0  0  0
 22 53  1  0  0  0  0
 23 54  1  0  0  0  0
 23 55  1  0  0  0  0
 24 56  1  0  0  0  0
 24 57  1  0  0  0  0
 26 58  1  0  0  0  0
 26 59  1  0  0  0  0
 26 60  1  0  0  0  0
 27 61  1  0  0  0  0
 27 62  1  0  0  0  0
 27 63  1  0  0  0  0
 28 64  1  0  0  0  0
 28 65  1  0  0  0  0
 28 66  1  0  0  0  0
M  END
>  <InChIKey>
NOBYOEQUFMGXBP-UHFFFAOYSA-N

>  <UN GHS>
Non-irritant

>  <CASRN>
15520-11-3

> <Outcome>
0

>  <Index>
526

>  <StandardizerResult>
Clear Stereo (ID: ClearStereo)
Wedge Clean (ID: WedgeClean)
Mesomerize (ID: Mesomerize)
Tautomerize (ID: Tautomerize)
Add Explicit Hydrogens (ID: AddExplicitH)
Neutralize (ID: Neutralize)
Clean 2D (ID: Clean2D)

> <knn Distance>
4.0

> <CpId>
526

$$$$
542
  Mrv1532301301811342D          

 46 45  0  0  0  0            999 V2000
    2.0208   -3.5596    0.0000 C   0  0  0  0  0  0  0  0  0  0  0  0
    2.4333   -4.2741    0.0000 C   0  0  0  0  0  0  0  0  0  0  0  0
    3.2583   -4.2741    0.0000 C   0  0  0  0  0  0  0  0  0  0  0  0
    3.6708   -4.9885    0.0000 C   0  0  0  0  0  0  0  0  0  0  0  0
    4.4958   -4.9885    0.0000 C   0  0  0  0  0  0  0  0  0  0  0  0
    4.9083   -4.2741    0.0000 C   0  0  0  0  0  0  0  0  0  0  0  0
    5.7333   -4.2741    0.0000 C   0  0  0  0  0  0  0  0  0  0  0  0
    4.9083   -5.7030    0.0000 C   0  0  0  0  0  0  0  0  0  0  0  0
    5.7333   -5.7030    0.0000 N   0  0  0  0  0  0  0  0  0  0  0  0
    6.1458   -6.4175    0.0000 C   0  0  0  0  0  0  0  0  0  0  0  0
    6.9708   -6.4175    0.0000 C   0  0  0  0  0  0  0  0  0  0  0  0
    7.3833   -7.1320    0.0000 C   0  0  0  0  0  0  0  0  0  0  0  0
    8.2083   -7.1320    0.0000 O   0  0  0  0  0  0  0  0  0  0  0  0
    6.9708   -7.8464    0.0000 O   0  0  0  0  0  0  0  0  0  0  0  0
    6.1458   -4.9885    0.0000 C   0  0  0  0  0  0  0  0  0  0  0  0
    6.9708   -4.9885    0.0000 C   0  0  0  0  0  0  0  0  0  0  0  0
    7.3833   -4.2741    0.0000 C   0  0  0  0  0  0  0  0  0  0  0  0
    6.9708   -3.5596    0.0000 O   0  0  0  0  0  0  0  0  0  0  0  0
    8.2083   -4.2741    0.0000 O   0  0  0  0  0  0  0  0  0  0  0  0
    2.7353   -3.1471    0.0000 H   0  0  0  0  0  0  0  0  0  0  0  0
    1.6083   -2.8451    0.0000 H   0  0  0  0  0  0  0  0  0  0  0  0
    1.3064   -3.9721    0.0000 H   0  0  0  0  0  0  0  0  0  0  0  0
    1.7440   -4.7274    0.0000 H   0  0  0  0  0  0  0  0  0  0  0  0
    2.3854   -5.0977    0.0000 H   0  0  0  0  0  0  0  0  0  0  0  0
    3.9476   -3.8207    0.0000 H   0  0  0  0  0  0  0  0  0  0  0  0
    3.3063   -3.4505    0.0000 H   0  0  0  0  0  0  0  0  0  0  0  0
    2.9815   -5.4419    0.0000 H   0  0  0  0  0  0  0  0  0  0  0  0
    3.6229   -5.8121    0.0000 H   0  0  0  0  0  0  0  0  0  0  0  0
    4.0833   -4.2741    0.0000 H   0  0  0  0  0  0  0  0  0  0  0  0
    5.1905   -3.4988    0.0000 H   0  0  0  0  0  0  0  0  0  0  0  0
    4.6262   -3.4988    0.0000 H   0  0  0  0  0  0  0  0  0  0  0  0
    6.5405   -4.1033    0.0000 H   0  0  0  0  0  0  0  0  0  0  0  0
    6.2292   -3.6147    0.0000 H   0  0  0  0  0  0  0  0  0  0  0  0
    5.3208   -4.9885    0.0000 H   0  0  0  0  0  0  0  0  0  0  0  0
    4.2190   -6.1564    0.0000 H   0  0  0  0  0  0  0  0  0  0  0  0
    4.8604   -6.5266    0.0000 H   0  0  0  0  0  0  0  0  0  0  0  0
    5.4565   -6.8708    0.0000 H   0  0  0  0  0  0  0  0  0  0  0  0
    6.0979   -7.2411    0.0000 H   0  0  0  0  0  0  0  0  0  0  0  0
    7.6601   -5.9641    0.0000 H   0  0  0  0  0  0  0  0  0  0  0  0
    7.0188   -5.5939    0.0000 H   0  0  0  0  0  0  0  0  0  0  0  0
    8.6208   -7.8464    0.0000 H   0  0  0  0  0  0  0  0  0  0  0  0
    6.2891   -5.8010    0.0000 H   0  0  0  0  0  0  0  0  0  0  0  0
    6.7778   -5.5188    0.0000 H   0  0  0  0  0  0  0  0  0  0  0  0
    7.7755   -5.1704    0.0000 H   0  0  0  0  0  0  0  0  0  0  0  0
    6.5583   -4.2741    0.0000 H   0  0  0  0  0  0  0  0  0  0  0  0
    7.3565   -2.8303    0.0000 H   0  0  0  0  0  0  0  0  0  0  0  0
  1  2  1  0  0  0  0
  2  3  1  0  0  0  0
  3  4  1  0  0  0  0
  4  5  1  0  0  0  0
  5  6  1  0  0  0  0
  6  7  1  0  0  0  0
  5  8  1  0  0  0  0
  8  9  1  0  0  0  0
  9 10  1  0  0  0  0
 10 11  1  0  0  0  0
 11 12  1  0  0  0  0
 12 13  1  0  0  0  0
 12 14  2  0  0  0  0
  9 15  1  0  0  0  0
 15 16  1  0  0  0  0
 16 17  1  0  0  0  0
 17 18  1  0  0  0  0
 17 19  2  0  0  0  0
  1 20  1  0  0  0  0
  1 21  1  0  0  0  0
  1 22  1  0  0  0  0
  2 23  1  0  0  0  0
  2 24  1  0  0  0  0
  3 25  1  0  0  0  0
  3 26  1  0  0  0  0
  4 27  1  0  0  0  0
  4 28  1  0  0  0  0
  5 29  1  0  0  0  0
  6 30  1  0  0  0  0
  6 31  1  0  0  0  0
  7 32  1  0  0  0  0
  7 33  1  0  0  0  0
  7 34  1  0  0  0  0
  8 35  1  0  0  0  0
  8 36  1  0  0  0  0
 10 37  1  0  0  0  0
 10 38  1  0  0  0  0
 11 39  1  0  0  0  0
 11 40  1  0  0  0  0
 13 41  1  0  0  0  0
 15 42  1  0  0  0  0
 15 43  1  0  0  0  0
 16 44  1  0  0  0  0
 16 45  1  0  0  0  0
 18 46  1  0  0  0  0
M  END
>  <InChIKey>
OAHNQUKKWVAYGR-UHFFFAOYSA-L

>  <UN GHS>
Non-irritant

>  <CASRN>
94441-92-6

> <Outcome>
0

>  <Index>
542

>  <StandardizerResult>
Clear Stereo (ID: ClearStereo)
Wedge Clean (ID: WedgeClean)
Mesomerize (ID: Mesomerize)
Tautomerize (ID: Tautomerize)
Add Explicit Hydrogens (ID: AddExplicitH)
Neutralize (ID: Neutralize)
Clean 2D (ID: Clean2D)

> <knn Distance>
4.0

> <CpId>
542

$$$$
548
  Mrv1532301301811342D          

 14 13  0  0  0  0            999 V2000
    2.1281   -0.7052    0.0000 C   0  0  0  0  0  0  0  0  0  0  0  0
    1.3031   -0.7052    0.0000 C   0  0  0  0  0  0  0  0  0  0  0  0
    0.8906   -1.4197    0.0000 C   0  0  0  0  0  0  0  0  0  0  0  0
    0.8906    0.0092    0.0000 N   0  0  0  0  0  0  0  0  0  0  0  0
    0.0656    0.0092    0.0000 O   0  0  0  0  0  0  0  0  0  0  0  0
    2.1281   -1.5302    0.0000 H   0  0  0  0  0  0  0  0  0  0  0  0
    2.9531   -0.7052    0.0000 H   0  0  0  0  0  0  0  0  0  0  0  0
    2.1281    0.1198    0.0000 H   0  0  0  0  0  0  0  0  0  0  0  0
    1.7156   -1.4197    0.0000 H   0  0  0  0  0  0  0  0  0  0  0  0
    0.3072   -0.8363    0.0000 H   0  0  0  0  0  0  0  0  0  0  0  0
    0.1761   -1.8322    0.0000 H   0  0  0  0  0  0  0  0  0  0  0  0
    1.1041   -2.2166    0.0000 H   0  0  0  0  0  0  0  0  0  0  0  0
    1.3031    0.7237    0.0000 H   0  0  0  0  0  0  0  0  0  0  0  0
   -0.5931    0.5060    0.0000 H   0  0  0  0  0  0  0  0  0  0  0  0
  1  2  1  0  0  0  0
  2  3  1  0  0  0  0
  2  4  1  0  0  0  0
  4  5  1  0  0  0  0
  1  6  1  0  0  0  0
  1  7  1  0  0  0  0
  1  8  1  0  0  0  0
  2  9  1  0  0  0  0
  3 10  1  0  0  0  0
  3 11  1  0  0  0  0
  3 12  1  0  0  0  0
  4 13  1  0  0  0  0
  5 14  1  0  0  0  0
M  END
>  <InChIKey>
ODHYIQOBTIWVRZ-UHFFFAOYSA-N

>  <UN GHS>
Non-irritant

>  <CASRN>
5080-22-8

> <Outcome>
0

>  <Index>
548

>  <StandardizerResult>
Clear Stereo (ID: ClearStereo)
Wedge Clean (ID: WedgeClean)
Mesomerize (ID: Mesomerize)
Tautomerize (ID: Tautomerize)
Add Explicit Hydrogens (ID: AddExplicitH)
Neutralize (ID: Neutralize)
Clean 2D (ID: Clean2D)

> <knn Distance>
4.0

> <CpId>
548

$$$$
655
  Mrv1532301301811342D          

 92 93  0  0  0  0            999 V2000
   -7.8487   -9.4979    0.0000 C   0  0  0  0  0  0  0  0  0  0  0  0
   -7.1342   -9.9104    0.0000 C   0  0  0  0  0  0  0  0  0  0  0  0
   -6.4197   -9.4979    0.0000 C   0  0  0  0  0  0  0  0  0  0  0  0
   -5.7053   -9.9104    0.0000 C   0  0  0  0  0  0  0  0  0  0  0  0
   -4.9908   -9.4979    0.0000 C   0  0  0  0  0  0  0  0  0  0  0  0
   -4.2763   -9.9104    0.0000 C   0  0  0  0  0  0  0  0  0  0  0  0
   -3.5618   -9.4979    0.0000 C   0  0  0  0  0  0  0  0  0  0  0  0
   -3.5618   -8.6729    0.0000 O   0  0  0  0  0  0  0  0  0  0  0  0
   -2.8474   -9.9104    0.0000 O   0  0  0  0  0  0  0  0  0  0  0  0
   -2.1329   -9.4979    0.0000 C   0  0  0  0  0  0  0  0  0  0  0  0
   -1.4184   -9.9104    0.0000 C   0  0  0  0  0  0  0  0  0  0  0  0
   -0.7040   -9.4979    0.0000 O   0  0  0  0  0  0  0  0  0  0  0  0
    0.0105   -9.9104    0.0000 C   0  0  0  0  0  0  0  0  0  0  0  0
    0.7250   -9.4979    0.0000 C   0  0  0  0  0  0  0  0  0  0  0  0
    1.4394   -9.9104    0.0000 O   0  0  0  0  0  0  0  0  0  0  0  0
    2.1539   -9.4979    0.0000 C   0  0  0  0  0  0  0  0  0  0  0  0
    2.8684   -9.9104    0.0000 C   0  0  0  0  0  0  0  0  0  0  0  0
    3.5829   -9.4979    0.0000 O   0  0  0  0  0  0  0  0  0  0  0  0
    4.2973   -9.9104    0.0000 C   0  0  0  0  0  0  0  0  0  0  0  0
    4.2973  -10.7354    0.0000 O   0  0  0  0  0  0  0  0  0  0  0  0
    5.0118   -9.4979    0.0000 C   0  0  0  0  0  0  0  0  0  0  0  0
    5.7263   -9.9104    0.0000 C   0  0  0  0  0  0  0  0  0  0  0  0
    6.4407   -9.4979    0.0000 C   0  0  0  0  0  0  0  0  0  0  0  0
    6.4407   -8.6729    0.0000 C   0  0  0  0  0  0  0  0  0  0  0  0
    7.1552   -8.2604    0.0000 C   0  0  0  0  0  0  0  0  0  0  0  0
    7.1552   -7.4354    0.0000 C   0  0  0  0  0  0  0  0  0  0  0  0
    7.8697   -8.6729    0.0000 C   0  0  0  0  0  0  0  0  0  0  0  0
    8.5842   -8.2604    0.0000 O   0  0  0  0  0  0  0  0  0  0  0  0
    7.8697   -9.4979    0.0000 C   0  0  0  0  0  0  0  0  0  0  0  0
    7.1552   -9.9104    0.0000 C   0  0  0  0  0  0  0  0  0  0  0  0
    8.5842   -9.9104    0.0000 C   0  0  0  0  0  0  0  0  0  0  0  0
    9.2986  -10.3229    0.0000 C   0  0  0  0  0  0  0  0  0  0  0  0
    8.1717  -10.6249    0.0000 C   0  0  0  0  0  0  0  0  0  0  0  0
    8.9967   -9.1960    0.0000 C   0  0  0  0  0  0  0  0  0  0  0  0
   -5.7053  -10.7354    0.0000 C   0  0  0  0  0  0  0  0  0  0  0  0
   -6.4197  -11.1479    0.0000 C   0  0  0  0  0  0  0  0  0  0  0  0
   -7.1342  -10.7354    0.0000 C   0  0  0  0  0  0  0  0  0  0  0  0
   -7.8487  -11.1479    0.0000 O   0  0  0  0  0  0  0  0  0  0  0  0
   -6.4197  -11.9729    0.0000 C   0  0  0  0  0  0  0  0  0  0  0  0
   -6.4197  -12.7979    0.0000 C   0  0  0  0  0  0  0  0  0  0  0  0
   -7.2447  -11.9729    0.0000 C   0  0  0  0  0  0  0  0  0  0  0  0
   -5.5947  -11.9729    0.0000 C   0  0  0  0  0  0  0  0  0  0  0  0
   -7.4362   -8.7835    0.0000 H   0  0  0  0  0  0  0  0  0  0  0  0
   -8.5631   -9.0854    0.0000 H   0  0  0  0  0  0  0  0  0  0  0  0
   -8.2612  -10.2124    0.0000 H   0  0  0  0  0  0  0  0  0  0  0  0
   -6.4197   -8.6729    0.0000 H   0  0  0  0  0  0  0  0  0  0  0  0
   -4.6205   -8.7607    0.0000 H   0  0  0  0  0  0  0  0  0  0  0  0
   -5.3611   -8.7607    0.0000 H   0  0  0  0  0  0  0  0  0  0  0  0
   -4.6466  -10.6477    0.0000 H   0  0  0  0  0  0  0  0  0  0  0  0
   -3.9061  -10.6477    0.0000 H   0  0  0  0  0  0  0  0  0  0  0  0
   -1.7626   -8.7607    0.0000 H   0  0  0  0  0  0  0  0  0  0  0  0
   -2.5032   -8.7607    0.0000 H   0  0  0  0  0  0  0  0  0  0  0  0
   -1.7887  -10.6477    0.0000 H   0  0  0  0  0  0  0  0  0  0  0  0
   -1.0482  -10.6477    0.0000 H   0  0  0  0  0  0  0  0  0  0  0  0
   -0.3598  -10.6477    0.0000 H   0  0  0  0  0  0  0  0  0  0  0  0
    0.3808  -10.6477    0.0000 H   0  0  0  0  0  0  0  0  0  0  0  0
    1.0952   -8.7607    0.0000 H   0  0  0  0  0  0  0  0  0  0  0  0
    0.3547   -8.7607    0.0000 H   0  0  0  0  0  0  0  0  0  0  0  0
    2.5242   -8.7607    0.0000 H   0  0  0  0  0  0  0  0  0  0  0  0
    1.7837   -8.7607    0.0000 H   0  0  0  0  0  0  0  0  0  0  0  0
    2.4981  -10.6477    0.0000 H   0  0  0  0  0  0  0  0  0  0  0  0
    3.2386  -10.6477    0.0000 H   0  0  0  0  0  0  0  0  0  0  0  0
    5.3821   -8.7607    0.0000 H   0  0  0  0  0  0  0  0  0  0  0  0
    4.6415   -8.7607    0.0000 H   0  0  0  0  0  0  0  0  0  0  0  0
    5.3560  -10.6477    0.0000 H   0  0  0  0  0  0  0  0  0  0  0  0
    6.0965  -10.6477    0.0000 H   0  0  0  0  0  0  0  0  0  0  0  0
    5.7263   -8.2604    0.0000 H   0  0  0  0  0  0  0  0  0  0  0  0
    7.9802   -7.4354    0.0000 H   0  0  0  0  0  0  0  0  0  0  0  0
    7.1552   -6.6104    0.0000 H   0  0  0  0  0  0  0  0  0  0  0  0
    6.3302   -7.4354    0.0000 H   0  0  0  0  0  0  0  0  0  0  0  0
    9.2986   -8.6729    0.0000 H   0  0  0  0  0  0  0  0  0  0  0  0
    7.1552  -10.7354    0.0000 H   0  0  0  0  0  0  0  0  0  0  0  0
    8.8861  -11.0374    0.0000 H   0  0  0  0  0  0  0  0  0  0  0  0
   10.0131  -10.7354    0.0000 H   0  0  0  0  0  0  0  0  0  0  0  0
    9.7111   -9.6085    0.0000 H   0  0  0  0  0  0  0  0  0  0  0  0
    7.6694   -9.9704    0.0000 H   0  0  0  0  0  0  0  0  0  0  0  0
    7.3748  -10.8384    0.0000 H   0  0  0  0  0  0  0  0  0  0  0  0
    8.0640  -11.4429    0.0000 H   0  0  0  0  0  0  0  0  0  0  0  0
    8.4664   -8.5640    0.0000 H   0  0  0  0  0  0  0  0  0  0  0  0
    8.1842   -9.0527    0.0000 H   0  0  0  0  0  0  0  0  0  0  0  0
    9.7935   -8.9825    0.0000 H   0  0  0  0  0  0  0  0  0  0  0  0
   -4.9908  -11.1479    0.0000 H   0  0  0  0  0  0  0  0  0  0  0  0
   -8.5631  -10.7354    0.0000 H   0  0  0  0  0  0  0  0  0  0  0  0
   -7.2447  -12.7979    0.0000 H   0  0  0  0  0  0  0  0  0  0  0  0
   -6.4197  -13.6229    0.0000 H   0  0  0  0  0  0  0  0  0  0  0  0
   -5.5947  -12.7979    0.0000 H   0  0  0  0  0  0  0  0  0  0  0  0
   -6.9290  -11.2107    0.0000 H   0  0  0  0  0  0  0  0  0  0  0  0
   -7.8281  -11.3896    0.0000 H   0  0  0  0  0  0  0  0  0  0  0  0
   -8.0069  -12.2887    0.0000 H   0  0  0  0  0  0  0  0  0  0  0  0
   -4.8325  -12.2887    0.0000 H   0  0  0  0  0  0  0  0  0  0  0  0
   -5.0114  -11.3896    0.0000 H   0  0  0  0  0  0  0  0  0  0  0  0
   -5.9104  -11.2107    0.0000 H   0  0  0  0  0  0  0  0  0  0  0  0
  1  2  1  0  0  0  0
  2  3  4  0  0  0  0
  3  4  4  0  0  0  0
  4  5  1  0  0  0  0
  5  6  1  0  0  0  0
  6  7  1  0  0  0  0
  7  8  2  0  0  0  0
  7  9  1  0  0  0  0
  9 10  1  0  0  0  0
 10 11  1  0  0  0  0
 11 12  1  0  0  0  0
 12 13  1  0  0  0  0
 13 14  1  0  0  0  0
 14 15  1  0  0  0  0
 15 16  1  0  0  0  0
 16 17  1  0  0  0  0
 17 18  1  0  0  0  0
 18 19  1  0  0  0  0
 19 20  2  0  0  0  0
 19 21  1  0  0  0  0
 21 22  1  0  0  0  0
 22 23  1  0  0  0  0
 23 24  4  0  0  0  0
 24 25  4  0  0  0  0
 25 26  1  0  0  0  0
 25 27  4  0  0  0  0
 27 28  1  0  0  0  0
 27 29  4  0  0  0  0
 29 30  4  0  0  0  0
 23 30  4  0  0  0  0
 29 31  1  0  0  0  0
 31 32  1  0  0  0  0
 31 33  1  0  0  0  0
 31 34  1  0  0  0  0
  4 35  4  0  0  0  0
 35 36  4  0  0  0  0
 36 37  4  0  0  0  0
  2 37  4  0  0  0  0
 37 38  1  0  0  0  0
 36 39  1  0  0  0  0
 39 40  1  0  0  0  0
 39 41  1  0  0  0  0
 39 42  1  0  0  0  0
  1 43  1  0  0  0  0
  1 44  1  0  0  0  0
  1 45  1  0  0  0  0
  3 46  1  0  0  0  0
  5 47  1  0  0  0  0
  5 48  1  0  0  0  0
  6 49  1  0  0  0  0
  6 50  1  0  0  0  0
 10 51  1  0  0  0  0
 10 52  1  0  0  0  0
 11 53  1  0  0  0  0
 11 54  1  0  0  0  0
 13 55  1  0  0  0  0
 13 56  1  0  0  0  0
 14 57  1  0  0  0  0
 14 58  1  0  0  0  0
 16 59  1  0  0  0  0
 16 60  1  0  0  0  0
 17 61  1  0  0  0  0
 17 62  1  0  0  0  0
 21 63  1  0  0  0  0
 21 64  1  0  0  0  0
 22 65  1  0  0  0  0
 22 66  1  0  0  0  0
 24 67  1  0  0  0  0
 26 68  1  0  0  0  0
 26 69  1  0  0  0  0
 26 70  1  0  0  0  0
 28 71  1  0  0  0  0
 30 72  1  0  0  0  0
 32 73  1  0  0  0  0
 32 74  1  0  0  0  0
 32 75  1  0  0  0  0
 33 76  1  0  0  0  0
 33 77  1  0  0  0  0
 33 78  1  0  0  0  0
 34 79  1  0  0  0  0
 34 80  1  0  0  0  0
 34 81  1  0  0  0  0
 35 82  1  0  0  0  0
 38 83  1  0  0  0  0
 40 84  1  0  0  0  0
 40 85  1  0  0  0  0
 40 86  1  0  0  0  0
 41 87  1  0  0  0  0
 41 88  1  0  0  0  0
 41 89  1  0  0  0  0
 42 90  1  0  0  0  0
 42 91  1  0  0  0  0
 42 92  1  0  0  0  0
M  END
>  <InChIKey>
QSRJVOOOWGXUDY-UHFFFAOYSA-N

>  <UN GHS>
Non-irritant

>  <CASRN>
36443-68-2

> <Outcome>
0

>  <Index>
655

>  <StandardizerResult>
Dearomatize (ID: Dearomatize)
Clear Stereo (ID: ClearStereo)
Wedge Clean (ID: WedgeClean)
Mesomerize (ID: Mesomerize)
Tautomerize (ID: Tautomerize)
Aromatize (ID: Aromatize)
Add Explicit Hydrogens (ID: AddExplicitH)
Neutralize (ID: Neutralize)
Clean 2D (ID: Clean2D)

> <knn Distance>
4.0

> <CpId>
655

$$$$
694
  Mrv1532301301811342D          

 13 13  0  0  0  0            999 V2000
    0.6654    1.9572    0.0000 C   0  0  0  0  0  0  0  0  0  0  0  0
    0.6654    1.1322    0.0000 C   0  0  0  0  0  0  0  0  0  0  0  0
    1.3328    0.6473    0.0000 C   0  0  0  0  0  0  0  0  0  0  0  0
    1.0779   -0.1374    0.0000 O   0  0  0  0  0  0  0  0  0  0  0  0
    0.2529   -0.1374    0.0000 C   0  0  0  0  0  0  0  0  0  0  0  0
   -0.2320   -0.8048    0.0000 O   0  0  0  0  0  0  0  0  0  0  0  0
   -0.0021    0.6473    0.0000 O   0  0  0  0  0  0  0  0  0  0  0  0
    1.4904    1.9572    0.0000 H   0  0  0  0  0  0  0  0  0  0  0  0
    0.6654    2.7822    0.0000 H   0  0  0  0  0  0  0  0  0  0  0  0
   -0.1596    1.9572    0.0000 H   0  0  0  0  0  0  0  0  0  0  0  0
   -0.0697    1.5067    0.0000 H   0  0  0  0  0  0  0  0  0  0  0  0
    2.1453    0.5040    0.0000 H   0  0  0  0  0  0  0  0  0  0  0  0
    1.9059    1.2407    0.0000 H   0  0  0  0  0  0  0  0  0  0  0  0
  1  2  1  0  0  0  0
  2  3  1  0  0  0  0
  3  4  1  0  0  0  0
  4  5  1  0  0  0  0
  5  6  2  0  0  0  0
  5  7  1  0  0  0  0
  2  7  1  0  0  0  0
  1  8  1  0  0  0  0
  1  9  1  0  0  0  0
  1 10  1  0  0  0  0
  2 11  1  0  0  0  0
  3 12  1  0  0  0  0
  3 13  1  0  0  0  0
M  END
>  <InChIKey>
RUOJZAUFBMNUDX-UHFFFAOYSA-N

>  <UN GHS>
Non-irritant

>  <CASRN>
108-32-7

> <Outcome>
0

>  <Index>
694

>  <StandardizerResult>
Clear Stereo (ID: ClearStereo)
Wedge Clean (ID: WedgeClean)
Mesomerize (ID: Mesomerize)
Tautomerize (ID: Tautomerize)
Add Explicit Hydrogens (ID: AddExplicitH)
Neutralize (ID: Neutralize)
Clean 2D (ID: Clean2D)

> <knn Distance>
4.0

> <CpId>
694

$$$$
713
  Mrv1532301301811342D          

 17 18  0  0  0  0            999 V2000
    4.0679    3.1729    0.0000 O   0  0  0  0  0  0  0  0  0  0  0  0
    4.0679    2.3479    0.0000 C   0  0  0  0  0  0  0  0  0  0  0  0
    3.3534    1.9354    0.0000 C   0  0  0  0  0  0  0  0  0  0  0  0
    3.3534    1.1104    0.0000 C   0  0  0  0  0  0  0  0  0  0  0  0
    2.6390    0.6979    0.0000 C   0  0  0  0  0  0  0  0  0  0  0  0
    1.9245    1.1104    0.0000 C   0  0  0  0  0  0  0  0  0  0  0  0
    1.1399    0.8555    0.0000 O   0  0  0  0  0  0  0  0  0  0  0  0
    0.6549    1.5229    0.0000 C   0  0  0  0  0  0  0  0  0  0  0  0
    1.1399    2.1903    0.0000 O   0  0  0  0  0  0  0  0  0  0  0  0
    1.9245    1.9354    0.0000 C   0  0  0  0  0  0  0  0  0  0  0  0
    2.6390    2.3479    0.0000 C   0  0  0  0  0  0  0  0  0  0  0  0
    4.7824    1.9354    0.0000 H   0  0  0  0  0  0  0  0  0  0  0  0
    4.0679    0.6979    0.0000 H   0  0  0  0  0  0  0  0  0  0  0  0
    2.6390   -0.1271    0.0000 H   0  0  0  0  0  0  0  0  0  0  0  0
   -0.0735    1.9102    0.0000 H   0  0  0  0  0  0  0  0  0  0  0  0
   -0.0735    1.1356    0.0000 H   0  0  0  0  0  0  0  0  0  0  0  0
    2.6390    3.1729    0.0000 H   0  0  0  0  0  0  0  0  0  0  0  0
  1  2  2  0  0  0  0
  2  3  1  0  0  0  0
  3  4  4  0  0  0  0
  4  5  4  0  0  0  0
  5  6  4  0  0  0  0
  6  7  1  0  0  0  0
  7  8  1  0  0  0  0
  8  9  1  0  0  0  0
  9 10  1  0  0  0  0
  6 10  4  0  0  0  0
 10 11  4  0  0  0  0
  3 11  4  0  0  0  0
  2 12  1  0  0  0  0
  4 13  1  0  0  0  0
  5 14  1  0  0  0  0
  8 15  1  0  0  0  0
  8 16  1  0  0  0  0
 11 17  1  0  0  0  0
M  END
>  <InChIKey>
SATCULPHIDQDRE-UHFFFAOYSA-N

>  <UN GHS>
Non-irritant

>  <CASRN>
120-57-0

> <Outcome>
0

>  <Index>
713

>  <StandardizerResult>
Dearomatize (ID: Dearomatize)
Clear Stereo (ID: ClearStereo)
Wedge Clean (ID: WedgeClean)
Mesomerize (ID: Mesomerize)
Tautomerize (ID: Tautomerize)
Aromatize (ID: Aromatize)
Add Explicit Hydrogens (ID: AddExplicitH)
Neutralize (ID: Neutralize)
Clean 2D (ID: Clean2D)

> <knn Distance>
4.0

> <CpId>
713

$$$$
765
  Mrv1532301301811342D          

 27 27  0  0  0  0            999 V2000
    0.0247    2.5040    0.0000 C   0  0  0  0  0  0  0  0  0  0  0  0
    0.7391    2.0915    0.0000 S   0  0  0  0  0  0  0  0  0  0  0  0
    0.7391    1.2665    0.0000 C   0  0  0  0  0  0  0  0  0  0  0  0
    1.4536    0.8540    0.0000 C   0  0  0  0  0  0  0  0  0  0  0  0
    1.4536    0.0290    0.0000 C   0  0  0  0  0  0  0  0  0  0  0  0
    2.1681   -0.3835    0.0000 S   0  0  0  0  0  0  0  0  0  0  0  0
    2.8825    0.0290    0.0000 C   0  0  0  0  0  0  0  0  0  0  0  0
    0.7391   -0.3835    0.0000 C   0  0  0  0  0  0  0  0  0  0  0  0
    0.7391   -1.2085    0.0000 N   0  0  0  0  0  0  0  0  0  0  0  0
    0.0247    0.0290    0.0000 C   0  0  0  0  0  0  0  0  0  0  0  0
   -0.6898   -0.3835    0.0000 C   0  0  0  0  0  0  0  0  0  0  0  0
    0.0247    0.8540    0.0000 C   0  0  0  0  0  0  0  0  0  0  0  0
   -0.6898    1.2665    0.0000 N   0  0  0  0  0  0  0  0  0  0  0  0
    0.4372    3.2184    0.0000 H   0  0  0  0  0  0  0  0  0  0  0  0
   -0.6898    2.9165    0.0000 H   0  0  0  0  0  0  0  0  0  0  0  0
   -0.3878    1.7895    0.0000 H   0  0  0  0  0  0  0  0  0  0  0  0
    2.1681    1.2665    0.0000 H   0  0  0  0  0  0  0  0  0  0  0  0
    3.2950   -0.6855    0.0000 H   0  0  0  0  0  0  0  0  0  0  0  0
    3.5970    0.4415    0.0000 H   0  0  0  0  0  0  0  0  0  0  0  0
    2.4700    0.7434    0.0000 H   0  0  0  0  0  0  0  0  0  0  0  0
    0.0247   -1.6210    0.0000 H   0  0  0  0  0  0  0  0  0  0  0  0
    1.4536   -1.6210    0.0000 H   0  0  0  0  0  0  0  0  0  0  0  0
   -1.1023    0.3309    0.0000 H   0  0  0  0  0  0  0  0  0  0  0  0
   -1.4043   -0.7960    0.0000 H   0  0  0  0  0  0  0  0  0  0  0  0
   -0.2773   -1.0980    0.0000 H   0  0  0  0  0  0  0  0  0  0  0  0
   -1.4867    1.4800    0.0000 H   0  0  0  0  0  0  0  0  0  0  0  0
   -1.2732    0.6831    0.0000 H   0  0  0  0  0  0  0  0  0  0  0  0
  1  2  1  0  0  0  0
  2  3  1  0  0  0  0
  3  4  4  0  0  0  0
  4  5  4  0  0  0  0
  5  6  1  0  0  0  0
  6  7  1  0  0  0  0
  5  8  4  0  0  0  0
  8  9  1  0  0  0  0
  8 10  4  0  0  0  0
 10 11  1  0  0  0  0
 10 12  4  0  0  0  0
  3 12  4  0  0  0  0
 12 13  1  0  0  0  0
  1 14  1  0  0  0  0
  1 15  1  0  0  0  0
  1 16  1  0  0  0  0
  4 17  1  0  0  0  0
  7 18  1  0  0  0  0
  7 19  1  0  0  0  0
  7 20  1  0  0  0  0
  9 21  1  0  0  0  0
  9 22  1  0  0  0  0
 11 23  1  0  0  0  0
 11 24  1  0  0  0  0
 11 25  1  0  0  0  0
 13 26  1  0  0  0  0
 13 27  1  0  0  0  0
M  END
>  <InChIKey>
TXDBDYPHJXUHEO-UHFFFAOYSA-N

>  <UN GHS>
Non-irritant

>  <CASRN>
106264-79-3

> <Outcome>
0

>  <Index>
765

>  <StandardizerResult>
Dearomatize (ID: Dearomatize)
Clear Stereo (ID: ClearStereo)
Wedge Clean (ID: WedgeClean)
Mesomerize (ID: Mesomerize)
Tautomerize (ID: Tautomerize)
Aromatize (ID: Aromatize)
Add Explicit Hydrogens (ID: AddExplicitH)
Neutralize (ID: Neutralize)
Clean 2D (ID: Clean2D)

> <knn Distance>
4.0

> <CpId>
765

$$$$
766
  Mrv1532301301811342D          

 42 46  0  0  0  0            999 V2000
    2.1434   -5.3625    0.0000 C   0  0  0  0  0  0  0  0  0  0  0  0
    2.8579   -4.9500    0.0000 C   0  0  0  0  0  0  0  0  0  0  0  0
    2.8579   -4.1250    0.0000 C   0  0  0  0  0  0  0  0  0  0  0  0
    3.5724   -3.7125    0.0000 C   0  0  0  0  0  0  0  0  0  0  0  0
    4.2868   -4.1250    0.0000 C   0  0  0  0  0  0  0  0  0  0  0  0
    5.0013   -3.7125    0.0000 N   0  0  0  0  0  0  0  0  0  0  0  0
    5.7158   -4.1250    0.0000 C   0  0  0  0  0  0  0  0  0  0  0  0
    6.4302   -3.7125    0.0000 C   0  0  0  0  0  0  0  0  0  0  0  0
    7.1447   -4.1250    0.0000 C   0  0  0  0  0  0  0  0  0  0  0  0
    7.8592   -3.7125    0.0000 C   0  0  0  0  0  0  0  0  0  0  0  0
    7.8592   -2.8875    0.0000 O   0  0  0  0  0  0  0  0  0  0  0  0
    8.5737   -4.1250    0.0000 C   0  0  0  0  0  0  0  0  0  0  0  0
    9.2881   -3.7125    0.0000 C   0  0  0  0  0  0  0  0  0  0  0  0
   10.0026   -4.1250    0.0000 C   0  0  0  0  0  0  0  0  0  0  0  0
   10.7171   -3.7125    0.0000 C   0  0  0  0  0  0  0  0  0  0  0  0
   10.0026   -4.9500    0.0000 C   0  0  0  0  0  0  0  0  0  0  0  0
    9.2881   -5.3625    0.0000 C   0  0  0  0  0  0  0  0  0  0  0  0
    8.5737   -4.9500    0.0000 C   0  0  0  0  0  0  0  0  0  0  0  0
    7.8592   -5.3625    0.0000 N   0  0  0  0  0  0  0  0  0  0  0  0
    7.1447   -4.9500    0.0000 C   0  0  0  0  0  0  0  0  0  0  0  0
    6.4302   -5.3625    0.0000 C   0  0  0  0  0  0  0  0  0  0  0  0
    5.7158   -4.9500    0.0000 C   0  0  0  0  0  0  0  0  0  0  0  0
    5.0013   -5.3625    0.0000 C   0  0  0  0  0  0  0  0  0  0  0  0
    5.0013   -6.1875    0.0000 O   0  0  0  0  0  0  0  0  0  0  0  0
    4.2868   -4.9500    0.0000 C   0  0  0  0  0  0  0  0  0  0  0  0
    3.5724   -5.3625    0.0000 C   0  0  0  0  0  0  0  0  0  0  0  0
    1.7309   -4.6480    0.0000 H   0  0  0  0  0  0  0  0  0  0  0  0
    1.4289   -5.7750    0.0000 H   0  0  0  0  0  0  0  0  0  0  0  0
    2.5559   -6.0770    0.0000 H   0  0  0  0  0  0  0  0  0  0  0  0
    2.1434   -3.7125    0.0000 H   0  0  0  0  0  0  0  0  0  0  0  0
    3.5724   -2.8875    0.0000 H   0  0  0  0  0  0  0  0  0  0  0  0
    6.4302   -2.8875    0.0000 H   0  0  0  0  0  0  0  0  0  0  0  0
    8.5737   -2.4750    0.0000 H   0  0  0  0  0  0  0  0  0  0  0  0
    9.2881   -2.8875    0.0000 H   0  0  0  0  0  0  0  0  0  0  0  0
   11.1296   -4.4270    0.0000 H   0  0  0  0  0  0  0  0  0  0  0  0
   11.4315   -3.3000    0.0000 H   0  0  0  0  0  0  0  0  0  0  0  0
   10.3046   -2.9980    0.0000 H   0  0  0  0  0  0  0  0  0  0  0  0
   10.7171   -5.3625    0.0000 H   0  0  0  0  0  0  0  0  0  0  0  0
    9.2881   -6.1875    0.0000 H   0  0  0  0  0  0  0  0  0  0  0  0
    6.4302   -6.1875    0.0000 H   0  0  0  0  0  0  0  0  0  0  0  0
    4.2868   -6.6000    0.0000 H   0  0  0  0  0  0  0  0  0  0  0  0
    3.5724   -6.1875    0.0000 H   0  0  0  0  0  0  0  0  0  0  0  0
  1  2  1  0  0  0  0
  2  3  4  0  0  0  0
  3  4  4  0  0  0  0
  4  5  4  0  0  0  0
  5  6  4  0  0  0  0
  6  7  4  0  0  0  0
  7  8  4  0  0  0  0
  8  9  4  0  0  0  0
  9 10  4  0  0  0  0
 10 11  1  0  0  0  0
 10 12  4  0  0  0  0
 12 13  4  0  0  0  0
 13 14  4  0  0  0  0
 14 15  1  0  0  0  0
 14 16  4  0  0  0  0
 16 17  4  0  0  0  0
 17 18  4  0  0  0  0
 12 18  4  0  0  0  0
 18 19  4  0  0  0  0
 19 20  4  0  0  0  0
  9 20  4  0  0  0  0
 20 21  4  0  0  0  0
 21 22  4  0  0  0  0
  7 22  4  0  0  0  0
 22 23  4  0  0  0  0
 23 24  1  0  0  0  0
 23 25  4  0  0  0  0
  5 25  4  0  0  0  0
 25 26  4  0  0  0  0
  2 26  4  0  0  0  0
  1 27  1  0  0  0  0
  1 28  1  0  0  0  0
  1 29  1  0  0  0  0
  3 30  1  0  0  0  0
  4 31  1  0  0  0  0
  8 32  1  0  0  0  0
 11 33  1  0  0  0  0
 13 34  1  0  0  0  0
 15 35  1  0  0  0  0
 15 36  1  0  0  0  0
 15 37  1  0  0  0  0
 16 38  1  0  0  0  0
 17 39  1  0  0  0  0
 21 40  1  0  0  0  0
 24 41  1  0  0  0  0
 26 42  1  0  0  0  0
M  END
>  <InChIKey>
TXWSZJSDZKWQAU-UHFFFAOYSA-N

>  <UN GHS>
Non-irritant

>  <CASRN>
980-26-7

> <Outcome>
0

>  <Index>
766

>  <StandardizerResult>
Dearomatize (ID: Dearomatize)
Clear Stereo (ID: ClearStereo)
Wedge Clean (ID: WedgeClean)
Mesomerize (ID: Mesomerize)
Tautomerize (ID: Tautomerize)
Aromatize (ID: Aromatize)
Add Explicit Hydrogens (ID: AddExplicitH)
Neutralize (ID: Neutralize)
Clean 2D (ID: Clean2D)

> <knn Distance>
4.0

> <CpId>
766

$$$$
873
  Mrv1532301301811342D          

 42 41  0  0  0  0            999 V2000
   -4.2664   -1.7395    0.0000 C   0  0  0  0  0  0  0  0  0  0  0  0
   -3.8539   -1.0251    0.0000 O   0  0  0  0  0  0  0  0  0  0  0  0
   -3.0289   -1.0251    0.0000 C   0  0  0  0  0  0  0  0  0  0  0  0
   -2.6164   -0.3106    0.0000 C   0  0  0  0  0  0  0  0  0  0  0  0
   -1.7914   -0.3106    0.0000 O   0  0  0  0  0  0  0  0  0  0  0  0
   -1.3789    0.4039    0.0000 Si  0  0  0  0  0  0  0  0  0  0  0  0
   -0.9664    1.1183    0.0000 O   0  0  0  0  0  0  0  0  0  0  0  0
   -0.1414    1.1183    0.0000 C   0  0  0  0  0  0  0  0  0  0  0  0
    0.2711    1.8328    0.0000 C   0  0  0  0  0  0  0  0  0  0  0  0
    1.0961    1.8328    0.0000 O   0  0  0  0  0  0  0  0  0  0  0  0
    1.5086    2.5473    0.0000 C   0  0  0  0  0  0  0  0  0  0  0  0
   -0.6645   -0.0086    0.0000 O   0  0  0  0  0  0  0  0  0  0  0  0
    0.0500    0.4039    0.0000 C   0  0  0  0  0  0  0  0  0  0  0  0
    0.7645   -0.0086    0.0000 C   0  0  0  0  0  0  0  0  0  0  0  0
    1.4789    0.4039    0.0000 O   0  0  0  0  0  0  0  0  0  0  0  0
    2.1934   -0.0086    0.0000 C   0  0  0  0  0  0  0  0  0  0  0  0
   -2.0934    0.8164    0.0000 C   0  0  0  0  0  0  0  0  0  0  0  0
   -2.0934    1.6414    0.0000 C   0  0  0  0  0  0  0  0  0  0  0  0
   -4.9809   -1.3270    0.0000 H   0  0  0  0  0  0  0  0  0  0  0  0
   -4.6789   -2.4540    0.0000 H   0  0  0  0  0  0  0  0  0  0  0  0
   -3.5520   -2.1520    0.0000 H   0  0  0  0  0  0  0  0  0  0  0  0
   -2.9810   -1.8487    0.0000 H   0  0  0  0  0  0  0  0  0  0  0  0
   -2.3397   -1.4784    0.0000 H   0  0  0  0  0  0  0  0  0  0  0  0
   -2.6644    0.5130    0.0000 H   0  0  0  0  0  0  0  0  0  0  0  0
   -3.3057    0.1427    0.0000 H   0  0  0  0  0  0  0  0  0  0  0  0
    0.6765    1.0107    0.0000 H   0  0  0  0  0  0  0  0  0  0  0  0
   -0.5539    1.8328    0.0000 H   0  0  0  0  0  0  0  0  0  0  0  0
    0.5532    2.6081    0.0000 H   0  0  0  0  0  0  0  0  0  0  0  0
   -0.0111    2.6081    0.0000 H   0  0  0  0  0  0  0  0  0  0  0  0
    2.0826    1.9547    0.0000 H   0  0  0  0  0  0  0  0  0  0  0  0
    2.2358    2.9369    0.0000 H   0  0  0  0  0  0  0  0  0  0  0  0
    1.3332    3.3534    0.0000 H   0  0  0  0  0  0  0  0  0  0  0  0
   -0.7122    0.7196    0.0000 H   0  0  0  0  0  0  0  0  0  0  0  0
    0.0500   -0.4211    0.0000 H   0  0  0  0  0  0  0  0  0  0  0  0
    0.9077   -0.8211    0.0000 H   0  0  0  0  0  0  0  0  0  0  0  0
    1.3965   -0.5389    0.0000 H   0  0  0  0  0  0  0  0  0  0  0  0
    2.4447   -0.7944    0.0000 H   0  0  0  0  0  0  0  0  0  0  0  0
    3.0180    0.0176    0.0000 H   0  0  0  0  0  0  0  0  0  0  0  0
    2.3943    0.7915    0.0000 H   0  0  0  0  0  0  0  0  0  0  0  0
   -2.1079   -0.0085    0.0000 H   0  0  0  0  0  0  0  0  0  0  0  0
   -1.3789    2.0539    0.0000 H   0  0  0  0  0  0  0  0  0  0  0  0
   -2.8079    2.0539    0.0000 H   0  0  0  0  0  0  0  0  0  0  0  0
  1  2  1  0  0  0  0
  2  3  1  0  0  0  0
  3  4  1  0  0  0  0
  4  5  1  0  0  0  0
  5  6  1  0  0  0  0
  6  7  1  0  0  0  0
  7  8  1  0  0  0  0
  8  9  1  0  0  0  0
  9 10  1  0  0  0  0
 10 11  1  0  0  0  0
  6 12  1  0  0  0  0
 12 13  1  0  0  0  0
 13 14  1  0  0  0  0
 14 15  1  0  0  0  0
 15 16  1  0  0  0  0
  6 17  1  0  0  0  0
 17 18  2  0  0  0  0
  1 19  1  0  0  0  0
  1 20  1  0  0  0  0
  1 21  1  0  0  0  0
  3 22  1  0  0  0  0
  3 23  1  0  0  0  0
  4 24  1  0  0  0  0
  4 25  1  0  0  0  0
  8 26  1  0  0  0  0
  8 27  1  0  0  0  0
  9 28  1  0  0  0  0
  9 29  1  0  0  0  0
 11 30  1  0  0  0  0
 11 31  1  0  0  0  0
 11 32  1  0  0  0  0
 13 33  1  0  0  0  0
 13 34  1  0  0  0  0
 14 35  1  0  0  0  0
 14 36  1  0  0  0  0
 16 37  1  0  0  0  0
 16 38  1  0  0  0  0
 16 39  1  0  0  0  0
 17 40  1  4  0  0  0
 18 41  1  0  0  0  0
 18 42  1  0  0  0  0
M  END
>  <InChIKey>
WOXXJEVNDJOOLV-UHFFFAOYSA-N

>  <UN GHS>
Non-irritant

>  <CASRN>
1067-53-4

> <Outcome>
0

>  <Index>
873

>  <StandardizerResult>
Clear Stereo (ID: ClearStereo)
Wedge Clean (ID: WedgeClean)
Mesomerize (ID: Mesomerize)
Tautomerize (ID: Tautomerize)
Add Explicit Hydrogens (ID: AddExplicitH)
Neutralize (ID: Neutralize)
Clean 2D (ID: Clean2D)

> <knn Distance>
4.0

> <CpId>
873

$$$$
919
  Mrv1532301301811342D          

 24 24  0  0  0  0            999 V2000
   -0.7145    3.7125    0.0000 C   0  0  0  0  0  0  0  0  0  0  0  0
   -0.0000    3.3000    0.0000 N   0  0  0  0  0  0  0  0  0  0  0  0
    0.7145    3.7125    0.0000 C   0  0  0  0  0  0  0  0  0  0  0  0
   -0.0000    2.4750    0.0000 C   0  0  0  0  0  0  0  0  0  0  0  0
   -0.7145    2.0625    0.0000 O   0  0  0  0  0  0  0  0  0  0  0  0
    0.7145    2.0625    0.0000 N   0  0  0  0  0  0  0  0  0  0  0  0
    0.7145    1.2375    0.0000 C   0  0  0  0  0  0  0  0  0  0  0  0
    1.4289    0.8250    0.0000 C   0  0  0  0  0  0  0  0  0  0  0  0
    1.4289   -0.0000    0.0000 C   0  0  0  0  0  0  0  0  0  0  0  0
    0.7145   -0.4125    0.0000 C   0  0  0  0  0  0  0  0  0  0  0  0
    0.7145   -1.2375    0.0000 Cl  0  0  0  0  0  0  0  0  0  0  0  0
   -0.0000   -0.0000    0.0000 C   0  0  0  0  0  0  0  0  0  0  0  0
   -0.7145   -0.4125    0.0000 Cl  0  0  0  0  0  0  0  0  0  0  0  0
   -0.0000    0.8250    0.0000 C   0  0  0  0  0  0  0  0  0  0  0  0
   -0.3020    4.4270    0.0000 H   0  0  0  0  0  0  0  0  0  0  0  0
   -1.4289    4.1250    0.0000 H   0  0  0  0  0  0  0  0  0  0  0  0
   -1.1270    2.9980    0.0000 H   0  0  0  0  0  0  0  0  0  0  0  0
    1.1270    2.9980    0.0000 H   0  0  0  0  0  0  0  0  0  0  0  0
    1.4289    4.1250    0.0000 H   0  0  0  0  0  0  0  0  0  0  0  0
    0.3020    4.4270    0.0000 H   0  0  0  0  0  0  0  0  0  0  0  0
    1.4289    2.4750    0.0000 H   0  0  0  0  0  0  0  0  0  0  0  0
    2.1434    1.2375    0.0000 H   0  0  0  0  0  0  0  0  0  0  0  0
    2.1434   -0.4125    0.0000 H   0  0  0  0  0  0  0  0  0  0  0  0
   -0.7145    1.2375    0.0000 H   0  0  0  0  0  0  0  0  0  0  0  0
  1  2  1  0  0  0  0
  2  3  1  0  0  0  0
  2  4  1  0  0  0  0
  4  5  2  0  0  0  0
  4  6  1  0  0  0  0
  6  7  1  0  0  0  0
  7  8  4  0  0  0  0
  8  9  4  0  0  0  0
  9 10  4  0  0  0  0
 10 11  1  0  0  0  0
 10 12  4  0  0  0  0
 12 13  1  0  0  0  0
 12 14  4  0  0  0  0
  7 14  4  0  0  0  0
  1 15  1  0  0  0  0
  1 16  1  0  0  0  0
  1 17  1  0  0  0  0
  3 18  1  0  0  0  0
  3 19  1  0  0  0  0
  3 20  1  0  0  0  0
  6 21  1  0  0  0  0
  8 22  1  0  0  0  0
  9 23  1  0  0  0  0
 14 24  1  0  0  0  0
M  END
>  <InChIKey>
XMTQQYYKAHVGBJ-UHFFFAOYSA-N

>  <UN GHS>
Non-irritant

>  <CASRN>
330-54-1

> <Outcome>
0

>  <Index>
919

>  <StandardizerResult>
Dearomatize (ID: Dearomatize)
Clear Stereo (ID: ClearStereo)
Wedge Clean (ID: WedgeClean)
Mesomerize (ID: Mesomerize)
Tautomerize (ID: Tautomerize)
Aromatize (ID: Aromatize)
Add Explicit Hydrogens (ID: AddExplicitH)
Neutralize (ID: Neutralize)
Clean 2D (ID: Clean2D)

> <knn Distance>
4.0

> <CpId>
919

$$$$
951
  Mrv1532301301811342D          

 20 20  0  0  0  0            999 V2000
    0.7165    2.0752    0.0000 C   0  0  0  0  0  0  0  0  0  0  0  0
    0.7165    1.2502    0.0000 C   0  0  0  0  0  0  0  0  0  0  0  0
    1.4310    0.8377    0.0000 C   0  0  0  0  0  0  0  0  0  0  0  0
    1.4310    0.0127    0.0000 C   0  0  0  0  0  0  0  0  0  0  0  0
    0.7165   -0.3998    0.0000 C   0  0  0  0  0  0  0  0  0  0  0  0
    0.0020    0.0127    0.0000 C   0  0  0  0  0  0  0  0  0  0  0  0
    0.0020    0.8377    0.0000 C   0  0  0  0  0  0  0  0  0  0  0  0
   -0.7124    1.2502    0.0000 S   0  0  0  0  0  0  0  0  0  0  0  0
   -1.4269    1.6627    0.0000 N   0  0  0  0  0  0  0  0  0  0  0  0
   -0.2999    1.9647    0.0000 O   0  0  0  0  0  0  0  0  0  0  0  0
   -1.1249    0.5358    0.0000 O   0  0  0  0  0  0  0  0  0  0  0  0
    1.5415    2.0752    0.0000 H   0  0  0  0  0  0  0  0  0  0  0  0
    0.7165    2.9002    0.0000 H   0  0  0  0  0  0  0  0  0  0  0  0
   -0.1085    2.0752    0.0000 H   0  0  0  0  0  0  0  0  0  0  0  0
    2.1454    1.2502    0.0000 H   0  0  0  0  0  0  0  0  0  0  0  0
    2.1454   -0.3998    0.0000 H   0  0  0  0  0  0  0  0  0  0  0  0
    0.7165   -1.2248    0.0000 H   0  0  0  0  0  0  0  0  0  0  0  0
   -0.7124   -0.3998    0.0000 H   0  0  0  0  0  0  0  0  0  0  0  0
   -1.4269    2.4877    0.0000 H   0  0  0  0  0  0  0  0  0  0  0  0
   -2.1414    1.2502    0.0000 H   0  0  0  0  0  0  0  0  0  0  0  0
  1  2  1  0  0  0  0
  2  3  4  0  0  0  0
  3  4  4  0  0  0  0
  4  5  4  0  0  0  0
  5  6  4  0  0  0  0
  6  7  4  0  0  0  0
  2  7  4  0  0  0  0
  7  8  1  0  0  0  0
  8  9  1  0  0  0  0
  8 10  2  0  0  0  0
  8 11  2  0  0  0  0
  1 12  1  0  0  0  0
  1 13  1  0  0  0  0
  1 14  1  0  0  0  0
  3 15  1  0  0  0  0
  4 16  1  0  0  0  0
  5 17  1  0  0  0  0
  6 18  1  0  0  0  0
  9 19  1  0  0  0  0
  9 20  1  0  0  0  0
M  END
>  <InChIKey>
YCMLQMDWSXFTIF-UHFFFAOYSA-N

>  <UN GHS>
Non-irritant

>  <CASRN>
88-19-7

> <Outcome>
0

>  <Index>
951

>  <StandardizerResult>
Dearomatize (ID: Dearomatize)
Clear Stereo (ID: ClearStereo)
Wedge Clean (ID: WedgeClean)
Mesomerize (ID: Mesomerize)
Tautomerize (ID: Tautomerize)
Aromatize (ID: Aromatize)
Add Explicit Hydrogens (ID: AddExplicitH)
Neutralize (ID: Neutralize)
Clean 2D (ID: Clean2D)

> <knn Distance>
4.0

> <CpId>
951

$$$$
972
  Mrv1532301301811342D          

 88 92  0  0  0  0            999 V2000
    1.8367   -2.1934    0.0000 C   0  0  0  0  0  0  0  0  0  0  0  0
    1.8367   -3.0184    0.0000 C   0  0  0  0  0  0  0  0  0  0  0  0
    2.5512   -3.4309    0.0000 C   0  0  0  0  0  0  0  0  0  0  0  0
    2.5512   -4.2559    0.0000 C   0  0  0  0  0  0  0  0  0  0  0  0
    1.8367   -4.6684    0.0000 C   0  0  0  0  0  0  0  0  0  0  0  0
    1.1222   -4.2559    0.0000 C   0  0  0  0  0  0  0  0  0  0  0  0
    0.4078   -4.6684    0.0000 C   0  0  0  0  0  0  0  0  0  0  0  0
    1.1222   -3.4309    0.0000 C   0  0  0  0  0  0  0  0  0  0  0  0
    0.4078   -3.0184    0.0000 O   0  0  0  0  0  0  0  0  0  0  0  0
    0.4078   -2.1934    0.0000 P   0  0  0  0  0  0  0  0  0  0  0  0
    1.2328   -2.1934    0.0000 O   0  0  0  0  0  0  0  0  0  0  0  0
    0.4078   -1.3684    0.0000 O   0  0  0  0  0  0  0  0  0  0  0  0
    1.1222   -0.9559    0.0000 C   0  0  0  0  0  0  0  0  0  0  0  0
    1.1222   -0.1309    0.0000 C   0  0  0  0  0  0  0  0  0  0  0  0
    1.8367    0.2816    0.0000 C   0  0  0  0  0  0  0  0  0  0  0  0
    2.5512   -0.1309    0.0000 C   0  0  0  0  0  0  0  0  0  0  0  0
    2.5512   -0.9559    0.0000 C   0  0  0  0  0  0  0  0  0  0  0  0
    3.2656   -1.3684    0.0000 O   0  0  0  0  0  0  0  0  0  0  0  0
    3.9801   -0.9559    0.0000 P   0  0  0  0  0  0  0  0  0  0  0  0
    4.3926   -1.6704    0.0000 O   0  0  0  0  0  0  0  0  0  0  0  0
    4.6946   -0.5434    0.0000 O   0  0  0  0  0  0  0  0  0  0  0  0
    5.4091   -0.9559    0.0000 C   0  0  0  0  0  0  0  0  0  0  0  0
    6.1235   -0.5434    0.0000 C   0  0  0  0  0  0  0  0  0  0  0  0
    6.1235    0.2816    0.0000 C   0  0  0  0  0  0  0  0  0  0  0  0
    6.8380   -0.9559    0.0000 C   0  0  0  0  0  0  0  0  0  0  0  0
    6.8380   -1.7809    0.0000 C   0  0  0  0  0  0  0  0  0  0  0  0
    6.1235   -2.1934    0.0000 C   0  0  0  0  0  0  0  0  0  0  0  0
    5.4091   -1.7809    0.0000 C   0  0  0  0  0  0  0  0  0  0  0  0
    4.6946   -2.1934    0.0000 C   0  0  0  0  0  0  0  0  0  0  0  0
    3.5676   -0.2414    0.0000 O   0  0  0  0  0  0  0  0  0  0  0  0
    3.9801    0.4731    0.0000 C   0  0  0  0  0  0  0  0  0  0  0  0
    3.5676    1.1875    0.0000 C   0  0  0  0  0  0  0  0  0  0  0  0
    2.7426    1.1875    0.0000 C   0  0  0  0  0  0  0  0  0  0  0  0
    3.9801    1.9020    0.0000 C   0  0  0  0  0  0  0  0  0  0  0  0
    4.8051    1.9020    0.0000 C   0  0  0  0  0  0  0  0  0  0  0  0
    5.2176    1.1875    0.0000 C   0  0  0  0  0  0  0  0  0  0  0  0
    4.8051    0.4731    0.0000 C   0  0  0  0  0  0  0  0  0  0  0  0
    5.2176   -0.2414    0.0000 C   0  0  0  0  0  0  0  0  0  0  0  0
    1.8367   -1.3684    0.0000 C   0  0  0  0  0  0  0  0  0  0  0  0
   -0.4172   -2.1934    0.0000 O   0  0  0  0  0  0  0  0  0  0  0  0
   -0.8297   -1.4789    0.0000 C   0  0  0  0  0  0  0  0  0  0  0  0
   -1.6547   -1.4789    0.0000 C   0  0  0  0  0  0  0  0  0  0  0  0
   -2.0672   -2.1934    0.0000 C   0  0  0  0  0  0  0  0  0  0  0  0
   -2.0672   -0.7644    0.0000 C   0  0  0  0  0  0  0  0  0  0  0  0
   -1.6547   -0.0500    0.0000 C   0  0  0  0  0  0  0  0  0  0  0  0
   -0.8297   -0.0500    0.0000 C   0  0  0  0  0  0  0  0  0  0  0  0
   -0.4172   -0.7644    0.0000 C   0  0  0  0  0  0  0  0  0  0  0  0
    0.4078   -0.7644    0.0000 C   0  0  0  0  0  0  0  0  0  0  0  0
    2.6120   -2.4756    0.0000 H   0  0  0  0  0  0  0  0  0  0  0  0
    2.6120   -1.9112    0.0000 H   0  0  0  0  0  0  0  0  0  0  0  0
    1.2533   -1.6100    0.0000 H   0  0  0  0  0  0  0  0  0  0  0  0
    3.3758   -3.4571    0.0000 H   0  0  0  0  0  0  0  0  0  0  0  0
    3.2656   -4.6684    0.0000 H   0  0  0  0  0  0  0  0  0  0  0  0
    1.8367   -5.4934    0.0000 H   0  0  0  0  0  0  0  0  0  0  0  0
   -0.0047   -3.9539    0.0000 H   0  0  0  0  0  0  0  0  0  0  0  0
   -0.3067   -5.0809    0.0000 H   0  0  0  0  0  0  0  0  0  0  0  0
    0.8203   -5.3829    0.0000 H   0  0  0  0  0  0  0  0  0  0  0  0
    0.6398    0.5384    0.0000 H   0  0  0  0  0  0  0  0  0  0  0  0
    1.8367    1.1066    0.0000 H   0  0  0  0  0  0  0  0  0  0  0  0
    3.2656    0.2816    0.0000 H   0  0  0  0  0  0  0  0  0  0  0  0
    6.9485    0.2816    0.0000 H   0  0  0  0  0  0  0  0  0  0  0  0
    6.1235    1.1066    0.0000 H   0  0  0  0  0  0  0  0  0  0  0  0
    5.2985    0.2816    0.0000 H   0  0  0  0  0  0  0  0  0  0  0  0
    7.5525   -0.5434    0.0000 H   0  0  0  0  0  0  0  0  0  0  0  0
    7.5525   -2.1934    0.0000 H   0  0  0  0  0  0  0  0  0  0  0  0
    6.1235   -3.0184    0.0000 H   0  0  0  0  0  0  0  0  0  0  0  0
    3.8766   -2.3011    0.0000 H   0  0  0  0  0  0  0  0  0  0  0  0
    4.4811   -2.9903    0.0000 H   0  0  0  0  0  0  0  0  0  0  0  0
    5.3491   -2.6956    0.0000 H   0  0  0  0  0  0  0  0  0  0  0  0
    2.9978    1.9721    0.0000 H   0  0  0  0  0  0  0  0  0  0  0  0
    2.4187    1.9463    0.0000 H   0  0  0  0  0  0  0  0  0  0  0  0
    2.7794    0.3633    0.0000 H   0  0  0  0  0  0  0  0  0  0  0  0
    3.5676    2.6165    0.0000 H   0  0  0  0  0  0  0  0  0  0  0  0
    5.2176    2.6165    0.0000 H   0  0  0  0  0  0  0  0  0  0  0  0
    5.6615    1.8829    0.0000 H   0  0  0  0  0  0  0  0  0  0  0  0
    6.0153   -0.0310    0.0000 H   0  0  0  0  0  0  0  0  0  0  0  0
    5.7697    0.3716    0.0000 H   0  0  0  0  0  0  0  0  0  0  0  0
    4.4207   -0.0279    0.0000 H   0  0  0  0  0  0  0  0  0  0  0  0
    1.8367   -0.5434    0.0000 H   0  0  0  0  0  0  0  0  0  0  0  0
   -2.7817   -1.7809    0.0000 H   0  0  0  0  0  0  0  0  0  0  0  0
   -2.4797   -2.9079    0.0000 H   0  0  0  0  0  0  0  0  0  0  0  0
   -1.3528   -2.6059    0.0000 H   0  0  0  0  0  0  0  0  0  0  0  0
   -2.8922   -0.7644    0.0000 H   0  0  0  0  0  0  0  0  0  0  0  0
   -2.0672    0.6645    0.0000 H   0  0  0  0  0  0  0  0  0  0  0  0
   -0.4172    0.6645    0.0000 H   0  0  0  0  0  0  0  0  0  0  0  0
    0.4407    0.0599    0.0000 H   0  0  0  0  0  0  0  0  0  0  0  0
   -0.1638   -0.1695    0.0000 H   0  0  0  0  0  0  0  0  0  0  0  0
   -0.1756   -1.3478    0.0000 H   0  0  0  0  0  0  0  0  0  0  0  0
  1  2  1  0  0  0  0
  2  3  4  0  0  0  0
  3  4  4  0  0  0  0
  4  5  4  0  0  0  0
  5  6  4  0  0  0  0
  6  7  1  0  0  0  0
  6  8  4  0  0  0  0
  2  8  4  0  0  0  0
  8  9  1  0  0  0  0
  9 10  1  0  0  0  0
 10 11  2  0  0  0  0
 10 12  1  0  0  0  0
 12 13  1  0  0  0  0
 13 14  4  0  0  0  0
 14 15  4  0  0  0  0
 15 16  4  0  0  0  0
 16 17  4  0  0  0  0
 17 18  1  0  0  0  0
 18 19  1  0  0  0  0
 19 20  2  0  0  0  0
 19 21  1  0  0  0  0
 21 22  1  0  0  0  0
 22 23  4  0  0  0  0
 23 24  1  0  0  0  0
 23 25  4  0  0  0  0
 25 26  4  0  0  0  0
 26 27  4  0  0  0  0
 27 28  4  0  0  0  0
 22 28  4  0  0  0  0
 28 29  1  0  0  0  0
 19 30  1  0  0  0  0
 30 31  1  0  0  0  0
 31 32  4  0  0  0  0
 32 33  1  0  0  0  0
 32 34  4  0  0  0  0
 34 35  4  0  0  0  0
 35 36  4  0  0  0  0
 36 37  4  0  0  0  0
 31 37  4  0  0  0  0
 37 38  1  0  0  0  0
 17 39  4  0  0  0  0
 13 39  4  0  0  0  0
 10 40  1  0  0  0  0
 40 41  1  0  0  0  0
 41 42  4  0  0  0  0
 42 43  1  0  0  0  0
 42 44  4  0  0  0  0
 44 45  4  0  0  0  0
 45 46  4  0  0  0  0
 46 47  4  0  0  0  0
 41 47  4  0  0  0  0
 47 48  1  0  0  0  0
  1 49  1  0  0  0  0
  1 50  1  0  0  0  0
  1 51  1  0  0  0  0
  3 52  1  0  0  0  0
  4 53  1  0  0  0  0
  5 54  1  0  0  0  0
  7 55  1  0  0  0  0
  7 56  1  0  0  0  0
  7 57  1  0  0  0  0
 14 58  1  0  0  0  0
 15 59  1  0  0  0  0
 16 60  1  0  0  0  0
 24 61  1  0  0  0  0
 24 62  1  0  0  0  0
 24 63  1  0  0  0  0
 25 64  1  0  0  0  0
 26 65  1  0  0  0  0
 27 66  1  0  0  0  0
 29 67  1  0  0  0  0
 29 68  1  0  0  0  0
 29 69  1  0  0  0  0
 33 70  1  0  0  0  0
 33 71  1  0  0  0  0
 33 72  1  0  0  0  0
 34 73  1  0  0  0  0
 35 74  1  0  0  0  0
 36 75  1  0  0  0  0
 38 76  1  0  0  0  0
 38 77  1  0  0  0  0
 38 78  1  0  0  0  0
 39 79  1  0  0  0  0
 43 80  1  0  0  0  0
 43 81  1  0  0  0  0
 43 82  1  0  0  0  0
 44 83  1  0  0  0  0
 45 84  1  0  0  0  0
 46 85  1  0  0  0  0
 48 86  1  0  0  0  0
 48 87  1  0  0  0  0
 48 88  1  0  0  0  0
M  END
>  <InChIKey>
YOLFSLXHLNWPKG-UHFFFAOYSA-N

>  <UN GHS>
Non-irritant

>  <CASRN>
139189-30-3

> <Outcome>
0

>  <Index>
972

>  <StandardizerResult>
Dearomatize (ID: Dearomatize)
Clear Stereo (ID: ClearStereo)
Wedge Clean (ID: WedgeClean)
Mesomerize (ID: Mesomerize)
Tautomerize (ID: Tautomerize)
Aromatize (ID: Aromatize)
Add Explicit Hydrogens (ID: AddExplicitH)
Neutralize (ID: Neutralize)
Clean 2D (ID: Clean2D)

> <knn Distance>
4.0

> <CpId>
972

$$$$
982
  Mrv1532301301811342D          

 38 41  0  0  0  0            999 V2000
    4.2882    1.6035    0.0000 O   0  0  0  0  0  0  0  0  0  0  0  0
    3.5738    2.0160    0.0000 C   0  0  0  0  0  0  0  0  0  0  0  0
    3.5738    2.8410    0.0000 O   0  0  0  0  0  0  0  0  0  0  0  0
    4.2882    3.2535    0.0000 C   0  0  0  0  0  0  0  0  0  0  0  0
    4.2882    4.0785    0.0000 C   0  0  0  0  0  0  0  0  0  0  0  0
    3.5738    4.4910    0.0000 C   0  0  0  0  0  0  0  0  0  0  0  0
    3.5738    5.3160    0.0000 C   0  0  0  0  0  0  0  0  0  0  0  0
    4.2882    5.7285    0.0000 C   0  0  0  0  0  0  0  0  0  0  0  0
    5.0027    6.1410    0.0000 O   0  0  0  0  0  0  0  0  0  0  0  0
    5.0027    5.3160    0.0000 C   0  0  0  0  0  0  0  0  0  0  0  0
    5.0027    4.4910    0.0000 C   0  0  0  0  0  0  0  0  0  0  0  0
    2.8593    1.6035    0.0000 C   0  0  0  0  0  0  0  0  0  0  0  0
    2.8593    0.7785    0.0000 C   0  0  0  0  0  0  0  0  0  0  0  0
    2.1448    0.3660    0.0000 C   0  0  0  0  0  0  0  0  0  0  0  0
    1.4304    0.7785    0.0000 C   0  0  0  0  0  0  0  0  0  0  0  0
    0.7159    1.1910    0.0000 O   0  0  0  0  0  0  0  0  0  0  0  0
    1.4304    1.6035    0.0000 C   0  0  0  0  0  0  0  0  0  0  0  0
    2.1448    2.0160    0.0000 C   0  0  0  0  0  0  0  0  0  0  0  0
    4.7416    2.5642    0.0000 H   0  0  0  0  0  0  0  0  0  0  0  0
    5.1119    3.2055    0.0000 H   0  0  0  0  0  0  0  0  0  0  0  0
    5.0027    3.6660    0.0000 H   0  0  0  0  0  0  0  0  0  0  0  0
    2.7502    4.4430    0.0000 H   0  0  0  0  0  0  0  0  0  0  0  0
    3.1204    3.8017    0.0000 H   0  0  0  0  0  0  0  0  0  0  0  0
    3.1204    6.0053    0.0000 H   0  0  0  0  0  0  0  0  0  0  0  0
    2.7502    5.3640    0.0000 H   0  0  0  0  0  0  0  0  0  0  0  0
    3.8757    6.4430    0.0000 H   0  0  0  0  0  0  0  0  0  0  0  0
    5.8277    5.3160    0.0000 H   0  0  0  0  0  0  0  0  0  0  0  0
    5.7780    4.2088    0.0000 H   0  0  0  0  0  0  0  0  0  0  0  0
    5.7780    4.7732    0.0000 H   0  0  0  0  0  0  0  0  0  0  0  0
    2.8593    2.4285    0.0000 H   0  0  0  0  0  0  0  0  0  0  0  0
    3.3127    0.0892    0.0000 H   0  0  0  0  0  0  0  0  0  0  0  0
    3.6829    0.7305    0.0000 H   0  0  0  0  0  0  0  0  0  0  0  0
    1.7746   -0.3712    0.0000 H   0  0  0  0  0  0  0  0  0  0  0  0
    2.5151   -0.3712    0.0000 H   0  0  0  0  0  0  0  0  0  0  0  0
    1.0179    0.0640    0.0000 H   0  0  0  0  0  0  0  0  0  0  0  0
    1.0179    2.3180    0.0000 H   0  0  0  0  0  0  0  0  0  0  0  0
    2.0016    2.8285    0.0000 H   0  0  0  0  0  0  0  0  0  0  0  0
    1.5128    2.5463    0.0000 H   0  0  0  0  0  0  0  0  0  0  0  0
  1  2  2  0  0  0  0
  2  3  1  0  0  0  0
  3  4  1  0  0  0  0
  4  5  1  0  0  0  0
  5  6  1  0  0  0  0
  6  7  1  0  0  0  0
  7  8  1  0  0  0  0
  8  9  1  0  0  0  0
  9 10  1  0  0  0  0
  8 10  1  0  0  0  0
 10 11  1  0  0  0  0
  5 11  1  0  0  0  0
  2 12  1  0  0  0  0
 12 13  1  0  0  0  0
 13 14  1  0  0  0  0
 14 15  1  0  0  0  0
 15 16  1  0  0  0  0
 16 17  1  0  0  0  0
 15 17  1  0  0  0  0
 17 18  1  0  0  0  0
 12 18  1  0  0  0  0
  4 19  1  0  0  0  0
  4 20  1  0  0  0  0
  5 21  1  0  0  0  0
  6 22  1  0  0  0  0
  6 23  1  0  0  0  0
  7 24  1  0  0  0  0
  7 25  1  0  0  0  0
  8 26  1  0  0  0  0
 10 27  1  0  0  0  0
 11 28  1  0  0  0  0
 11 29  1  0  0  0  0
 12 30  1  0  0  0  0
 13 31  1  0  0  0  0
 13 32  1  0  0  0  0
 14 33  1  0  0  0  0
 14 34  1  0  0  0  0
 15 35  1  0  0  0  0
 17 36  1  0  0  0  0
 18 37  1  0  0  0  0
 18 38  1  0  0  0  0
M  END
>  <InChIKey>
YXALYBMHAYZKAP-UHFFFAOYSA-N

>  <UN GHS>
Non-irritant

>  <CASRN>
2386-87-0

> <Outcome>
0

>  <Index>
982

>  <StandardizerResult>
Clear Stereo (ID: ClearStereo)
Wedge Clean (ID: WedgeClean)
Mesomerize (ID: Mesomerize)
Tautomerize (ID: Tautomerize)
Add Explicit Hydrogens (ID: AddExplicitH)
Neutralize (ID: Neutralize)
Clean 2D (ID: Clean2D)

> <knn Distance>
4.0

> <CpId>
982

$$$$
989
  Mrv1532301301811342D          

 86 87  0  0  0  0            999 V2000
    2.7606   -5.9438    0.0000 C   0  0  0  0  0  0  0  0  0  0  0  0
    3.5856   -5.9438    0.0000 C   0  0  0  0  0  0  0  0  0  0  0  0
    3.9981   -5.2293    0.0000 C   0  0  0  0  0  0  0  0  0  0  0  0
    3.9981   -6.6582    0.0000 C   0  0  0  0  0  0  0  0  0  0  0  0
    4.8231   -6.6582    0.0000 C   0  0  0  0  0  0  0  0  0  0  0  0
    5.2356   -7.3727    0.0000 C   0  0  0  0  0  0  0  0  0  0  0  0
    6.0606   -7.3727    0.0000 C   0  0  0  0  0  0  0  0  0  0  0  0
    6.4731   -6.6582    0.0000 C   0  0  0  0  0  0  0  0  0  0  0  0
    6.4731   -8.0872    0.0000 C   0  0  0  0  0  0  0  0  0  0  0  0
    7.2981   -8.0872    0.0000 C   0  0  0  0  0  0  0  0  0  0  0  0
    7.7106   -8.8017    0.0000 C   0  0  0  0  0  0  0  0  0  0  0  0
    8.5356   -8.8017    0.0000 C   0  0  0  0  0  0  0  0  0  0  0  0
    8.9481   -9.5161    0.0000 C   0  0  0  0  0  0  0  0  0  0  0  0
    8.9481   -8.0872    0.0000 C   0  0  0  0  0  0  0  0  0  0  0  0
    8.5356   -7.3727    0.0000 C   0  0  0  0  0  0  0  0  0  0  0  0
    8.9481   -6.6582    0.0000 C   0  0  0  0  0  0  0  0  0  0  0  0
    9.7731   -6.6582    0.0000 C   0  0  0  0  0  0  0  0  0  0  0  0
    9.6298   -7.4707    0.0000 C   0  0  0  0  0  0  0  0  0  0  0  0
    9.6298   -5.8458    0.0000 C   0  0  0  0  0  0  0  0  0  0  0  0
   10.2618   -5.3155    0.0000 C   0  0  0  0  0  0  0  0  0  0  0  0
   11.0370   -5.5976    0.0000 C   0  0  0  0  0  0  0  0  0  0  0  0
   11.6690   -5.0673    0.0000 C   0  0  0  0  0  0  0  0  0  0  0  0
   11.5258   -4.2549    0.0000 C   0  0  0  0  0  0  0  0  0  0  0  0
   12.4443   -5.3495    0.0000 C   0  0  0  0  0  0  0  0  0  0  0  0
   13.0762   -4.8192    0.0000 O   0  0  0  0  0  0  0  0  0  0  0  0
   13.8515   -5.1014    0.0000 C   0  0  0  0  0  0  0  0  0  0  0  0
   14.4835   -4.5711    0.0000 C   0  0  0  0  0  0  0  0  0  0  0  0
   13.9948   -5.9138    0.0000 O   0  0  0  0  0  0  0  0  0  0  0  0
   12.5875   -6.1620    0.0000 C   0  0  0  0  0  0  0  0  0  0  0  0
   13.3628   -6.4441    0.0000 C   0  0  0  0  0  0  0  0  0  0  0  0
   11.9555   -6.6923    0.0000 C   0  0  0  0  0  0  0  0  0  0  0  0
   12.0988   -7.5047    0.0000 C   0  0  0  0  0  0  0  0  0  0  0  0
   11.1803   -6.4101    0.0000 C   0  0  0  0  0  0  0  0  0  0  0  0
   10.5483   -6.9404    0.0000 O   0  0  0  0  0  0  0  0  0  0  0  0
    2.7606   -5.1188    0.0000 H   0  0  0  0  0  0  0  0  0  0  0  0
    1.9356   -5.9438    0.0000 H   0  0  0  0  0  0  0  0  0  0  0  0
    2.7606   -6.7688    0.0000 H   0  0  0  0  0  0  0  0  0  0  0  0
    3.1731   -5.2293    0.0000 H   0  0  0  0  0  0  0  0  0  0  0  0
    4.5814   -5.8127    0.0000 H   0  0  0  0  0  0  0  0  0  0  0  0
    4.7125   -4.8168    0.0000 H   0  0  0  0  0  0  0  0  0  0  0  0
    3.7845   -4.4324    0.0000 H   0  0  0  0  0  0  0  0  0  0  0  0
    3.3088   -7.1116    0.0000 H   0  0  0  0  0  0  0  0  0  0  0  0
    3.9501   -7.4818    0.0000 H   0  0  0  0  0  0  0  0  0  0  0  0
    5.5826   -6.3362    0.0000 H   0  0  0  0  0  0  0  0  0  0  0  0
    4.4106   -7.3727    0.0000 H   0  0  0  0  0  0  0  0  0  0  0  0
    4.9534   -8.1480    0.0000 H   0  0  0  0  0  0  0  0  0  0  0  0
    5.5177   -8.1480    0.0000 H   0  0  0  0  0  0  0  0  0  0  0  0
    5.6481   -6.6582    0.0000 H   0  0  0  0  0  0  0  0  0  0  0  0
    7.0037   -7.2900    0.0000 H   0  0  0  0  0  0  0  0  0  0  0  0
    7.2480   -6.3753    0.0000 H   0  0  0  0  0  0  0  0  0  0  0  0
    6.4718   -5.8332    0.0000 H   0  0  0  0  0  0  0  0  0  0  0  0
    6.0912   -8.8185    0.0000 H   0  0  0  0  0  0  0  0  0  0  0  0
    6.9006   -8.7928    0.0000 H   0  0  0  0  0  0  0  0  0  0  0  0
    8.1217   -8.1339    0.0000 H   0  0  0  0  0  0  0  0  0  0  0  0
    7.7887   -7.4239    0.0000 H   0  0  0  0  0  0  0  0  0  0  0  0
    7.4232   -9.5750    0.0000 H   0  0  0  0  0  0  0  0  0  0  0  0
    7.9894   -9.5781    0.0000 H   0  0  0  0  0  0  0  0  0  0  0  0
    9.3606   -8.8017    0.0000 H   0  0  0  0  0  0  0  0  0  0  0  0
    8.5706  -10.2497    0.0000 H   0  0  0  0  0  0  0  0  0  0  0  0
    9.3834  -10.2169    0.0000 H   0  0  0  0  0  0  0  0  0  0  0  0
    9.7729   -9.5028    0.0000 H   0  0  0  0  0  0  0  0  0  0  0  0
    9.6898   -8.4483    0.0000 H   0  0  0  0  0  0  0  0  0  0  0  0
    9.7649   -7.9712    0.0000 H   0  0  0  0  0  0  0  0  0  0  0  0
    8.0989   -6.6728    0.0000 H   0  0  0  0  0  0  0  0  0  0  0  0
    9.3606   -7.3727    0.0000 H   0  0  0  0  0  0  0  0  0  0  0  0
    9.2251   -5.8811    0.0000 H   0  0  0  0  0  0  0  0  0  0  0  0
    8.6578   -5.8860    0.0000 H   0  0  0  0  0  0  0  0  0  0  0  0
   10.2958   -7.9577    0.0000 H   0  0  0  0  0  0  0  0  0  0  0  0
   10.4540   -7.4340    0.0000 H   0  0  0  0  0  0  0  0  0  0  0  0
   10.2498   -6.9265    0.0000 H   0  0  0  0  0  0  0  0  0  0  0  0
    9.3141   -5.0836    0.0000 H   0  0  0  0  0  0  0  0  0  0  0  0
   10.4050   -6.1279    0.0000 H   0  0  0  0  0  0  0  0  0  0  0  0
   10.4984   -4.5251    0.0000 H   0  0  0  0  0  0  0  0  0  0  0  0
    9.7691   -4.6537    0.0000 H   0  0  0  0  0  0  0  0  0  0  0  0
   12.3382   -4.1116    0.0000 H   0  0  0  0  0  0  0  0  0  0  0  0
   11.3825   -3.4424    0.0000 H   0  0  0  0  0  0  0  0  0  0  0  0
   10.7133   -4.3981    0.0000 H   0  0  0  0  0  0  0  0  0  0  0  0
   15.0138   -5.2031    0.0000 H   0  0  0  0  0  0  0  0  0  0  0  0
   15.1155   -4.0408    0.0000 H   0  0  0  0  0  0  0  0  0  0  0  0
   13.9532   -3.9391    0.0000 H   0  0  0  0  0  0  0  0  0  0  0  0
   12.7308   -6.9744    0.0000 H   0  0  0  0  0  0  0  0  0  0  0  0
   13.5060   -7.2566    0.0000 H   0  0  0  0  0  0  0  0  0  0  0  0
   14.1380   -6.7263    0.0000 H   0  0  0  0  0  0  0  0  0  0  0  0
   11.2769   -7.4328    0.0000 H   0  0  0  0  0  0  0  0  0  0  0  0
   11.8166   -8.2800    0.0000 H   0  0  0  0  0  0  0  0  0  0  0  0
   12.7746   -7.9779    0.0000 H   0  0  0  0  0  0  0  0  0  0  0  0
  1  2  1  0  0  0  0
  2  3  1  0  0  0  0
  2  4  1  0  0  0  0
  4  5  1  0  0  0  0
  5  6  1  0  0  0  0
  6  7  1  0  0  0  0
  7  8  1  0  0  0  0
  7  9  1  0  0  0  0
  9 10  1  0  0  0  0
 10 11  1  0  0  0  0
 11 12  1  0  0  0  0
 12 13  1  0  0  0  0
 12 14  1  0  0  0  0
 14 15  1  0  0  0  0
 15 16  1  0  0  0  0
 16 17  1  0  0  0  0
 17 18  1  0  0  0  0
 17 19  1  0  0  0  0
 19 20  1  0  0  0  0
 20 21  1  0  0  0  0
 21 22  4  0  0  0  0
 22 23  1  0  0  0  0
 22 24  4  0  0  0  0
 24 25  1  0  0  0  0
 25 26  1  0  0  0  0
 26 27  1  0  0  0  0
 26 28  2  0  0  0  0
 24 29  4  0  0  0  0
 29 30  1  0  0  0  0
 29 31  4  0  0  0  0
 31 32  1  0  0  0  0
 31 33  4  0  0  0  0
 21 33  4  0  0  0  0
 33 34  1  0  0  0  0
 17 34  1  0  0  0  0
  1 35  1  0  0  0  0
  1 36  1  0  0  0  0
  1 37  1  0  0  0  0
  2 38  1  0  0  0  0
  3 39  1  0  0  0  0
  3 40  1  0  0  0  0
  3 41  1  0  0  0  0
  4 42  1  0  0  0  0
  4 43  1  0  0  0  0
  5 44  1  0  0  0  0
  5 45  1  0  0  0  0
  6 46  1  0  0  0  0
  6 47  1  0  0  0  0
  7 48  1  0  0  0  0
  8 49  1  0  0  0  0
  8 50  1  0  0  0  0
  8 51  1  0  0  0  0
  9 52  1  0  0  0  0
  9 53  1  0  0  0  0
 10 54  1  0  0  0  0
 10 55  1  0  0  0  0
 11 56  1  0  0  0  0
 11 57  1  0  0  0  0
 12 58  1  0  0  0  0
 13 59  1  0  0  0  0
 13 60  1  0  0  0  0
 13 61  1  0  0  0  0
 14 62  1  0  0  0  0
 14 63  1  0  0  0  0
 15 64  1  0  0  0  0
 15 65  1  0  0  0  0
 16 66  1  0  0  0  0
 16 67  1  0  0  0  0
 18 68  1  0  0  0  0
 18 69  1  0  0  0  0
 18 70  1  0  0  0  0
 19 71  1  0  0  0  0
 19 72  1  0  0  0  0
 20 73  1  0  0  0  0
 20 74  1  0  0  0  0
 23 75  1  0  0  0  0
 23 76  1  0  0  0  0
 23 77  1  0  0  0  0
 27 78  1  0  0  0  0
 27 79  1  0  0  0  0
 27 80  1  0  0  0  0
 30 81  1  0  0  0  0
 30 82  1  0  0  0  0
 30 83  1  0  0  0  0
 32 84  1  0  0  0  0
 32 85  1  0  0  0  0
 32 86  1  0  0  0  0
M  END
>  <InChIKey>
ZAKOWWREFLAJOT-CEFNRUSXSA-N

>  <UN GHS>
Non-irritant

>  <CASRN>
7695-91-2

> <Outcome>
0

>  <Index>
989

>  <StandardizerResult>
Dearomatize (ID: Dearomatize)
Clear Stereo (ID: ClearStereo)
Wedge Clean (ID: WedgeClean)
Mesomerize (ID: Mesomerize)
Tautomerize (ID: Tautomerize)
Aromatize (ID: Aromatize)
Add Explicit Hydrogens (ID: AddExplicitH)
Neutralize (ID: Neutralize)
Clean 2D (ID: Clean2D)

> <knn Distance>
4.0

> <CpId>
989

$$$$
1006
  Mrv1532301301811342D          

 43 44  0  0  0  0            999 V2000
    2.4125    1.3415    0.0000 C   0  0  0  0  0  0  0  0  0  0  0  0
    2.8250    0.6270    0.0000 C   0  0  0  0  0  0  0  0  0  0  0  0
    2.4125   -0.0874    0.0000 O   0  0  0  0  0  0  0  0  0  0  0  0
    2.8250   -0.8019    0.0000 P   0  0  0  0  0  0  0  0  0  0  0  0
    3.2375   -1.5164    0.0000 O   0  0  0  0  0  0  0  0  0  0  0  0
    2.1105   -1.2144    0.0000 C   0  0  0  0  0  0  0  0  0  0  0  0
    1.3961   -0.8019    0.0000 O   0  0  0  0  0  0  0  0  0  0  0  0
    2.1105   -2.0394    0.0000 C   0  0  0  0  0  0  0  0  0  0  0  0
    2.8250   -2.4519    0.0000 C   0  0  0  0  0  0  0  0  0  0  0  0
    3.5395   -2.0394    0.0000 C   0  0  0  0  0  0  0  0  0  0  0  0
    2.8250   -3.2769    0.0000 C   0  0  0  0  0  0  0  0  0  0  0  0
    2.1105   -3.6894    0.0000 C   0  0  0  0  0  0  0  0  0  0  0  0
    2.1105   -4.5144    0.0000 C   0  0  0  0  0  0  0  0  0  0  0  0
    1.3961   -3.2769    0.0000 C   0  0  0  0  0  0  0  0  0  0  0  0
    1.3961   -2.4519    0.0000 C   0  0  0  0  0  0  0  0  0  0  0  0
    0.6816   -2.0394    0.0000 C   0  0  0  0  0  0  0  0  0  0  0  0
    3.5395   -0.3894    0.0000 C   0  0  0  0  0  0  0  0  0  0  0  0
    3.5395    0.4356    0.0000 C   0  0  0  0  0  0  0  0  0  0  0  0
    4.2540    0.8481    0.0000 C   0  0  0  0  0  0  0  0  0  0  0  0
    4.9684    0.4356    0.0000 C   0  0  0  0  0  0  0  0  0  0  0  0
    4.9684   -0.3894    0.0000 C   0  0  0  0  0  0  0  0  0  0  0  0
    4.2540   -0.8019    0.0000 C   0  0  0  0  0  0  0  0  0  0  0  0
    3.1270    1.7540    0.0000 H   0  0  0  0  0  0  0  0  0  0  0  0
    2.0000    2.0560    0.0000 H   0  0  0  0  0  0  0  0  0  0  0  0
    1.6980    0.9290    0.0000 H   0  0  0  0  0  0  0  0  0  0  0  0
    3.3272    1.2816    0.0000 H   0  0  0  0  0  0  0  0  0  0  0  0
    2.0000    0.6270    0.0000 H   0  0  0  0  0  0  0  0  0  0  0  0
    3.6472   -2.8573    0.0000 H   0  0  0  0  0  0  0  0  0  0  0  0
    4.3364   -2.2529    0.0000 H   0  0  0  0  0  0  0  0  0  0  0  0
    4.0417   -1.3849    0.0000 H   0  0  0  0  0  0  0  0  0  0  0  0
    3.2189   -4.0018    0.0000 H   0  0  0  0  0  0  0  0  0  0  0  0
    1.2855   -4.5144    0.0000 H   0  0  0  0  0  0  0  0  0  0  0  0
    2.1105   -5.3394    0.0000 H   0  0  0  0  0  0  0  0  0  0  0  0
    2.9355   -4.5144    0.0000 H   0  0  0  0  0  0  0  0  0  0  0  0
    0.6816   -3.6894    0.0000 H   0  0  0  0  0  0  0  0  0  0  0  0
    1.0941   -1.3249    0.0000 H   0  0  0  0  0  0  0  0  0  0  0  0
   -0.0329   -1.6269    0.0000 H   0  0  0  0  0  0  0  0  0  0  0  0
    0.2691   -2.7539    0.0000 H   0  0  0  0  0  0  0  0  0  0  0  0
    4.2540    0.0231    0.0000 H   0  0  0  0  0  0  0  0  0  0  0  0
    4.2540    1.6731    0.0000 H   0  0  0  0  0  0  0  0  0  0  0  0
    5.6829    0.8481    0.0000 H   0  0  0  0  0  0  0  0  0  0  0  0
    5.6829   -0.8019    0.0000 H   0  0  0  0  0  0  0  0  0  0  0  0
    4.8859   -1.3322    0.0000 H   0  0  0  0  0  0  0  0  0  0  0  0
  1  2  1  0  0  0  0
  2  3  1  0  0  0  0
  3  4  1  0  0  0  0
  4  5  2  0  0  0  0
  4  6  1  0  0  0  0
  6  7  2  0  0  0  0
  6  8  1  0  0  0  0
  8  9  4  0  0  0  0
  9 10  1  0  0  0  0
  9 11  4  0  0  0  0
 11 12  4  0  0  0  0
 12 13  1  0  0  0  0
 12 14  4  0  0  0  0
 14 15  4  0  0  0  0
  8 15  4  0  0  0  0
 15 16  1  0  0  0  0
  4 17  1  0  0  0  0
 17 18  4  0  0  0  0
 18 19  4  0  0  0  0
 19 20  4  0  0  0  0
 20 21  4  0  0  0  0
 21 22  4  0  0  0  0
 17 22  4  0  0  0  0
  1 23  1  0  0  0  0
  1 24  1  0  0  0  0
  1 25  1  0  0  0  0
  2 26  1  0  0  0  0
  2 27  1  0  0  0  0
 10 28  1  0  0  0  0
 10 29  1  0  0  0  0
 10 30  1  0  0  0  0
 11 31  1  0  0  0  0
 13 32  1  0  0  0  0
 13 33  1  0  0  0  0
 13 34  1  0  0  0  0
 14 35  1  0  0  0  0
 16 36  1  0  0  0  0
 16 37  1  0  0  0  0
 16 38  1  0  0  0  0
 18 39  1  0  0  0  0
 19 40  1  0  0  0  0
 20 41  1  0  0  0  0
 21 42  1  0  0  0  0
 22 43  1  0  0  0  0
M  END
>  <InChIKey>
ZMDDERVSCYEKPQ-UHFFFAOYSA-N

>  <UN GHS>
Non-irritant

>  <CASRN>
84434-11-7

> <Outcome>
0

>  <Index>
1006

>  <StandardizerResult>
Dearomatize (ID: Dearomatize)
Clear Stereo (ID: ClearStereo)
Wedge Clean (ID: WedgeClean)
Mesomerize (ID: Mesomerize)
Tautomerize (ID: Tautomerize)
Aromatize (ID: Aromatize)
Add Explicit Hydrogens (ID: AddExplicitH)
Neutralize (ID: Neutralize)
Clean 2D (ID: Clean2D)

> <knn Distance>
4.0

> <CpId>
1006

$$$$
1038
  Mrv1532301301811342D          

 51 53  0  0  0  0            999 V2000
   -0.0172   -2.4993    0.0000 C   0  0  0  0  0  0  0  0  0  0  0  0
    0.6973   -2.9118    0.0000 N   0  0  0  0  0  0  0  0  0  0  0  0
    0.6973   -3.7368    0.0000 C   0  0  0  0  0  0  0  0  0  0  0  0
   -0.0172   -4.1493    0.0000 C   0  0  0  0  0  0  0  0  0  0  0  0
   -0.0172   -4.9743    0.0000 C   0  0  0  0  0  0  0  0  0  0  0  0
   -0.7316   -5.3868    0.0000 C   0  0  0  0  0  0  0  0  0  0  0  0
   -1.4461   -4.9743    0.0000 C   0  0  0  0  0  0  0  0  0  0  0  0
   -1.4461   -4.1493    0.0000 C   0  0  0  0  0  0  0  0  0  0  0  0
   -0.7316   -3.7368    0.0000 C   0  0  0  0  0  0  0  0  0  0  0  0
   -2.1606   -5.3868    0.0000 C   0  0  0  0  0  0  0  0  0  0  0  0
   -2.8750   -5.7993    0.0000 C   0  0  0  0  0  0  0  0  0  0  0  0
   -1.7481   -6.1013    0.0000 C   0  0  0  0  0  0  0  0  0  0  0  0
   -2.5731   -4.6723    0.0000 C   0  0  0  0  0  0  0  0  0  0  0  0
    1.4118   -2.4993    0.0000 C   0  0  0  0  0  0  0  0  0  0  0  0
    1.4118   -1.6743    0.0000 C   0  0  0  0  0  0  0  0  0  0  0  0
    0.6973   -1.2618    0.0000 C   0  0  0  0  0  0  0  0  0  0  0  0
    0.6973   -0.4368    0.0000 C   0  0  0  0  0  0  0  0  0  0  0  0
    1.4118   -0.0243    0.0000 C   0  0  0  0  0  0  0  0  0  0  0  0
    2.1262   -0.4368    0.0000 C   0  0  0  0  0  0  0  0  0  0  0  0
    2.8407   -0.0243    0.0000 C   0  0  0  0  0  0  0  0  0  0  0  0
    3.5552   -0.4368    0.0000 C   0  0  0  0  0  0  0  0  0  0  0  0
    3.5552   -1.2618    0.0000 C   0  0  0  0  0  0  0  0  0  0  0  0
    2.8407   -1.6743    0.0000 C   0  0  0  0  0  0  0  0  0  0  0  0
    2.1262   -1.2618    0.0000 C   0  0  0  0  0  0  0  0  0  0  0  0
    0.3953   -1.7848    0.0000 H   0  0  0  0  0  0  0  0  0  0  0  0
   -0.7316   -2.0868    0.0000 H   0  0  0  0  0  0  0  0  0  0  0  0
   -0.4297   -3.2138    0.0000 H   0  0  0  0  0  0  0  0  0  0  0  0
    1.1507   -4.4261    0.0000 H   0  0  0  0  0  0  0  0  0  0  0  0
    1.5209   -3.7848    0.0000 H   0  0  0  0  0  0  0  0  0  0  0  0
    0.6973   -5.3868    0.0000 H   0  0  0  0  0  0  0  0  0  0  0  0
   -0.7316   -6.2118    0.0000 H   0  0  0  0  0  0  0  0  0  0  0  0
   -2.1606   -3.7368    0.0000 H   0  0  0  0  0  0  0  0  0  0  0  0
   -1.3150   -3.1534    0.0000 H   0  0  0  0  0  0  0  0  0  0  0  0
   -3.2875   -5.0848    0.0000 H   0  0  0  0  0  0  0  0  0  0  0  0
   -3.5895   -6.2118    0.0000 H   0  0  0  0  0  0  0  0  0  0  0  0
   -2.4625   -6.5138    0.0000 H   0  0  0  0  0  0  0  0  0  0  0  0
   -1.6404   -6.9192    0.0000 H   0  0  0  0  0  0  0  0  0  0  0  0
   -0.9512   -6.3148    0.0000 H   0  0  0  0  0  0  0  0  0  0  0  0
   -1.2459   -5.4467    0.0000 H   0  0  0  0  0  0  0  0  0  0  0  0
   -1.7551   -4.5646    0.0000 H   0  0  0  0  0  0  0  0  0  0  0  0
   -2.3596   -3.8754    0.0000 H   0  0  0  0  0  0  0  0  0  0  0  0
   -3.2276   -4.1701    0.0000 H   0  0  0  0  0  0  0  0  0  0  0  0
    1.8651   -3.1886    0.0000 H   0  0  0  0  0  0  0  0  0  0  0  0
    2.2354   -2.5473    0.0000 H   0  0  0  0  0  0  0  0  0  0  0  0
   -0.0996   -1.0483    0.0000 H   0  0  0  0  0  0  0  0  0  0  0  0
   -0.0172   -0.0243    0.0000 H   0  0  0  0  0  0  0  0  0  0  0  0
    1.4118    0.8007    0.0000 H   0  0  0  0  0  0  0  0  0  0  0  0
    2.8407    0.8007    0.0000 H   0  0  0  0  0  0  0  0  0  0  0  0
    4.2697   -0.0243    0.0000 H   0  0  0  0  0  0  0  0  0  0  0  0
    4.2697   -1.6743    0.0000 H   0  0  0  0  0  0  0  0  0  0  0  0
    2.8407   -2.4993    0.0000 H   0  0  0  0  0  0  0  0  0  0  0  0
  1  2  1  0  0  0  0
  2  3  1  0  0  0  0
  3  4  1  0  0  0  0
  4  5  4  0  0  0  0
  5  6  4  0  0  0  0
  6  7  4  0  0  0  0
  7  8  4  0  0  0  0
  8  9  4  0  0  0  0
  4  9  4  0  0  0  0
  7 10  1  0  0  0  0
 10 11  1  0  0  0  0
 10 12  1  0  0  0  0
 10 13  1  0  0  0  0
  2 14  1  0  0  0  0
 14 15  1  0  0  0  0
 15 16  4  0  0  0  0
 16 17  4  0  0  0  0
 17 18  4  0  0  0  0
 18 19  4  0  0  0  0
 19 20  4  0  0  0  0
 20 21  4  0  0  0  0
 21 22  4  0  0  0  0
 22 23  4  0  0  0  0
 23 24  4  0  0  0  0
 15 24  4  0  0  0  0
 19 24  4  0  0  0  0
  1 25  1  0  0  0  0
  1 26  1  0  0  0  0
  1 27  1  0  0  0  0
  3 28  1  0  0  0  0
  3 29  1  0  0  0  0
  5 30  1  0  0  0  0
  6 31  1  0  0  0  0
  8 32  1  0  0  0  0
  9 33  1  0  0  0  0
 11 34  1  0  0  0  0
 11 35  1  0  0  0  0
 11 36  1  0  0  0  0
 12 37  1  0  0  0  0
 12 38  1  0  0  0  0
 12 39  1  0  0  0  0
 13 40  1  0  0  0  0
 13 41  1  0  0  0  0
 13 42  1  0  0  0  0
 14 43  1  0  0  0  0
 14 44  1  0  0  0  0
 16 45  1  0  0  0  0
 17 46  1  0  0  0  0
 18 47  1  0  0  0  0
 20 48  1  0  0  0  0
 21 49  1  0  0  0  0
 22 50  1  0  0  0  0
 23 51  1  0  0  0  0
M  END
>  <InChIKey>
InChI=1S/C23H27N/c1-23(2,3)21-14-12-18(13-15-21)16-24(4)17-20-10-7-9-19-8-5-6-11-22(19)20/h5-15H,16-17H2,1-4H3

>  <CASRN>
101828-21-1

> <Outcome>
0

>  <Index>
1038

>  <StandardizerResult>
Dearomatize (ID: Dearomatize)
Clear Stereo (ID: ClearStereo)
Wedge Clean (ID: WedgeClean)
Mesomerize (ID: Mesomerize)
Tautomerize (ID: Tautomerize)
Aromatize (ID: Aromatize)
Add Explicit Hydrogens (ID: AddExplicitH)
Neutralize (ID: Neutralize)
Clean 2D (ID: Clean2D)

> <knn Distance>
4.0

> <CpId>
1038

$$$$
1043
  Mrv1532301301811342D          

 15 14  0  0  0  0            999 V2000
    0.8022   -2.4750    0.0000 O   0  0  0  0  0  0  0  0  0  0  0  0
    0.8022   -1.6500    0.0000 P   0  0  0  0  0  0  0  0  0  0  0  0
    1.6272   -1.6500    0.0000 O   0  0  0  0  0  0  0  0  0  0  0  0
   -0.0228   -1.6500    0.0000 O   0  0  0  0  0  0  0  0  0  0  0  0
    0.8022   -0.8250    0.0000 C   0  0  0  0  0  0  0  0  0  0  0  0
    1.6272   -0.8250    0.0000 Cl  0  0  0  0  0  0  0  0  0  0  0  0
   -0.0228   -0.8250    0.0000 Cl  0  0  0  0  0  0  0  0  0  0  0  0
    0.8022   -0.0000    0.0000 P   0  0  0  0  0  0  0  0  0  0  0  0
    0.8022    0.8250    0.0000 O   0  0  0  0  0  0  0  0  0  0  0  0
    1.6272   -0.0000    0.0000 O   0  0  0  0  0  0  0  0  0  0  0  0
   -0.0228   -0.0000    0.0000 O   0  0  0  0  0  0  0  0  0  0  0  0
    0.0877   -2.8875    0.0000 H   0  0  0  0  0  0  0  0  0  0  0  0
    2.2106   -2.2334    0.0000 H   0  0  0  0  0  0  0  0  0  0  0  0
    1.5167    1.2375    0.0000 H   0  0  0  0  0  0  0  0  0  0  0  0
    2.2106    0.5834    0.0000 H   0  0  0  0  0  0  0  0  0  0  0  0
  1  2  1  0  0  0  0
  2  3  1  0  0  0  0
  2  4  2  0  0  0  0
  2  5  1  0  0  0  0
  5  6  1  0  0  0  0
  5  7  1  0  0  0  0
  5  8  1  0  0  0  0
  8  9  1  0  0  0  0
  8 10  1  0  0  0  0
  8 11  2  0  0  0  0
  1 12  1  0  0  0  0
  3 13  1  0  0  0  0
  9 14  1  0  0  0  0
 10 15  1  0  0  0  0
M  END
>  <InChIKey>
InChI=1S/CH4Cl2O6P2/c2-1(3,10(4,5)6)11(7,8)9/h(H2,4,5,6)(H2,7,8,9)

>  <CASRN>
10596-23-3

> <Outcome>
0

>  <Index>
1043

>  <StandardizerResult>
Clear Stereo (ID: ClearStereo)
Wedge Clean (ID: WedgeClean)
Mesomerize (ID: Mesomerize)
Tautomerize (ID: Tautomerize)
Add Explicit Hydrogens (ID: AddExplicitH)
Neutralize (ID: Neutralize)
Clean 2D (ID: Clean2D)

> <knn Distance>
4.0

> <CpId>
1043

$$$$
1112
  Mrv1532301301811342D          

 30 30  0  0  0  0            999 V2000
   -0.0738    3.2798    0.0000 C   0  0  0  0  0  0  0  0  0  0  0  0
   -0.0738    2.4548    0.0000 C   0  0  0  0  0  0  0  0  0  0  0  0
    0.6407    2.0423    0.0000 C   0  0  0  0  0  0  0  0  0  0  0  0
    1.3552    2.4548    0.0000 N   0  0  0  0  0  0  0  0  0  0  0  0
    2.0696    2.0423    0.0000 C   0  0  0  0  0  0  0  0  0  0  0  0
    0.6407    1.2173    0.0000 C   0  0  0  0  0  0  0  0  0  0  0  0
    1.3552    0.8048    0.0000 C   0  0  0  0  0  0  0  0  0  0  0  0
    1.3552   -0.0202    0.0000 C   0  0  0  0  0  0  0  0  0  0  0  0
    0.6407   -0.4327    0.0000 C   0  0  0  0  0  0  0  0  0  0  0  0
   -0.0738   -0.0202    0.0000 C   0  0  0  0  0  0  0  0  0  0  0  0
   -0.0738    0.8048    0.0000 C   0  0  0  0  0  0  0  0  0  0  0  0
   -0.7882    1.2173    0.0000 O   0  0  0  0  0  0  0  0  0  0  0  0
   -0.7882    2.0423    0.0000 C   0  0  0  0  0  0  0  0  0  0  0  0
    0.7512    3.2798    0.0000 H   0  0  0  0  0  0  0  0  0  0  0  0
   -0.0738    4.1048    0.0000 H   0  0  0  0  0  0  0  0  0  0  0  0
   -0.8988    3.2798    0.0000 H   0  0  0  0  0  0  0  0  0  0  0  0
   -0.7882    2.8673    0.0000 H   0  0  0  0  0  0  0  0  0  0  0  0
    0.6407    2.8673    0.0000 H   0  0  0  0  0  0  0  0  0  0  0  0
    1.3552    1.6298    0.0000 H   0  0  0  0  0  0  0  0  0  0  0  0
    1.7677    3.1693    0.0000 H   0  0  0  0  0  0  0  0  0  0  0  0
    2.2832    1.2454    0.0000 H   0  0  0  0  0  0  0  0  0  0  0  0
    2.8946    2.0423    0.0000 H   0  0  0  0  0  0  0  0  0  0  0  0
    2.2832    2.8392    0.0000 H   0  0  0  0  0  0  0  0  0  0  0  0
    2.1802    0.8048    0.0000 H   0  0  0  0  0  0  0  0  0  0  0  0
    2.0696   -0.4327    0.0000 H   0  0  0  0  0  0  0  0  0  0  0  0
    0.6407   -1.2577    0.0000 H   0  0  0  0  0  0  0  0  0  0  0  0
   -0.7882   -0.4327    0.0000 H   0  0  0  0  0  0  0  0  0  0  0  0
   -1.5635    2.3245    0.0000 H   0  0  0  0  0  0  0  0  0  0  0  0
   -1.5635    1.7601    0.0000 H   0  0  0  0  0  0  0  0  0  0  0  0
   -0.0738    1.6298    0.0000 H   0  0  0  0  0  0  0  0  0  0  0  0
  1  2  1  0  0  0  0
  2  3  1  0  0  0  0
  3  4  1  0  0  0  0
  4  5  1  0  0  0  0
  3  6  1  0  0  0  0
  6  7  4  0  0  0  0
  7  8  4  0  0  0  0
  8  9  4  0  0  0  0
  9 10  4  0  0  0  0
 10 11  4  0  0  0  0
  6 11  4  0  0  0  0
 11 12  1  0  0  0  0
 12 13  1  0  0  0  0
  1 14  1  0  0  0  0
  1 15  1  0  0  0  0
  1 16  1  0  0  0  0
  2 17  1  0  0  0  0
  2 18  1  0  0  0  0
  3 19  1  0  0  0  0
  4 20  1  0  0  0  0
  5 21  1  0  0  0  0
  5 22  1  0  0  0  0
  5 23  1  0  0  0  0
  7 24  1  0  0  0  0
  8 25  1  0  0  0  0
  9 26  1  0  0  0  0
 10 27  1  0  0  0  0
 13 28  1  0  0  0  0
 13 29  1  0  0  0  0
 13 30  1  0  0  0  0
M  END
>  <InChIKey>
InChI=1S/C11H17NO/c1-4-10(12-2)9-7-5-6-8-11(9)13-3/h5-8,10,12H,4H2,1-3H3

>  <CASRN>
93-30-1

> <Outcome>
0

>  <Index>
1112

>  <StandardizerResult>
Dearomatize (ID: Dearomatize)
Clear Stereo (ID: ClearStereo)
Wedge Clean (ID: WedgeClean)
Mesomerize (ID: Mesomerize)
Tautomerize (ID: Tautomerize)
Aromatize (ID: Aromatize)
Add Explicit Hydrogens (ID: AddExplicitH)
Neutralize (ID: Neutralize)
Clean 2D (ID: Clean2D)

> <knn Distance>
4.0

> <CpId>
1112

$$$$
1162
  Mrv1532301301811342D          

 67 67  0  0  0  0            999 V2000
   -4.4116    0.1915    0.0000 C   0  0  0  0  0  0  0  0  0  0  0  0
   -3.7536    0.6893    0.0000 C   0  0  0  0  0  0  0  0  0  0  0  0
   -2.9936    0.3683    0.0000 C   0  0  0  0  0  0  0  0  0  0  0  0
   -2.3357    0.8660    0.0000 C   0  0  0  0  0  0  0  0  0  0  0  0
   -1.5756    0.5451    0.0000 C   0  0  0  0  0  0  0  0  0  0  0  0
   -1.4736   -0.2736    0.0000 C   0  0  0  0  0  0  0  0  0  0  0  0
   -0.9177    1.0428    0.0000 C   0  0  0  0  0  0  0  0  0  0  0  0
   -0.1577    0.7219    0.0000 C   0  0  0  0  0  0  0  0  0  0  0  0
   -0.0556   -0.0968    0.0000 O   0  0  0  0  0  0  0  0  0  0  0  0
    0.5003    1.2196    0.0000 C   0  0  0  0  0  0  0  0  0  0  0  0
    1.2603    0.8987    0.0000 C   0  0  0  0  0  0  0  0  0  0  0  0
    1.9182    1.3964    0.0000 C   0  0  0  0  0  0  0  0  0  0  0  0
    1.9023    2.2212    0.0000 C   0  0  0  0  0  0  0  0  0  0  0  0
    1.2256    2.6932    0.0000 O   0  0  0  0  0  0  0  0  0  0  0  0
    2.6819    2.4913    0.0000 C   0  0  0  0  0  0  0  0  0  0  0  0
    3.1796    1.8333    0.0000 C   0  0  0  0  0  0  0  0  0  0  0  0
    4.0044    1.8493    0.0000 O   0  0  0  0  0  0  0  0  0  0  0  0
    2.7076    1.1567    0.0000 C   0  0  0  0  0  0  0  0  0  0  0  0
    2.9777    0.3771    0.0000 C   0  0  0  0  0  0  0  0  0  0  0  0
    2.4376   -0.2465    0.0000 C   0  0  0  0  0  0  0  0  0  0  0  0
    1.6275   -0.0906    0.0000 O   0  0  0  0  0  0  0  0  0  0  0  0
    2.7076   -1.0261    0.0000 C   0  0  0  0  0  0  0  0  0  0  0  0
    3.5178   -1.1820    0.0000 C   0  0  0  0  0  0  0  0  0  0  0  0
    4.0579   -0.5584    0.0000 C   0  0  0  0  0  0  0  0  0  0  0  0
    4.8680   -0.7143    0.0000 C   0  0  0  0  0  0  0  0  0  0  0  0
    5.4081   -0.0906    0.0000 C   0  0  0  0  0  0  0  0  0  0  0  0
    5.1380    0.6889    0.0000 O   0  0  0  0  0  0  0  0  0  0  0  0
    6.2182   -0.2465    0.0000 O   0  0  0  0  0  0  0  0  0  0  0  0
    6.7583    0.3771    0.0000 C   0  0  0  0  0  0  0  0  0  0  0  0
   -4.9093    0.8495    0.0000 H   0  0  0  0  0  0  0  0  0  0  0  0
   -5.0695   -0.3062    0.0000 H   0  0  0  0  0  0  0  0  0  0  0  0
   -3.9138   -0.4664    0.0000 H   0  0  0  0  0  0  0  0  0  0  0  0
   -3.4774    1.4667    0.0000 H   0  0  0  0  0  0  0  0  0  0  0  0
   -4.2122    1.3750    0.0000 H   0  0  0  0  0  0  0  0  0  0  0  0
   -3.2698   -0.4091    0.0000 H   0  0  0  0  0  0  0  0  0  0  0  0
   -2.5350   -0.3175    0.0000 H   0  0  0  0  0  0  0  0  0  0  0  0
   -2.0594    1.6434    0.0000 H   0  0  0  0  0  0  0  0  0  0  0  0
   -2.7943    1.5518    0.0000 H   0  0  0  0  0  0  0  0  0  0  0  0
   -2.2336    0.0474    0.0000 H   0  0  0  0  0  0  0  0  0  0  0  0
   -1.9803   -0.9246    0.0000 H   0  0  0  0  0  0  0  0  0  0  0  0
   -0.9759   -0.9315    0.0000 H   0  0  0  0  0  0  0  0  0  0  0  0
   -0.7092    0.0369    0.0000 H   0  0  0  0  0  0  0  0  0  0  0  0
   -0.6415    1.8202    0.0000 H   0  0  0  0  0  0  0  0  0  0  0  0
   -1.3763    1.7286    0.0000 H   0  0  0  0  0  0  0  0  0  0  0  0
    0.6023    0.4009    0.0000 H   0  0  0  0  0  0  0  0  0  0  0  0
    0.1268   -0.9014    0.0000 H   0  0  0  0  0  0  0  0  0  0  0  0
    0.3982    2.0383    0.0000 H   0  0  0  0  0  0  0  0  0  0  0  0
    1.7580    0.2407    0.0000 H   0  0  0  0  0  0  0  0  0  0  0  0
    2.0630    0.5842    0.0000 H   0  0  0  0  0  0  0  0  0  0  0  0
    1.1746    1.8326    0.0000 H   0  0  0  0  0  0  0  0  0  0  0  0
    0.8658    3.4356    0.0000 H   0  0  0  0  0  0  0  0  0  0  0  0
    3.2641    3.0757    0.0000 H   0  0  0  0  0  0  0  0  0  0  0  0
    2.5229    3.3008    0.0000 H   0  0  0  0  0  0  0  0  0  0  0  0
    3.5248    1.0434    0.0000 H   0  0  0  0  0  0  0  0  0  0  0  0
    3.3863   -0.3396    0.0000 H   0  0  0  0  0  0  0  0  0  0  0  0
    3.7530    0.0953    0.0000 H   0  0  0  0  0  0  0  0  0  0  0  0
    1.9451   -1.3410    0.0000 H   0  0  0  0  0  0  0  0  0  0  0  0
    2.5049   -1.8258    0.0000 H   0  0  0  0  0  0  0  0  0  0  0  0
    3.4092   -1.9998    0.0000 H   0  0  0  0  0  0  0  0  0  0  0  0
    4.1090   -1.7574    0.0000 H   0  0  0  0  0  0  0  0  0  0  0  0
    4.5652    0.0922    0.0000 H   0  0  0  0  0  0  0  0  0  0  0  0
    4.3279   -1.3379    0.0000 H   0  0  0  0  0  0  0  0  0  0  0  0
    5.2693   -1.4351    0.0000 H   0  0  0  0  0  0  0  0  0  0  0  0
    5.6387   -1.0085    0.0000 H   0  0  0  0  0  0  0  0  0  0  0  0
    7.3819   -0.1630    0.0000 H   0  0  0  0  0  0  0  0  0  0  0  0
    7.2984    1.0007    0.0000 H   0  0  0  0  0  0  0  0  0  0  0  0
    6.1347    0.9172    0.0000 H   0  0  0  0  0  0  0  0  0  0  0  0
  1  2  1  0  0  0  0
  2  3  1  0  0  0  0
  3  4  1  0  0  0  0
  4  5  1  0  0  0  0
  5  6  1  0  0  0  0
  5  7  1  0  0  0  0
  7  8  1  0  0  0  0
  8  9  1  0  0  0  0
 10  8  1  4  0  0  0
 10 11  2  0  0  0  0
 11 12  1  0  0  0  0
 12 13  1  0  0  0  0
 13 14  1  0  0  0  0
 13 15  1  0  0  0  0
 15 16  1  0  0  0  0
 16 17  2  0  0  0  0
 16 18  1  0  0  0  0
 12 18  1  0  0  0  0
 18 19  1  0  0  0  0
 19 20  1  0  0  0  0
 20 21  2  0  0  0  0
 20 22  1  0  0  0  0
 22 23  1  0  0  0  0
 23 24  1  0  0  0  0
 24 25  1  0  0  0  0
 25 26  1  0  0  0  0
 26 27  2  0  0  0  0
 26 28  1  0  0  0  0
 28 29  1  0  0  0  0
  1 30  1  0  0  0  0
  1 31  1  0  0  0  0
  1 32  1  0  0  0  0
  2 33  1  0  0  0  0
  2 34  1  0  0  0  0
  3 35  1  0  0  0  0
  3 36  1  0  0  0  0
  4 37  1  0  0  0  0
  4 38  1  0  0  0  0
  5 39  1  0  0  0  0
  6 40  1  0  0  0  0
  6 41  1  0  0  0  0
  6 42  1  0  0  0  0
  7 43  1  0  0  0  0
  7 44  1  0  0  0  0
  8 45  1  0  0  0  0
  9 46  1  0  0  0  0
 10 47  1  0  0  0  0
 11 48  1  0  0  0  0
 12 49  1  0  0  0  0
 13 50  1  0  0  0  0
 14 51  1  0  0  0  0
 15 52  1  0  0  0  0
 15 53  1  0  0  0  0
 18 54  1  0  0  0  0
 19 55  1  0  0  0  0
 19 56  1  0  0  0  0
 22 57  1  0  0  0  0
 22 58  1  0  0  0  0
 23 59  1  0  0  0  0
 23 60  1  0  0  0  0
 24 61  1  0  0  0  0
 24 62  1  0  0  0  0
 25 63  1  0  0  0  0
 25 64  1  0  0  0  0
 29 65  1  0  0  0  0
 29 66  1  0  0  0  0
 29 67  1  0  0  0  0
M  END
>  <InChIKey>
InChI=1S/C23H38O6/c1-4-5-8-16(2)13-18(25)11-12-19-20(22(27)15-21(19)26)14-17(24)9-6-7-10-23(28)29-3/h11-12,16,18-21,25-26H,4-10,13-15H2,1-3H3

>  <CASRN>
70667-26-4

> <Outcome>
0

>  <Index>
1162

>  <StandardizerResult>
Clear Stereo (ID: ClearStereo)
Wedge Clean (ID: WedgeClean)
Mesomerize (ID: Mesomerize)
Tautomerize (ID: Tautomerize)
Add Explicit Hydrogens (ID: AddExplicitH)
Neutralize (ID: Neutralize)
Clean 2D (ID: Clean2D)

> <knn Distance>
4.0

> <CpId>
1162

$$$$
1175
  Mrv1532301301811342D          

 46 49  0  0  0  0            999 V2000
    3.5331   -3.3125    0.0000 C   0  0  0  0  0  0  0  0  0  0  0  0
    3.8929   -2.5701    0.0000 C   0  0  0  0  0  0  0  0  0  0  0  0
    4.4248   -3.2008    0.0000 C   0  0  0  0  0  0  0  0  0  0  0  0
    5.2369   -3.0556    0.0000 C   0  0  0  0  0  0  0  0  0  0  0  0
    5.5172   -2.2797    0.0000 C   0  0  0  0  0  0  0  0  0  0  0  0
    4.9854   -1.6489    0.0000 C   0  0  0  0  0  0  0  0  0  0  0  0
    5.2657   -0.8730    0.0000 C   0  0  0  0  0  0  0  0  0  0  0  0
    6.0778   -0.7278    0.0000 C   0  0  0  0  0  0  0  0  0  0  0  0
    6.6096   -1.3585    0.0000 C   0  0  0  0  0  0  0  0  0  0  0  0
    7.4217   -1.2133    0.0000 C   0  0  0  0  0  0  0  0  0  0  0  0
    7.9535   -1.8440    0.0000 C   0  0  0  0  0  0  0  0  0  0  0  0
    8.7657   -1.6988    0.0000 O   0  0  0  0  0  0  0  0  0  0  0  0
    7.6732   -2.6199    0.0000 C   0  0  0  0  0  0  0  0  0  0  0  0
    6.8611   -2.7652    0.0000 C   0  0  0  0  0  0  0  0  0  0  0  0
    6.3293   -2.1344    0.0000 C   0  0  0  0  0  0  0  0  0  0  0  0
    4.1732   -1.7942    0.0000 C   0  0  0  0  0  0  0  0  0  0  0  0
    3.5219   -1.2878    0.0000 C   0  0  0  0  0  0  0  0  0  0  0  0
    2.8391   -1.7508    0.0000 C   0  0  0  0  0  0  0  0  0  0  0  0
    3.0684   -2.5433    0.0000 C   0  0  0  0  0  0  0  0  0  0  0  0
    2.3075   -2.8622    0.0000 O   0  0  0  0  0  0  0  0  0  0  0  0
    2.9470   -3.3593    0.0000 C   0  0  0  0  0  0  0  0  0  0  0  0
    2.8256   -4.1753    0.0000 C   0  0  0  0  0  0  0  0  0  0  0  0
    3.0051   -3.9464    0.0000 H   0  0  0  0  0  0  0  0  0  0  0  0
    3.6172   -4.1332    0.0000 H   0  0  0  0  0  0  0  0  0  0  0  0
    4.1787   -3.8261    0.0000 H   0  0  0  0  0  0  0  0  0  0  0  0
    4.9476   -3.8390    0.0000 H   0  0  0  0  0  0  0  0  0  0  0  0
    4.7051   -2.4249    0.0000 H   0  0  0  0  0  0  0  0  0  0  0  0
    5.8679   -3.5871    0.0000 H   0  0  0  0  0  0  0  0  0  0  0  0
    6.0619   -3.0559    0.0000 H   0  0  0  0  0  0  0  0  0  0  0  0
    5.7975   -1.5037    0.0000 H   0  0  0  0  0  0  0  0  0  0  0  0
    4.4535   -1.0182    0.0000 H   0  0  0  0  0  0  0  0  0  0  0  0
    5.4070   -0.0602    0.0000 H   0  0  0  0  0  0  0  0  0  0  0  0
    4.8514   -0.1596    0.0000 H   0  0  0  0  0  0  0  0  0  0  0  0
    6.8423   -0.4177    0.0000 H   0  0  0  0  0  0  0  0  0  0  0  0
    6.4498    0.0085    0.0000 H   0  0  0  0  0  0  0  0  0  0  0  0
    7.7020   -0.4374    0.0000 H   0  0  0  0  0  0  0  0  0  0  0  0
    9.2975   -2.3295    0.0000 H   0  0  0  0  0  0  0  0  0  0  0  0
    8.2051   -3.2506    0.0000 H   0  0  0  0  0  0  0  0  0  0  0  0
    7.0755   -3.5618    0.0000 H   0  0  0  0  0  0  0  0  0  0  0  0
    3.3808   -2.0235    0.0000 H   0  0  0  0  0  0  0  0  0  0  0  0
    3.4768   -0.4640    0.0000 H   0  0  0  0  0  0  0  0  0  0  0  0
    2.9172   -0.7266    0.0000 H   0  0  0  0  0  0  0  0  0  0  0  0
    2.2856   -1.1390    0.0000 H   0  0  0  0  0  0  0  0  0  0  0  0
    2.0224   -1.8676    0.0000 H   0  0  0  0  0  0  0  0  0  0  0  0
    1.4897   -2.7536    0.0000 H   0  0  0  0  0  0  0  0  0  0  0  0
    2.2153   -4.7305    0.0000 H   0  0  0  0  0  0  0  0  0  0  0  0
  1  2  1  0  0  0  0
  2  3  1  0  0  0  0
  3  4  1  0  0  0  0
  4  5  1  0  0  0  0
  5  6  1  0  0  0  0
  6  7  1  0  0  0  0
  7  8  1  0  0  0  0
  8  9  1  0  0  0  0
  9 10  4  0  0  0  0
 10 11  4  0  0  0  0
 11 12  1  0  0  0  0
 11 13  4  0  0  0  0
 13 14  4  0  0  0  0
 14 15  4  0  0  0  0
  5 15  1  0  0  0  0
  9 15  4  0  0  0  0
  6 16  1  0  0  0  0
  2 16  1  0  0  0  0
 16 17  1  0  0  0  0
 17 18  1  0  0  0  0
 18 19  1  0  0  0  0
  2 19  1  0  0  0  0
 19 20  1  0  0  0  0
 19 21  1  0  0  0  0
 21 22  3  0  0  0  0
  1 23  1  0  0  0  0
  1 24  1  0  0  0  0
  1 25  1  0  0  0  0
  3 26  1  0  0  0  0
  3 27  1  0  0  0  0
  4 28  1  0  0  0  0
  4 29  1  0  0  0  0
  5 30  1  0  0  0  0
  6 31  1  0  0  0  0
  7 32  1  0  0  0  0
  7 33  1  0  0  0  0
  8 34  1  0  0  0  0
  8 35  1  0  0  0  0
 10 36  1  0  0  0  0
 12 37  1  0  0  0  0
 13 38  1  0  0  0  0
 14 39  1  0  0  0  0
 16 40  1  0  0  0  0
 17 41  1  0  0  0  0
 17 42  1  0  0  0  0
 18 43  1  0  0  0  0
 18 44  1  0  0  0  0
 20 45  1  0  0  0  0
 22 46  1  0  0  0  0
M  END
>  <InChIKey>
InChI=1S/C20H24O2/c1-3-20(22)11-9-18-17-6-4-13-12-14(21)5-7-15(13)16(17)8-10-19(18,20)2/h1,5,7,12,16-18,21-22H,4,6,8-11H2,2H3

>  <CASRN>
57-63-6

> <Outcome>
0

>  <Index>
1175

>  <StandardizerResult>
Dearomatize (ID: Dearomatize)
Clear Stereo (ID: ClearStereo)
Wedge Clean (ID: WedgeClean)
Mesomerize (ID: Mesomerize)
Tautomerize (ID: Tautomerize)
Aromatize (ID: Aromatize)
Add Explicit Hydrogens (ID: AddExplicitH)
Neutralize (ID: Neutralize)
Clean 2D (ID: Clean2D)

> <knn Distance>
4.0

> <CpId>
1175

$$$$
1232
  Mrv1532301301811342D          

 34 36  0  0  0  0            999 V2000
    0.8039   -2.5554    0.0000 C   0  0  0  0  0  0  0  0  0  0  0  0
    0.8039   -1.7304    0.0000 C   0  0  0  0  0  0  0  0  0  0  0  0
    0.0685   -2.1041    0.0000 C   0  0  0  0  0  0  0  0  0  0  0  0
    0.5179   -1.3138    0.0000 C   0  0  0  0  0  0  0  0  0  0  0  0
    0.5179   -0.5664    0.0000 C   0  0  0  0  0  0  0  0  0  0  0  0
    1.2534   -0.1927    0.0000 C   0  0  0  0  0  0  0  0  0  0  0  0
    1.2534    0.6323    0.0000 C   0  0  0  0  0  0  0  0  0  0  0  0
    0.8039   -0.9830    0.0000 C   0  0  0  0  0  0  0  0  0  0  0  0
    1.9890   -0.5664    0.0000 C   0  0  0  0  0  0  0  0  0  0  0  0
    1.9890   -1.3138    0.0000 C   0  0  0  0  0  0  0  0  0  0  0  0
    2.7866   -1.5247    0.0000 N   0  0  0  0  0  0  0  0  0  0  0  0
    1.2534   -1.6875    0.0000 C   0  0  0  0  0  0  0  0  0  0  0  0
    1.5395   -2.1041    0.0000 C   0  0  0  0  0  0  0  0  0  0  0  0
    0.0840   -2.9582    0.0000 H   0  0  0  0  0  0  0  0  0  0  0  0
    0.8039   -3.3804    0.0000 H   0  0  0  0  0  0  0  0  0  0  0  0
    1.5239   -2.9583    0.0000 H   0  0  0  0  0  0  0  0  0  0  0  0
   -0.5843   -1.5995    0.0000 H   0  0  0  0  0  0  0  0  0  0  0  0
   -0.7461   -2.2347    0.0000 H   0  0  0  0  0  0  0  0  0  0  0  0
   -0.2797   -1.1028    0.0000 H   0  0  0  0  0  0  0  0  0  0  0  0
    0.3796    0.2470    0.0000 H   0  0  0  0  0  0  0  0  0  0  0  0
   -0.1251   -0.0495    0.0000 H   0  0  0  0  0  0  0  0  0  0  0  0
    2.0442    0.3974    0.0000 H   0  0  0  0  0  0  0  0  0  0  0  0
    1.7039    1.3235    0.0000 H   0  0  0  0  0  0  0  0  0  0  0  0
    0.7192    1.2611    0.0000 H   0  0  0  0  0  0  0  0  0  0  0  0
    1.5877   -1.2404    0.0000 H   0  0  0  0  0  0  0  0  0  0  0  0
    1.5736   -0.6860    0.0000 H   0  0  0  0  0  0  0  0  0  0  0  0
    2.6955   -0.9924    0.0000 H   0  0  0  0  0  0  0  0  0  0  0  0
    2.7187   -0.1814    0.0000 H   0  0  0  0  0  0  0  0  0  0  0  0
    2.9259   -2.3379    0.0000 H   0  0  0  0  0  0  0  0  0  0  0  0
    3.5841   -1.7358    0.0000 H   0  0  0  0  0  0  0  0  0  0  0  0
    1.8847   -1.1564    0.0000 H   0  0  0  0  0  0  0  0  0  0  0  0
    0.9043   -2.4349    0.0000 H   0  0  0  0  0  0  0  0  0  0  0  0
    2.1661   -2.6407    0.0000 H   0  0  0  0  0  0  0  0  0  0  0  0
    2.3522   -1.9623    0.0000 H   0  0  0  0  0  0  0  0  0  0  0  0
  1  2  1  0  0  0  0
  2  3  1  0  0  0  0
  3  4  1  0  0  0  0
  2 13  1  0  0  0  0
  5  6  1  0  0  0  0
  6  7  1  0  0  0  0
  6  8  1  0  0  0  0
  6  9  1  0  0  0  0
 10 13  1  0  0  0  0
  4 12  1  0  0  0  0
 10 11  1  0  0  0  0
 10 12  1  0  0  0  0
  9 10  1  0  0  0  0
  2  8  1  0  0  0  0
  4  5  1  0  0  0  0
  1 14  1  0  0  0  0
  1 15  1  0  0  0  0
  1 16  1  0  0  0  0
  3 17  1  0  0  0  0
  3 18  1  0  0  0  0
  4 19  1  0  0  0  0
  5 20  1  0  0  0  0
  5 21  1  0  0  0  0
  7 22  1  0  0  0  0
  7 23  1  0  0  0  0
  7 24  1  0  0  0  0
  8 25  1  0  0  0  0
  8 26  1  0  0  0  0
  9 27  1  0  0  0  0
  9 28  1  0  0  0  0
 11 29  1  0  0  0  0
 11 30  1  0  0  0  0
 12 31  1  0  0  0  0
 12 32  1  0  0  0  0
 13 33  1  0  0  0  0
 13 34  1  0  0  0  0
M  END
>  <InChIKey>
InChI=1S/C12H21N/c1-10-3-9-4-11(2,6-10)8-12(13,5-9)7-10/h9H,3-8,13H2,1-2H3

>  <CASRN>
19982-08-2

> <Outcome>
0

>  <Index>
1232

>  <StandardizerResult>
Clear Stereo (ID: ClearStereo)
Wedge Clean (ID: WedgeClean)
Mesomerize (ID: Mesomerize)
Tautomerize (ID: Tautomerize)
Add Explicit Hydrogens (ID: AddExplicitH)
Neutralize (ID: Neutralize)
Clean 2D (ID: Clean2D)

> <knn Distance>
4.0

> <CpId>
1232

$$$$
1288
  Mrv1532301301811342D          

 63 63  0  0  0  0            999 V2000
    2.3609   -8.0796    0.0000 C   0  0  0  0  0  0  0  0  0  0  0  0
    1.7478   -7.5276    0.0000 C   0  0  0  0  0  0  0  0  0  0  0  0
    1.9193   -6.7206    0.0000 C   0  0  0  0  0  0  0  0  0  0  0  0
    1.3062   -6.1686    0.0000 C   0  0  0  0  0  0  0  0  0  0  0  0
    1.4777   -5.3616    0.0000 C   0  0  0  0  0  0  0  0  0  0  0  0
    2.2847   -5.5331    0.0000 C   0  0  0  0  0  0  0  0  0  0  0  0
    0.6708   -5.1901    0.0000 O   0  0  0  0  0  0  0  0  0  0  0  0
    1.6493   -4.5546    0.0000 C   0  0  0  0  0  0  0  0  0  0  0  0
    1.0362   -4.0026    0.0000 C   0  0  0  0  0  0  0  0  0  0  0  0
    1.2077   -3.1956    0.0000 C   0  0  0  0  0  0  0  0  0  0  0  0
    0.5946   -2.6436    0.0000 C   0  0  0  0  0  0  0  0  0  0  0  0
   -0.2124   -2.8151    0.0000 C   0  0  0  0  0  0  0  0  0  0  0  0
   -0.5479   -3.5688    0.0000 O   0  0  0  0  0  0  0  0  0  0  0  0
   -0.6249   -2.1007    0.0000 C   0  0  0  0  0  0  0  0  0  0  0  0
   -0.0728   -1.4876    0.0000 C   0  0  0  0  0  0  0  0  0  0  0  0
   -0.2444   -0.6806    0.0000 O   0  0  0  0  0  0  0  0  0  0  0  0
    0.6808   -1.8231    0.0000 C   0  0  0  0  0  0  0  0  0  0  0  0
    1.3953   -1.4106    0.0000 C   0  0  0  0  0  0  0  0  0  0  0  0
    2.1098   -1.8231    0.0000 C   0  0  0  0  0  0  0  0  0  0  0  0
    2.8242   -1.4106    0.0000 C   0  0  0  0  0  0  0  0  0  0  0  0
    3.5387   -1.8231    0.0000 C   0  0  0  0  0  0  0  0  0  0  0  0
    4.2532   -1.4106    0.0000 C   0  0  0  0  0  0  0  0  0  0  0  0
    4.9677   -1.8231    0.0000 C   0  0  0  0  0  0  0  0  0  0  0  0
    5.6821   -1.4106    0.0000 C   0  0  0  0  0  0  0  0  0  0  0  0
    5.6821   -0.5856    0.0000 O   0  0  0  0  0  0  0  0  0  0  0  0
    6.3966   -1.8231    0.0000 O   0  0  0  0  0  0  0  0  0  0  0  0
    7.1111   -1.4106    0.0000 C   0  0  0  0  0  0  0  0  0  0  0  0
    1.8088   -8.6927    0.0000 H   0  0  0  0  0  0  0  0  0  0  0  0
    2.9740   -8.6317    0.0000 H   0  0  0  0  0  0  0  0  0  0  0  0
    2.9129   -7.4665    0.0000 H   0  0  0  0  0  0  0  0  0  0  0  0
    0.9322   -7.4033    0.0000 H   0  0  0  0  0  0  0  0  0  0  0  0
    1.1610   -8.1076    0.0000 H   0  0  0  0  0  0  0  0  0  0  0  0
    2.7349   -6.8449    0.0000 H   0  0  0  0  0  0  0  0  0  0  0  0
    2.5060   -6.1407    0.0000 H   0  0  0  0  0  0  0  0  0  0  0  0
    0.4906   -6.0443    0.0000 H   0  0  0  0  0  0  0  0  0  0  0  0
    0.7195   -6.7486    0.0000 H   0  0  0  0  0  0  0  0  0  0  0  0
    3.0959   -5.6833    0.0000 H   0  0  0  0  0  0  0  0  0  0  0  0
    2.8259   -4.9104    0.0000 H   0  0  0  0  0  0  0  0  0  0  0  0
    2.0229   -4.7508    0.0000 H   0  0  0  0  0  0  0  0  0  0  0  0
    0.2209   -4.4985    0.0000 H   0  0  0  0  0  0  0  0  0  0  0  0
    2.1207   -3.8776    0.0000 H   0  0  0  0  0  0  0  0  0  0  0  0
    0.8646   -4.8096    0.0000 H   0  0  0  0  0  0  0  0  0  0  0  0
    0.3632   -3.5254    0.0000 H   0  0  0  0  0  0  0  0  0  0  0  0
    1.9923   -2.9407    0.0000 H   0  0  0  0  0  0  0  0  0  0  0  0
    1.3648   -2.3480    0.0000 H   0  0  0  0  0  0  0  0  0  0  0  0
   -1.0362   -2.8583    0.0000 H   0  0  0  0  0  0  0  0  0  0  0  0
   -0.9146   -4.3079    0.0000 H   0  0  0  0  0  0  0  0  0  0  0  0
   -1.0772   -1.4107    0.0000 H   0  0  0  0  0  0  0  0  0  0  0  0
   -1.4262   -1.9046    0.0000 H   0  0  0  0  0  0  0  0  0  0  0  0
    0.6377   -0.9993    0.0000 H   0  0  0  0  0  0  0  0  0  0  0  0
    2.0219   -0.8739    0.0000 H   0  0  0  0  0  0  0  0  0  0  0  0
    1.5255   -0.5960    0.0000 H   0  0  0  0  0  0  0  0  0  0  0  0
    2.1593   -2.6466    0.0000 H   0  0  0  0  0  0  0  0  0  0  0  0
    2.8363   -2.2140    0.0000 H   0  0  0  0  0  0  0  0  0  0  0  0
    3.2601   -0.7101    0.0000 H   0  0  0  0  0  0  0  0  0  0  0  0
    3.9456   -2.5408    0.0000 H   0  0  0  0  0  0  0  0  0  0  0  0
    4.6234   -0.6734    0.0000 H   0  0  0  0  0  0  0  0  0  0  0  0
    3.8829   -0.6734    0.0000 H   0  0  0  0  0  0  0  0  0  0  0  0
    4.5974   -2.5604    0.0000 H   0  0  0  0  0  0  0  0  0  0  0  0
    5.3379   -2.5604    0.0000 H   0  0  0  0  0  0  0  0  0  0  0  0
    7.5236   -2.1251    0.0000 H   0  0  0  0  0  0  0  0  0  0  0  0
    7.8255   -0.9981    0.0000 H   0  0  0  0  0  0  0  0  0  0  0  0
    6.6986   -0.6962    0.0000 H   0  0  0  0  0  0  0  0  0  0  0  0
  1  2  1  0  0  0  0
  2  3  1  0  0  0  0
  3  4  1  0  0  0  0
  4  5  1  0  0  0  0
  5  6  1  0  0  0  0
  5  7  1  0  0  0  0
  5  8  1  0  0  0  0
  9  8  1  4  0  0  0
  9 10  2  0  0  0  0
 10 11  1  0  0  0  0
 11 12  1  0  0  0  0
 12 13  1  0  0  0  0
 12 14  1  0  0  0  0
 14 15  1  0  0  0  0
 15 16  2  0  0  0  0
 15 17  1  0  0  0  0
 11 17  1  0  0  0  0
 17 18  1  0  0  0  0
 18 19  1  0  0  0  0
 20 19  1  4  0  0  0
 20 21  2  0  0  0  0
 21 22  1  0  0  0  0
 22 23  1  0  0  0  0
 23 24  1  0  0  0  0
 24 25  2  0  0  0  0
 24 26  1  0  0  0  0
 26 27  1  0  0  0  0
  1 28  1  0  0  0  0
  1 29  1  0  0  0  0
  1 30  1  0  0  0  0
  2 31  1  0  0  0  0
  2 32  1  0  0  0  0
  3 33  1  0  0  0  0
  3 34  1  0  0  0  0
  4 35  1  0  0  0  0
  4 36  1  0  0  0  0
  6 37  1  0  0  0  0
  6 38  1  0  0  0  0
  6 39  1  0  0  0  0
  7 40  1  0  0  0  0
  8 41  1  0  0  0  0
  8 42  1  0  0  0  0
  9 43  1  0  0  0  0
 10 44  1  0  0  0  0
 11 45  1  0  0  0  0
 12 46  1  0  0  0  0
 13 47  1  0  0  0  0
 14 48  1  0  0  0  0
 14 49  1  0  0  0  0
 17 50  1  0  0  0  0
 18 51  1  0  0  0  0
 18 52  1  0  0  0  0
 19 53  1  0  0  0  0
 19 54  1  0  0  0  0
 20 55  1  0  0  0  0
 21 56  1  0  0  0  0
 22 57  1  0  0  0  0
 22 58  1  0  0  0  0
 23 59  1  0  0  0  0
 23 60  1  0  0  0  0
 27 61  1  0  0  0  0
 27 62  1  0  0  0  0
 27 63  1  0  0  0  0
M  END
>  <InChIKey>
InChI=1S/C22H36O5/c1-4-5-14-22(2,26)15-10-12-18-17(19(23)16-20(18)24)11-8-6-7-9-13-21(25)27-3/h6-7,10,12,17-18,20,24,26H,4-5,8-9,11,13-16H2,1-3H3

>  <CASRN>
81026-63-3

> <Outcome>
0

>  <Index>
1288

>  <StandardizerResult>
Clear Stereo (ID: ClearStereo)
Wedge Clean (ID: WedgeClean)
Mesomerize (ID: Mesomerize)
Tautomerize (ID: Tautomerize)
Add Explicit Hydrogens (ID: AddExplicitH)
Neutralize (ID: Neutralize)
Clean 2D (ID: Clean2D)

> <knn Distance>
4.0

> <CpId>
1288

$$$$
1332
  Mrv1532301301811342D          

 26 26  0  0  0  0            999 V2000
   -0.0241   -2.4650    0.0000 C   0  0  0  0  0  0  0  0  0  0  0  0
    0.6904   -2.8775    0.0000 C   0  0  0  0  0  0  0  0  0  0  0  0
    0.6904   -3.7025    0.0000 C   0  0  0  0  0  0  0  0  0  0  0  0
    1.4049   -2.4650    0.0000 O   0  0  0  0  0  0  0  0  0  0  0  0
    2.1193   -2.8775    0.0000 C   0  0  0  0  0  0  0  0  0  0  0  0
    2.1193   -3.7025    0.0000 O   0  0  0  0  0  0  0  0  0  0  0  0
    2.8338   -2.4650    0.0000 N   0  0  0  0  0  0  0  0  0  0  0  0
    3.5483   -2.8775    0.0000 C   0  0  0  0  0  0  0  0  0  0  0  0
    4.2628   -2.4650    0.0000 C   0  0  0  0  0  0  0  0  0  0  0  0
    4.9772   -2.8775    0.0000 C   0  0  0  0  0  0  0  0  0  0  0  0
    4.9772   -3.7025    0.0000 C   0  0  0  0  0  0  0  0  0  0  0  0
    4.2628   -4.1150    0.0000 C   0  0  0  0  0  0  0  0  0  0  0  0
    4.2628   -4.9400    0.0000 Cl  0  0  0  0  0  0  0  0  0  0  0  0
    3.5483   -3.7025    0.0000 C   0  0  0  0  0  0  0  0  0  0  0  0
    0.3884   -1.7506    0.0000 H   0  0  0  0  0  0  0  0  0  0  0  0
   -0.7385   -2.0525    0.0000 H   0  0  0  0  0  0  0  0  0  0  0  0
   -0.4366   -3.1795    0.0000 H   0  0  0  0  0  0  0  0  0  0  0  0
   -0.0241   -3.2900    0.0000 H   0  0  0  0  0  0  0  0  0  0  0  0
    0.1070   -4.2859    0.0000 H   0  0  0  0  0  0  0  0  0  0  0  0
    1.1029   -4.4170    0.0000 H   0  0  0  0  0  0  0  0  0  0  0  0
    1.4873   -3.4890    0.0000 H   0  0  0  0  0  0  0  0  0  0  0  0
    2.8338   -1.6400    0.0000 H   0  0  0  0  0  0  0  0  0  0  0  0
    4.2628   -1.6400    0.0000 H   0  0  0  0  0  0  0  0  0  0  0  0
    5.6917   -2.4650    0.0000 H   0  0  0  0  0  0  0  0  0  0  0  0
    5.6917   -4.1150    0.0000 H   0  0  0  0  0  0  0  0  0  0  0  0
    2.8338   -4.1150    0.0000 H   0  0  0  0  0  0  0  0  0  0  0  0
  1  2  1  0  0  0  0
  2  3  1  0  0  0  0
  2  4  1  0  0  0  0
  4  5  1  0  0  0  0
  5  6  2  0  0  0  0
  5  7  1  0  0  0  0
  7  8  1  0  0  0  0
  8  9  4  0  0  0  0
  9 10  4  0  0  0  0
 10 11  4  0  0  0  0
 11 12  4  0  0  0  0
 12 13  1  0  0  0  0
 12 14  4  0  0  0  0
  8 14  4  0  0  0  0
  1 15  1  0  0  0  0
  1 16  1  0  0  0  0
  1 17  1  0  0  0  0
  2 18  1  0  0  0  0
  3 19  1  0  0  0  0
  3 20  1  0  0  0  0
  3 21  1  0  0  0  0
  7 22  1  0  0  0  0
  9 23  1  0  0  0  0
 10 24  1  0  0  0  0
 11 25  1  0  0  0  0
 14 26  1  0  0  0  0
M  END
>  <InChIKey>
InChI=1S/C10H12ClNO2/c1-7(2)14-10(13)12-9-5-3-4-8(11)6-9/h3-7H,1-2H3,(H,12,13)

>  <CASRN>
101-21-3

> <Outcome>
0

>  <Index>
1332

>  <StandardizerResult>
Dearomatize (ID: Dearomatize)
Clear Stereo (ID: ClearStereo)
Wedge Clean (ID: WedgeClean)
Mesomerize (ID: Mesomerize)
Tautomerize (ID: Tautomerize)
Aromatize (ID: Aromatize)
Add Explicit Hydrogens (ID: AddExplicitH)
Neutralize (ID: Neutralize)
Clean 2D (ID: Clean2D)

> <knn Distance>
4.0

> <CpId>
1332

$$$$
1339
  Mrv1532301301811342D          

 33 34  0  0  0  0            999 V2000
    2.8432    0.0452    0.0000 C   0  0  0  0  0  0  0  0  0  0  0  0
    2.1287   -0.3673    0.0000 O   0  0  0  0  0  0  0  0  0  0  0  0
    2.1287   -1.1923    0.0000 C   0  0  0  0  0  0  0  0  0  0  0  0
    2.8432   -1.6048    0.0000 C   0  0  0  0  0  0  0  0  0  0  0  0
    2.8432   -2.4298    0.0000 C   0  0  0  0  0  0  0  0  0  0  0  0
    3.5577   -2.8423    0.0000 O   0  0  0  0  0  0  0  0  0  0  0  0
    2.1287   -2.8423    0.0000 C   0  0  0  0  0  0  0  0  0  0  0  0
    1.4143   -2.4298    0.0000 C   0  0  0  0  0  0  0  0  0  0  0  0
    1.4143   -1.6048    0.0000 C   0  0  0  0  0  0  0  0  0  0  0  0
    0.6998   -1.1923    0.0000 S   0  0  0  0  0  0  0  0  0  0  0  0
   -0.0147   -0.7798    0.0000 O   0  0  0  0  0  0  0  0  0  0  0  0
    1.1123   -0.4778    0.0000 O   0  0  0  0  0  0  0  0  0  0  0  0
    0.2873   -1.9067    0.0000 O   0  0  0  0  0  0  0  0  0  0  0  0
    2.1287   -3.6673    0.0000 C   0  0  0  0  0  0  0  0  0  0  0  0
    2.8432   -4.0798    0.0000 O   0  0  0  0  0  0  0  0  0  0  0  0
    1.4143   -4.0798    0.0000 C   0  0  0  0  0  0  0  0  0  0  0  0
    1.4143   -4.9048    0.0000 C   0  0  0  0  0  0  0  0  0  0  0  0
    0.6998   -5.3173    0.0000 C   0  0  0  0  0  0  0  0  0  0  0  0
   -0.0147   -4.9048    0.0000 C   0  0  0  0  0  0  0  0  0  0  0  0
   -0.0147   -4.0798    0.0000 C   0  0  0  0  0  0  0  0  0  0  0  0
    0.6998   -3.6673    0.0000 C   0  0  0  0  0  0  0  0  0  0  0  0
    3.2557   -0.6692    0.0000 H   0  0  0  0  0  0  0  0  0  0  0  0
    3.5577    0.4577    0.0000 H   0  0  0  0  0  0  0  0  0  0  0  0
    2.4307    0.7597    0.0000 H   0  0  0  0  0  0  0  0  0  0  0  0
    3.5577   -1.1923    0.0000 H   0  0  0  0  0  0  0  0  0  0  0  0
    3.5577   -3.6673    0.0000 H   0  0  0  0  0  0  0  0  0  0  0  0
    0.6998   -2.8423    0.0000 H   0  0  0  0  0  0  0  0  0  0  0  0
   -0.0147    0.0452    0.0000 H   0  0  0  0  0  0  0  0  0  0  0  0
    2.1287   -5.3173    0.0000 H   0  0  0  0  0  0  0  0  0  0  0  0
    0.6998   -6.1423    0.0000 H   0  0  0  0  0  0  0  0  0  0  0  0
   -0.7292   -5.3173    0.0000 H   0  0  0  0  0  0  0  0  0  0  0  0
   -0.7292   -3.6673    0.0000 H   0  0  0  0  0  0  0  0  0  0  0  0
    1.4143   -3.2548    0.0000 H   0  0  0  0  0  0  0  0  0  0  0  0
  1  2  1  0  0  0  0
  2  3  1  0  0  0  0
  3  4  4  0  0  0  0
  4  5  4  0  0  0  0
  5  6  1  0  0  0  0
  5  7  4  0  0  0  0
  7  8  4  0  0  0  0
  8  9  4  0  0  0  0
  3  9  4  0  0  0  0
  9 10  1  0  0  0  0
 10 11  1  0  0  0  0
 10 12  2  0  0  0  0
 10 13  2  0  0  0  0
  7 14  1  0  0  0  0
 14 15  2  0  0  0  0
 14 16  1  0  0  0  0
 16 17  4  0  0  0  0
 17 18  4  0  0  0  0
 18 19  4  0  0  0  0
 19 20  4  0  0  0  0
 20 21  4  0  0  0  0
 16 21  4  0  0  0  0
  1 22  1  0  0  0  0
  1 23  1  0  0  0  0
  1 24  1  0  0  0  0
  4 25  1  0  0  0  0
  6 26  1  0  0  0  0
  8 27  1  0  0  0  0
 11 28  1  0  0  0  0
 17 29  1  0  0  0  0
 18 30  1  0  0  0  0
 19 31  1  0  0  0  0
 20 32  1  0  0  0  0
 21 33  1  0  0  0  0
M  END
>  <InChIKey>
InChI=1S/C14H12O6S/c1-20-12-8-11(15)10(7-13(12)21(17,18)19)14(16)9-5-3-2-4-6-9/h2-8,15H,1H3,(H,17,18,19)

>  <CASRN>
4065-45-6 6628-37-1

> <Outcome>
0

>  <Index>
1339

>  <StandardizerResult>
Dearomatize (ID: Dearomatize)
Clear Stereo (ID: ClearStereo)
Wedge Clean (ID: WedgeClean)
Mesomerize (ID: Mesomerize)
Tautomerize (ID: Tautomerize)
Aromatize (ID: Aromatize)
Add Explicit Hydrogens (ID: AddExplicitH)
Neutralize (ID: Neutralize)
Clean 2D (ID: Clean2D)

> <knn Distance>
4.0

> <CpId>
1339

$$$$
1351
  Mrv1532301301811342D          

 32 32  0  0  0  0            999 V2000
   -1.4589   -2.4857    0.0000 C   0  0  0  0  0  0  0  0  0  0  0  0
   -0.7445   -2.0732    0.0000 C   0  0  0  0  0  0  0  0  0  0  0  0
   -0.0300   -2.4857    0.0000 N   0  0  0  0  0  0  0  0  0  0  0  0
    0.6845   -2.0732    0.0000 C   0  0  0  0  0  0  0  0  0  0  0  0
    0.6845   -1.2482    0.0000 C   0  0  0  0  0  0  0  0  0  0  0  0
    1.3989   -2.4857    0.0000 C   0  0  0  0  0  0  0  0  0  0  0  0
    2.1134   -2.0732    0.0000 C   0  0  0  0  0  0  0  0  0  0  0  0
    2.1134   -1.2482    0.0000 C   0  0  0  0  0  0  0  0  0  0  0  0
    2.8279   -0.8357    0.0000 C   0  0  0  0  0  0  0  0  0  0  0  0
    3.5424   -1.2482    0.0000 C   0  0  0  0  0  0  0  0  0  0  0  0
    3.5424   -2.0732    0.0000 C   0  0  0  0  0  0  0  0  0  0  0  0
    2.8279   -2.4857    0.0000 C   0  0  0  0  0  0  0  0  0  0  0  0
    4.2568   -2.4857    0.0000 C   0  0  0  0  0  0  0  0  0  0  0  0
    4.9713   -2.8982    0.0000 F   0  0  0  0  0  0  0  0  0  0  0  0
    3.8443   -3.2002    0.0000 F   0  0  0  0  0  0  0  0  0  0  0  0
    4.6693   -1.7713    0.0000 F   0  0  0  0  0  0  0  0  0  0  0  0
   -1.8714   -1.7713    0.0000 H   0  0  0  0  0  0  0  0  0  0  0  0
   -2.1734   -2.8982    0.0000 H   0  0  0  0  0  0  0  0  0  0  0  0
   -1.0464   -3.2002    0.0000 H   0  0  0  0  0  0  0  0  0  0  0  0
   -0.3742   -1.3360    0.0000 H   0  0  0  0  0  0  0  0  0  0  0  0
   -1.1147   -1.3360    0.0000 H   0  0  0  0  0  0  0  0  0  0  0  0
   -0.0300   -3.3107    0.0000 H   0  0  0  0  0  0  0  0  0  0  0  0
   -0.0300   -1.6607    0.0000 H   0  0  0  0  0  0  0  0  0  0  0  0
    1.4814   -1.4618    0.0000 H   0  0  0  0  0  0  0  0  0  0  0  0
    1.0970   -0.5338    0.0000 H   0  0  0  0  0  0  0  0  0  0  0  0
    0.1011   -0.6649    0.0000 H   0  0  0  0  0  0  0  0  0  0  0  0
    1.0287   -3.2230    0.0000 H   0  0  0  0  0  0  0  0  0  0  0  0
    1.7692   -3.2230    0.0000 H   0  0  0  0  0  0  0  0  0  0  0  0
    1.7735   -0.4965    0.0000 H   0  0  0  0  0  0  0  0  0  0  0  0
    2.8279   -0.0107    0.0000 H   0  0  0  0  0  0  0  0  0  0  0  0
    4.2568   -0.8357    0.0000 H   0  0  0  0  0  0  0  0  0  0  0  0
    2.8279   -3.3107    0.0000 H   0  0  0  0  0  0  0  0  0  0  0  0
  1  2  1  0  0  0  0
  2  3  1  0  0  0  0
  3  4  1  0  0  0  0
  4  5  1  0  0  0  0
  4  6  1  0  0  0  0
  6  7  1  0  0  0  0
  7  8  4  0  0  0  0
  8  9  4  0  0  0  0
  9 10  4  0  0  0  0
 10 11  4  0  0  0  0
 11 12  4  0  0  0  0
  7 12  4  0  0  0  0
 11 13  1  0  0  0  0
 13 14  1  0  0  0  0
 13 15  1  0  0  0  0
 13 16  1  0  0  0  0
  1 17  1  0  0  0  0
  1 18  1  0  0  0  0
  1 19  1  0  0  0  0
  2 20  1  0  0  0  0
  2 21  1  0  0  0  0
  3 22  1  0  0  0  0
  4 23  1  0  0  0  0
  5 24  1  0  0  0  0
  5 25  1  0  0  0  0
  5 26  1  0  0  0  0
  6 27  1  0  0  0  0
  6 28  1  0  0  0  0
  8 29  1  0  0  0  0
  9 30  1  0  0  0  0
 10 31  1  0  0  0  0
 12 32  1  0  0  0  0
M  END
>  <InChIKey>
InChI=1S/C12H16F3N/c1-3-16-9(2)7-10-5-4-6-11(8-10)12(13,14)15/h4-6,8-9,16H,3,7H2,1-2H3

>  <CASRN>
458-24-2

> <Outcome>
0

>  <Index>
1351

>  <StandardizerResult>
Dearomatize (ID: Dearomatize)
Clear Stereo (ID: ClearStereo)
Wedge Clean (ID: WedgeClean)
Mesomerize (ID: Mesomerize)
Tautomerize (ID: Tautomerize)
Aromatize (ID: Aromatize)
Add Explicit Hydrogens (ID: AddExplicitH)
Neutralize (ID: Neutralize)
Clean 2D (ID: Clean2D)

> <knn Distance>
4.0

> <CpId>
1351

$$$$
1369
  Mrv1532301301811342D          

 26 26  0  0  0  0            999 V2000
   -0.7151    3.7122    0.0000 C   0  0  0  0  0  0  0  0  0  0  0  0
   -0.0006    3.2997    0.0000 C   0  0  0  0  0  0  0  0  0  0  0  0
   -0.0006    2.4747    0.0000 C   0  0  0  0  0  0  0  0  0  0  0  0
    0.7139    2.0622    0.0000 C   0  0  0  0  0  0  0  0  0  0  0  0
    0.7139    1.2372    0.0000 C   0  0  0  0  0  0  0  0  0  0  0  0
    1.4283    0.8247    0.0000 C   0  0  0  0  0  0  0  0  0  0  0  0
    1.4283   -0.0003    0.0000 C   0  0  0  0  0  0  0  0  0  0  0  0
    0.7139   -0.4128    0.0000 C   0  0  0  0  0  0  0  0  0  0  0  0
   -0.0006   -0.0003    0.0000 N   0  0  0  0  0  0  0  0  0  0  0  0
   -0.0006    0.8247    0.0000 C   0  0  0  0  0  0  0  0  0  0  0  0
    0.7139   -1.2378    0.0000 C   0  0  0  0  0  0  0  0  0  0  0  0
    1.4283   -1.6503    0.0000 O   0  0  0  0  0  0  0  0  0  0  0  0
   -0.0006   -1.6503    0.0000 O   0  0  0  0  0  0  0  0  0  0  0  0
   -0.3026    4.4266    0.0000 H   0  0  0  0  0  0  0  0  0  0  0  0
   -1.4295    4.1247    0.0000 H   0  0  0  0  0  0  0  0  0  0  0  0
   -1.1276    2.9977    0.0000 H   0  0  0  0  0  0  0  0  0  0  0  0
    0.8230    3.3476    0.0000 H   0  0  0  0  0  0  0  0  0  0  0  0
    0.4527    3.9889    0.0000 H   0  0  0  0  0  0  0  0  0  0  0  0
   -0.8242    2.4267    0.0000 H   0  0  0  0  0  0  0  0  0  0  0  0
   -0.4539    1.7854    0.0000 H   0  0  0  0  0  0  0  0  0  0  0  0
    1.5375    2.1101    0.0000 H   0  0  0  0  0  0  0  0  0  0  0  0
    1.1672    2.7514    0.0000 H   0  0  0  0  0  0  0  0  0  0  0  0
    2.1428    1.2372    0.0000 H   0  0  0  0  0  0  0  0  0  0  0  0
    2.1428   -0.4128    0.0000 H   0  0  0  0  0  0  0  0  0  0  0  0
   -0.7151    1.2372    0.0000 H   0  0  0  0  0  0  0  0  0  0  0  0
    1.4283   -2.4753    0.0000 H   0  0  0  0  0  0  0  0  0  0  0  0
  1  2  1  0  0  0  0
  2  3  1  0  0  0  0
  3  4  1  0  0  0  0
  4  5  1  0  0  0  0
  5  6  4  0  0  0  0
  6  7  4  0  0  0  0
  7  8  4  0  0  0  0
  8  9  4  0  0  0  0
  9 10  4  0  0  0  0
  5 10  4  0  0  0  0
  8 11  1  0  0  0  0
 11 12  1  0  0  0  0
 11 13  2  0  0  0  0
  1 14  1  0  0  0  0
  1 15  1  0  0  0  0
  1 16  1  0  0  0  0
  2 17  1  0  0  0  0
  2 18  1  0  0  0  0
  3 19  1  0  0  0  0
  3 20  1  0  0  0  0
  4 21  1  0  0  0  0
  4 22  1  0  0  0  0
  6 23  1  0  0  0  0
  7 24  1  0  0  0  0
 10 25  1  0  0  0  0
 12 26  1  0  0  0  0
M  END
>  <InChIKey>
InChI=1S/C10H13NO2/c1-2-3-4-8-5-6-9(10(12)13)11-7-8/h5-7H,2-4H2,1H3,(H,12,13)

>  <CASRN>
536-69-6

> <Outcome>
0

>  <Index>
1369

>  <StandardizerResult>
Dearomatize (ID: Dearomatize)
Clear Stereo (ID: ClearStereo)
Wedge Clean (ID: WedgeClean)
Mesomerize (ID: Mesomerize)
Tautomerize (ID: Tautomerize)
Aromatize (ID: Aromatize)
Add Explicit Hydrogens (ID: AddExplicitH)
Neutralize (ID: Neutralize)
Clean 2D (ID: Clean2D)

> <knn Distance>
4.0

> <CpId>
1369

$$$$
1474
  Mrv1532301301811342D          

 31 32  0  0  0  0            999 V2000
    3.2576   -1.5836    0.0000 C   0  0  0  0  0  0  0  0  0  0  0  0
    2.8451   -0.8691    0.0000 C   0  0  0  0  0  0  0  0  0  0  0  0
    2.4326   -0.1547    0.0000 C   0  0  0  0  0  0  0  0  0  0  0  0
    2.1306   -1.2816    0.0000 C   0  0  0  0  0  0  0  0  0  0  0  0
    1.4162   -0.8691    0.0000 O   0  0  0  0  0  0  0  0  0  0  0  0
    2.1306   -2.1066    0.0000 C   0  0  0  0  0  0  0  0  0  0  0  0
    2.8451   -2.5191    0.0000 C   0  0  0  0  0  0  0  0  0  0  0  0
    2.8451   -3.3441    0.0000 C   0  0  0  0  0  0  0  0  0  0  0  0
    2.1306   -3.7566    0.0000 C   0  0  0  0  0  0  0  0  0  0  0  0
    1.4162   -3.3441    0.0000 N   0  0  0  0  0  0  0  0  0  0  0  0
    1.4162   -2.5191    0.0000 C   0  0  0  0  0  0  0  0  0  0  0  0
    3.5596   -0.4566    0.0000 C   0  0  0  0  0  0  0  0  0  0  0  0
    3.5596    0.3684    0.0000 C   0  0  0  0  0  0  0  0  0  0  0  0
    4.2740    0.7809    0.0000 C   0  0  0  0  0  0  0  0  0  0  0  0
    4.9885    0.3684    0.0000 C   0  0  0  0  0  0  0  0  0  0  0  0
    4.9885   -0.4566    0.0000 N   0  0  0  0  0  0  0  0  0  0  0  0
    4.2740   -0.8691    0.0000 C   0  0  0  0  0  0  0  0  0  0  0  0
    2.5431   -1.9961    0.0000 H   0  0  0  0  0  0  0  0  0  0  0  0
    3.6701   -2.2981    0.0000 H   0  0  0  0  0  0  0  0  0  0  0  0
    3.9721   -1.1711    0.0000 H   0  0  0  0  0  0  0  0  0  0  0  0
    3.1471    0.2578    0.0000 H   0  0  0  0  0  0  0  0  0  0  0  0
    2.0201    0.5598    0.0000 H   0  0  0  0  0  0  0  0  0  0  0  0
    1.7181   -0.5672    0.0000 H   0  0  0  0  0  0  0  0  0  0  0  0
    3.1608   -1.7569    0.0000 H   0  0  0  0  0  0  0  0  0  0  0  0
    3.5596   -3.7566    0.0000 H   0  0  0  0  0  0  0  0  0  0  0  0
    2.1306   -4.5816    0.0000 H   0  0  0  0  0  0  0  0  0  0  0  0
    0.7017   -2.1066    0.0000 H   0  0  0  0  0  0  0  0  0  0  0  0
    3.2439    1.1306    0.0000 H   0  0  0  0  0  0  0  0  0  0  0  0
    4.2740    1.6059    0.0000 H   0  0  0  0  0  0  0  0  0  0  0  0
    5.7030    0.7809    0.0000 H   0  0  0  0  0  0  0  0  0  0  0  0
    4.7763   -1.5237    0.0000 H   0  0  0  0  0  0  0  0  0  0  0  0
  1  2  1  0  0  0  0
  2  3  1  0  0  0  0
  2  4  1  0  0  0  0
  4  5  2  0  0  0  0
  4  6  1  0  0  0  0
  6  7  4  0  0  0  0
  7  8  4  0  0  0  0
  8  9  4  0  0  0  0
  9 10  4  0  0  0  0
 10 11  4  0  0  0  0
  6 11  4  0  0  0  0
  2 12  1  0  0  0  0
 12 13  4  0  0  0  0
 13 14  4  0  0  0  0
 14 15  4  0  0  0  0
 15 16  4  0  0  0  0
 16 17  4  0  0  0  0
 12 17  4  0  0  0  0
  1 18  1  0  0  0  0
  1 19  1  0  0  0  0
  1 20  1  0  0  0  0
  3 21  1  0  0  0  0
  3 22  1  0  0  0  0
  3 23  1  0  0  0  0
  7 24  1  0  0  0  0
  8 25  1  0  0  0  0
  9 26  1  0  0  0  0
 11 27  1  0  0  0  0
 13 28  1  0  0  0  0
 14 29  1  0  0  0  0
 15 30  1  0  0  0  0
 17 31  1  0  0  0  0
M  END
>  <InChIKey>
InChI=1S/C14H14N2O/c1-14(2,12-6-4-8-16-10-12)13(17)11-5-3-7-15-9-11/h3-10H,1-2H3

>  <CASRN>
54-36-4

> <Outcome>
0

>  <Index>
1474

>  <StandardizerResult>
Dearomatize (ID: Dearomatize)
Clear Stereo (ID: ClearStereo)
Wedge Clean (ID: WedgeClean)
Mesomerize (ID: Mesomerize)
Tautomerize (ID: Tautomerize)
Aromatize (ID: Aromatize)
Add Explicit Hydrogens (ID: AddExplicitH)
Neutralize (ID: Neutralize)
Clean 2D (ID: Clean2D)

> <knn Distance>
4.0

> <CpId>
1474

$$$$
1535
  Mrv1532301301811342D          

 52 55  0  0  0  0            999 V2000
    2.2569   -2.5988    0.0000 C   0  0  0  0  0  0  0  0  0  0  0  0
    3.0691   -2.4536    0.0000 C   0  0  0  0  0  0  0  0  0  0  0  0
    3.1286   -3.2765    0.0000 O   0  0  0  0  0  0  0  0  0  0  0  0
    2.8398   -1.6611    0.0000 C   0  0  0  0  0  0  0  0  0  0  0  0
    3.5226   -1.1981    0.0000 C   0  0  0  0  0  0  0  0  0  0  0  0
    4.1739   -1.7045    0.0000 C   0  0  0  0  0  0  0  0  0  0  0  0
    4.9860   -1.5593    0.0000 C   0  0  0  0  0  0  0  0  0  0  0  0
    5.2663   -0.7834    0.0000 C   0  0  0  0  0  0  0  0  0  0  0  0
    6.0785   -0.6381    0.0000 C   0  0  0  0  0  0  0  0  0  0  0  0
    6.6103   -1.2689    0.0000 C   0  0  0  0  0  0  0  0  0  0  0  0
    7.4224   -1.1236    0.0000 C   0  0  0  0  0  0  0  0  0  0  0  0
    7.9542   -1.7543    0.0000 C   0  0  0  0  0  0  0  0  0  0  0  0
    8.7663   -1.6091    0.0000 O   0  0  0  0  0  0  0  0  0  0  0  0
    7.6739   -2.5303    0.0000 C   0  0  0  0  0  0  0  0  0  0  0  0
    6.8618   -2.6755    0.0000 C   0  0  0  0  0  0  0  0  0  0  0  0
    6.3300   -2.0448    0.0000 C   0  0  0  0  0  0  0  0  0  0  0  0
    6.0497   -2.8207    0.0000 C   0  0  0  0  0  0  0  0  0  0  0  0
    5.5179   -2.1900    0.0000 C   0  0  0  0  0  0  0  0  0  0  0  0
    5.2376   -2.9659    0.0000 C   0  0  0  0  0  0  0  0  0  0  0  0
    4.4254   -3.1111    0.0000 C   0  0  0  0  0  0  0  0  0  0  0  0
    3.8936   -2.4804    0.0000 C   0  0  0  0  0  0  0  0  0  0  0  0
    3.5338   -3.2228    0.0000 C   0  0  0  0  0  0  0  0  0  0  0  0
    2.1117   -1.7867    0.0000 H   0  0  0  0  0  0  0  0  0  0  0  0
    1.4448   -2.7440    0.0000 H   0  0  0  0  0  0  0  0  0  0  0  0
    2.4022   -3.4109    0.0000 H   0  0  0  0  0  0  0  0  0  0  0  0
    3.2579   -4.0913    0.0000 H   0  0  0  0  0  0  0  0  0  0  0  0
    2.5312   -0.8960    0.0000 H   0  0  0  0  0  0  0  0  0  0  0  0
    2.4021   -2.3605    0.0000 H   0  0  0  0  0  0  0  0  0  0  0  0
    3.9334   -0.4827    0.0000 H   0  0  0  0  0  0  0  0  0  0  0  0
    3.1592   -0.4575    0.0000 H   0  0  0  0  0  0  0  0  0  0  0  0
    4.7057   -2.3352    0.0000 H   0  0  0  0  0  0  0  0  0  0  0  0
    4.4542   -0.9286    0.0000 H   0  0  0  0  0  0  0  0  0  0  0  0
    5.4076    0.0295    0.0000 H   0  0  0  0  0  0  0  0  0  0  0  0
    4.8521   -0.0699    0.0000 H   0  0  0  0  0  0  0  0  0  0  0  0
    6.8429   -0.3280    0.0000 H   0  0  0  0  0  0  0  0  0  0  0  0
    6.4505    0.0982    0.0000 H   0  0  0  0  0  0  0  0  0  0  0  0
    7.7027   -0.3477    0.0000 H   0  0  0  0  0  0  0  0  0  0  0  0
    7.8661   -3.3326    0.0000 H   0  0  0  0  0  0  0  0  0  0  0  0
    8.4322   -2.8552    0.0000 H   0  0  0  0  0  0  0  0  0  0  0  0
    6.7205   -3.4883    0.0000 H   0  0  0  0  0  0  0  0  0  0  0  0
    7.2760   -3.3890    0.0000 H   0  0  0  0  0  0  0  0  0  0  0  0
    5.4307   -3.3662    0.0000 H   0  0  0  0  0  0  0  0  0  0  0  0
    5.8035   -3.6081    0.0000 H   0  0  0  0  0  0  0  0  0  0  0  0
    6.2477   -3.6216    0.0000 H   0  0  0  0  0  0  0  0  0  0  0  0
    5.7982   -1.4141    0.0000 H   0  0  0  0  0  0  0  0  0  0  0  0
    4.6577   -3.5528    0.0000 H   0  0  0  0  0  0  0  0  0  0  0  0
    5.1022   -3.7797    0.0000 H   0  0  0  0  0  0  0  0  0  0  0  0
    3.8320   -3.6843    0.0000 H   0  0  0  0  0  0  0  0  0  0  0  0
    4.2946   -3.9257    0.0000 H   0  0  0  0  0  0  0  0  0  0  0  0
    3.6433   -4.0405    0.0000 H   0  0  0  0  0  0  0  0  0  0  0  0
    2.7901   -2.8656    0.0000 H   0  0  0  0  0  0  0  0  0  0  0  0
    2.9014   -3.7527    0.0000 H   0  0  0  0  0  0  0  0  0  0  0  0
  1  2  1  0  0  0  0
  2  3  1  0  0  0  0
  2  4  1  0  0  0  0
  4  5  1  0  0  0  0
  5  6  1  0  0  0  0
  6  7  1  0  0  0  0
  7  8  1  0  0  0  0
  8  9  1  0  0  0  0
  9 10  1  0  0  0  0
 10 11  2  0  0  0  0
 11 12  1  0  0  0  0
 12 13  2  0  0  0  0
 12 14  1  0  0  0  0
 14 15  1  0  0  0  0
 15 16  1  0  0  0  0
 10 16  1  0  0  0  0
 16 17  1  0  0  0  0
 16 18  1  0  0  0  0
  7 18  1  0  0  0  0
 18 19  1  0  0  0  0
 19 20  1  0  0  0  0
 20 21  1  0  0  0  0
  2 21  1  0  0  0  0
  6 21  1  0  0  0  0
 21 22  1  0  0  0  0
  1 23  1  0  0  0  0
  1 24  1  0  0  0  0
  1 25  1  0  0  0  0
  3 26  1  0  0  0  0
  4 27  1  0  0  0  0
  4 28  1  0  0  0  0
  5 29  1  0  0  0  0
  5 30  1  0  0  0  0
  6 31  1  0  0  0  0
  7 32  1  0  0  0  0
  8 33  1  0  0  0  0
  8 34  1  0  0  0  0
  9 35  1  0  0  0  0
  9 36  1  0  0  0  0
 11 37  1  0  0  0  0
 14 38  1  0  0  0  0
 14 39  1  0  0  0  0
 15 40  1  0  0  0  0
 15 41  1  0  0  0  0
 17 42  1  0  0  0  0
 17 43  1  0  0  0  0
 17 44  1  0  0  0  0
 18 45  1  0  0  0  0
 19 46  1  0  0  0  0
 19 47  1  0  0  0  0
 20 48  1  0  0  0  0
 20 49  1  0  0  0  0
 22 50  1  0  0  0  0
 22 51  1  0  0  0  0
 22 52  1  0  0  0  0
M  END
>  <InChIKey>
InChI=1S/C20H30O2/c1-18-9-6-14(21)12-13(18)4-5-15-16(18)7-10-19(2)17(15)8-11-20(19,3)22/h12,15-17,22H,4-11H2,1-3H3

>  <CASRN>
58-18-4

> <Outcome>
0

>  <Index>
1535

>  <StandardizerResult>
Clear Stereo (ID: ClearStereo)
Wedge Clean (ID: WedgeClean)
Mesomerize (ID: Mesomerize)
Tautomerize (ID: Tautomerize)
Add Explicit Hydrogens (ID: AddExplicitH)
Neutralize (ID: Neutralize)
Clean 2D (ID: Clean2D)

> <knn Distance>
4.0

> <CpId>
1535

$$$$
1549
  Mrv1532301301811342D          

 69 69  0  0  0  0            999 V2000
    2.7852   -6.6542    0.0000 C   0  0  0  0  0  0  0  0  0  0  0  0
    2.1721   -6.1021    0.0000 C   0  0  0  0  0  0  0  0  0  0  0  0
    2.3436   -5.2952    0.0000 C   0  0  0  0  0  0  0  0  0  0  0  0
    1.7305   -4.7431    0.0000 C   0  0  0  0  0  0  0  0  0  0  0  0
    1.9021   -3.9361    0.0000 C   0  0  0  0  0  0  0  0  0  0  0  0
    2.7090   -4.1077    0.0000 C   0  0  0  0  0  0  0  0  0  0  0  0
    1.0951   -3.7646    0.0000 O   0  0  0  0  0  0  0  0  0  0  0  0
    0.8402   -2.9800    0.0000 C   0  0  0  0  0  0  0  0  0  0  0  0
    2.0736   -3.1292    0.0000 C   0  0  0  0  0  0  0  0  0  0  0  0
    2.8582   -2.8742    0.0000 O   0  0  0  0  0  0  0  0  0  0  0  0
    1.4605   -2.5771    0.0000 C   0  0  0  0  0  0  0  0  0  0  0  0
    1.6320   -1.7702    0.0000 C   0  0  0  0  0  0  0  0  0  0  0  0
    1.0189   -1.2181    0.0000 C   0  0  0  0  0  0  0  0  0  0  0  0
    0.2120   -1.3897    0.0000 C   0  0  0  0  0  0  0  0  0  0  0  0
   -0.1236   -2.1433    0.0000 O   0  0  0  0  0  0  0  0  0  0  0  0
   -0.2005   -0.6752    0.0000 C   0  0  0  0  0  0  0  0  0  0  0  0
    0.3515   -0.0621    0.0000 C   0  0  0  0  0  0  0  0  0  0  0  0
    0.1800    0.7449    0.0000 O   0  0  0  0  0  0  0  0  0  0  0  0
    1.1052   -0.3977    0.0000 C   0  0  0  0  0  0  0  0  0  0  0  0
    1.8196    0.0148    0.0000 C   0  0  0  0  0  0  0  0  0  0  0  0
    2.5341   -0.3977    0.0000 C   0  0  0  0  0  0  0  0  0  0  0  0
    3.2486    0.0148    0.0000 C   0  0  0  0  0  0  0  0  0  0  0  0
    3.9631   -0.3977    0.0000 C   0  0  0  0  0  0  0  0  0  0  0  0
    4.6775    0.0148    0.0000 C   0  0  0  0  0  0  0  0  0  0  0  0
    5.3920   -0.3977    0.0000 C   0  0  0  0  0  0  0  0  0  0  0  0
    6.1065    0.0148    0.0000 C   0  0  0  0  0  0  0  0  0  0  0  0
    6.1065    0.8398    0.0000 O   0  0  0  0  0  0  0  0  0  0  0  0
    6.8209   -0.3977    0.0000 O   0  0  0  0  0  0  0  0  0  0  0  0
    7.5354    0.0148    0.0000 C   0  0  0  0  0  0  0  0  0  0  0  0
    2.2332   -7.2673    0.0000 H   0  0  0  0  0  0  0  0  0  0  0  0
    3.3983   -7.2062    0.0000 H   0  0  0  0  0  0  0  0  0  0  0  0
    3.3372   -6.0411    0.0000 H   0  0  0  0  0  0  0  0  0  0  0  0
    1.3565   -5.9778    0.0000 H   0  0  0  0  0  0  0  0  0  0  0  0
    1.5854   -6.6821    0.0000 H   0  0  0  0  0  0  0  0  0  0  0  0
    3.1592   -5.4195    0.0000 H   0  0  0  0  0  0  0  0  0  0  0  0
    2.9304   -4.7152    0.0000 H   0  0  0  0  0  0  0  0  0  0  0  0
    0.9150   -4.6188    0.0000 H   0  0  0  0  0  0  0  0  0  0  0  0
    1.1438   -5.3231    0.0000 H   0  0  0  0  0  0  0  0  0  0  0  0
    3.5203   -4.2578    0.0000 H   0  0  0  0  0  0  0  0  0  0  0  0
    3.2502   -3.4850    0.0000 H   0  0  0  0  0  0  0  0  0  0  0  0
    2.4472   -3.3253    0.0000 H   0  0  0  0  0  0  0  0  0  0  0  0
    0.7432   -2.1607    0.0000 H   0  0  0  0  0  0  0  0  0  0  0  0
    0.0625   -2.7046    0.0000 H   0  0  0  0  0  0  0  0  0  0  0  0
    0.2492   -3.5557    0.0000 H   0  0  0  0  0  0  0  0  0  0  0  0
    2.2451   -2.3222    0.0000 H   0  0  0  0  0  0  0  0  0  0  0  0
    3.4870   -2.3401    0.0000 H   0  0  0  0  0  0  0  0  0  0  0  0
    1.3958   -3.3996    0.0000 H   0  0  0  0  0  0  0  0  0  0  0  0
    2.1841   -1.1571    0.0000 H   0  0  0  0  0  0  0  0  0  0  0  0
    1.7891   -0.9225    0.0000 H   0  0  0  0  0  0  0  0  0  0  0  0
   -0.6119   -1.4328    0.0000 H   0  0  0  0  0  0  0  0  0  0  0  0
   -0.8624   -2.5104    0.0000 H   0  0  0  0  0  0  0  0  0  0  0  0
   -0.6529    0.0147    0.0000 H   0  0  0  0  0  0  0  0  0  0  0  0
   -1.0019   -0.4791    0.0000 H   0  0  0  0  0  0  0  0  0  0  0  0
    1.0620    0.4262    0.0000 H   0  0  0  0  0  0  0  0  0  0  0  0
    2.4462    0.5515    0.0000 H   0  0  0  0  0  0  0  0  0  0  0  0
    1.9499    0.8295    0.0000 H   0  0  0  0  0  0  0  0  0  0  0  0
    2.8631   -1.1542    0.0000 H   0  0  0  0  0  0  0  0  0  0  0  0
    3.3176   -0.6560    0.0000 H   0  0  0  0  0  0  0  0  0  0  0  0
    3.9720    0.4115    0.0000 H   0  0  0  0  0  0  0  0  0  0  0  0
    3.2848    0.8390    0.0000 H   0  0  0  0  0  0  0  0  0  0  0  0
    4.0349   -1.2195    0.0000 H   0  0  0  0  0  0  0  0  0  0  0  0
    4.5646   -0.9622    0.0000 H   0  0  0  0  0  0  0  0  0  0  0  0
    5.3072    0.5479    0.0000 H   0  0  0  0  0  0  0  0  0  0  0  0
    4.8151    0.8283    0.0000 H   0  0  0  0  0  0  0  0  0  0  0  0
    5.0217   -1.1349    0.0000 H   0  0  0  0  0  0  0  0  0  0  0  0
    5.7623   -1.1349    0.0000 H   0  0  0  0  0  0  0  0  0  0  0  0
    7.9479   -0.6996    0.0000 H   0  0  0  0  0  0  0  0  0  0  0  0
    8.2499    0.4273    0.0000 H   0  0  0  0  0  0  0  0  0  0  0  0
    7.1229    0.7293    0.0000 H   0  0  0  0  0  0  0  0  0  0  0  0
  1  2  1  0  0  0  0
  2  3  1  0  0  0  0
  3  4  1  0  0  0  0
  4  5  1  0  0  0  0
  5  6  1  0  0  0  0
  5  7  1  0  0  0  0
  7  8  1  0  0  0  0
  5  9  1  0  0  0  0
  9 10  1  0  0  0  0
 11  9  1  4  0  0  0
 11 12  2  0  0  0  0
 12 13  1  0  0  0  0
 13 14  1  0  0  0  0
 14 15  1  0  0  0  0
 14 16  1  0  0  0  0
 16 17  1  0  0  0  0
 17 18  2  0  0  0  0
 17 19  1  0  0  0  0
 13 19  1  0  0  0  0
 19 20  1  0  0  0  0
 20 21  1  0  0  0  0
 21 22  1  0  0  0  0
 22 23  1  0  0  0  0
 23 24  1  0  0  0  0
 24 25  1  0  0  0  0
 25 26  1  0  0  0  0
 26 27  2  0  0  0  0
 26 28  1  0  0  0  0
 28 29  1  0  0  0  0
  1 30  1  0  0  0  0
  1 31  1  0  0  0  0
  1 32  1  0  0  0  0
  2 33  1  0  0  0  0
  2 34  1  0  0  0  0
  3 35  1  0  0  0  0
  3 36  1  0  0  0  0
  4 37  1  0  0  0  0
  4 38  1  0  0  0  0
  6 39  1  0  0  0  0
  6 40  1  0  0  0  0
  6 41  1  0  0  0  0
  8 42  1  0  0  0  0
  8 43  1  0  0  0  0
  8 44  1  0  0  0  0
  9 45  1  0  0  0  0
 10 46  1  0  0  0  0
 11 47  1  0  0  0  0
 12 48  1  0  0  0  0
 13 49  1  0  0  0  0
 14 50  1  0  0  0  0
 15 51  1  0  0  0  0
 16 52  1  0  0  0  0
 16 53  1  0  0  0  0
 19 54  1  0  0  0  0
 20 55  1  0  0  0  0
 20 56  1  0  0  0  0
 21 57  1  0  0  0  0
 21 58  1  0  0  0  0
 22 59  1  0  0  0  0
 22 60  1  0  0  0  0
 23 61  1  0  0  0  0
 23 62  1  0  0  0  0
 24 63  1  0  0  0  0
 24 64  1  0  0  0  0
 25 65  1  0  0  0  0
 25 66  1  0  0  0  0
 29 67  1  0  0  0  0
 29 68  1  0  0  0  0
 29 69  1  0  0  0  0
M  END
>  <InChIKey>
InChI=1S/C23H40O6/c1-5-6-15-23(2,29-4)21(26)14-13-18-17(19(24)16-20(18)25)11-9-7-8-10-12-22(27)28-3/h13-14,17-18,20-21,25-26H,5-12,15-16H2,1-4H3

>  <CASRN>
88980-20-5

> <Outcome>
0

>  <Index>
1549

>  <StandardizerResult>
Clear Stereo (ID: ClearStereo)
Wedge Clean (ID: WedgeClean)
Mesomerize (ID: Mesomerize)
Tautomerize (ID: Tautomerize)
Add Explicit Hydrogens (ID: AddExplicitH)
Neutralize (ID: Neutralize)
Clean 2D (ID: Clean2D)

> <knn Distance>
4.0

> <CpId>
1549

$$$$
1575
  Mrv1532301301811342D          

 63 63  0  0  0  0            999 V2000
   -2.8911   -2.4882    0.0000 C   0  0  0  0  0  0  0  0  0  0  0  0
   -2.7196   -1.6812    0.0000 C   0  0  0  0  0  0  0  0  0  0  0  0
   -1.9349   -1.4263    0.0000 C   0  0  0  0  0  0  0  0  0  0  0  0
   -1.7634   -0.6193    0.0000 C   0  0  0  0  0  0  0  0  0  0  0  0
   -0.9788   -0.3644    0.0000 C   0  0  0  0  0  0  0  0  0  0  0  0
   -0.8073    0.4426    0.0000 C   0  0  0  0  0  0  0  0  0  0  0  0
   -0.0003    0.2711    0.0000 C   0  0  0  0  0  0  0  0  0  0  0  0
   -1.6142    0.6141    0.0000 O   0  0  0  0  0  0  0  0  0  0  0  0
   -0.6357    1.2496    0.0000 C   0  0  0  0  0  0  0  0  0  0  0  0
    0.1489    1.5045    0.0000 C   0  0  0  0  0  0  0  0  0  0  0  0
    0.3204    2.3115    0.0000 C   0  0  0  0  0  0  0  0  0  0  0  0
   -0.2316    2.9246    0.0000 C   0  0  0  0  0  0  0  0  0  0  0  0
   -1.0521    2.8383    0.0000 O   0  0  0  0  0  0  0  0  0  0  0  0
    0.1809    3.6390    0.0000 C   0  0  0  0  0  0  0  0  0  0  0  0
    0.9879    3.4675    0.0000 C   0  0  0  0  0  0  0  0  0  0  0  0
    1.6009    4.0195    0.0000 O   0  0  0  0  0  0  0  0  0  0  0  0
    1.0741    2.6470    0.0000 C   0  0  0  0  0  0  0  0  0  0  0  0
    1.7886    2.2345    0.0000 C   0  0  0  0  0  0  0  0  0  0  0  0
    2.5030    2.6470    0.0000 C   0  0  0  0  0  0  0  0  0  0  0  0
    3.2175    2.2345    0.0000 C   0  0  0  0  0  0  0  0  0  0  0  0
    3.9320    1.8220    0.0000 C   0  0  0  0  0  0  0  0  0  0  0  0
    4.6464    2.2345    0.0000 C   0  0  0  0  0  0  0  0  0  0  0  0
    5.3609    1.8220    0.0000 C   0  0  0  0  0  0  0  0  0  0  0  0
    6.0754    2.2345    0.0000 C   0  0  0  0  0  0  0  0  0  0  0  0
    6.0754    3.0595    0.0000 O   0  0  0  0  0  0  0  0  0  0  0  0
    6.7899    1.8220    0.0000 O   0  0  0  0  0  0  0  0  0  0  0  0
    7.5043    2.2345    0.0000 C   0  0  0  0  0  0  0  0  0  0  0  0
   -3.6981   -2.3167    0.0000 H   0  0  0  0  0  0  0  0  0  0  0  0
   -3.0626   -3.2952    0.0000 H   0  0  0  0  0  0  0  0  0  0  0  0
   -2.0841   -2.6597    0.0000 H   0  0  0  0  0  0  0  0  0  0  0  0
   -3.0197   -0.9128    0.0000 H   0  0  0  0  0  0  0  0  0  0  0  0
   -3.5152   -1.4631    0.0000 H   0  0  0  0  0  0  0  0  0  0  0  0
   -1.6348   -2.1948    0.0000 H   0  0  0  0  0  0  0  0  0  0  0  0
   -1.1393   -1.6444    0.0000 H   0  0  0  0  0  0  0  0  0  0  0  0
   -2.0635    0.1492    0.0000 H   0  0  0  0  0  0  0  0  0  0  0  0
   -2.5590   -0.4012    0.0000 H   0  0  0  0  0  0  0  0  0  0  0  0
   -0.6787   -1.1328    0.0000 H   0  0  0  0  0  0  0  0  0  0  0  0
   -0.1832   -0.5825    0.0000 H   0  0  0  0  0  0  0  0  0  0  0  0
    0.6791   -0.1970    0.0000 H   0  0  0  0  0  0  0  0  0  0  0  0
    0.6920    0.7198    0.0000 H   0  0  0  0  0  0  0  0  0  0  0  0
   -0.1503    1.0823    0.0000 H   0  0  0  0  0  0  0  0  0  0  0  0
   -1.8553    1.4031    0.0000 H   0  0  0  0  0  0  0  0  0  0  0  0
   -1.2488    1.8016    0.0000 H   0  0  0  0  0  0  0  0  0  0  0  0
    0.9578    1.6668    0.0000 H   0  0  0  0  0  0  0  0  0  0  0  0
   -0.4765    2.0979    0.0000 H   0  0  0  0  0  0  0  0  0  0  0  0
   -0.6809    3.6165    0.0000 H   0  0  0  0  0  0  0  0  0  0  0  0
   -1.8723    2.7495    0.0000 H   0  0  0  0  0  0  0  0  0  0  0  0
    0.5522    4.3757    0.0000 H   0  0  0  0  0  0  0  0  0  0  0  0
   -0.0500    4.4311    0.0000 H   0  0  0  0  0  0  0  0  0  0  0  0
    1.7581    3.1719    0.0000 H   0  0  0  0  0  0  0  0  0  0  0  0
    1.8661    4.8008    0.0000 H   0  0  0  0  0  0  0  0  0  0  0  0
    1.0309    1.8232    0.0000 H   0  0  0  0  0  0  0  0  0  0  0  0
    1.9188    1.4199    0.0000 H   0  0  0  0  0  0  0  0  0  0  0  0
    2.4151    1.6978    0.0000 H   0  0  0  0  0  0  0  0  0  0  0  0
    2.9473    3.3422    0.0000 H   0  0  0  0  0  0  0  0  0  0  0  0
    3.9320    0.9970    0.0000 H   0  0  0  0  0  0  0  0  0  0  0  0
    5.0167    2.9718    0.0000 H   0  0  0  0  0  0  0  0  0  0  0  0
    4.2762    2.9718    0.0000 H   0  0  0  0  0  0  0  0  0  0  0  0
    4.9907    1.0848    0.0000 H   0  0  0  0  0  0  0  0  0  0  0  0
    5.7312    1.0848    0.0000 H   0  0  0  0  0  0  0  0  0  0  0  0
    7.9168    1.5201    0.0000 H   0  0  0  0  0  0  0  0  0  0  0  0
    8.2188    2.6470    0.0000 H   0  0  0  0  0  0  0  0  0  0  0  0
    7.0918    2.9490    0.0000 H   0  0  0  0  0  0  0  0  0  0  0  0
  1  2  1  0  0  0  0
  2  3  1  0  0  0  0
  3  4  1  0  0  0  0
  4  5  1  0  0  0  0
  5  6  1  0  0  0  0
  6  7  1  0  0  0  0
  6  8  1  0  0  0  0
  9  6  1  4  0  0  0
  9 10  2  0  0  0  0
 10 11  1  0  0  0  0
 11 12  1  0  0  0  0
 12 13  1  0  0  0  0
 12 14  1  0  0  0  0
 14 15  1  0  0  0  0
 15 16  1  0  0  0  0
 15 17  1  0  0  0  0
 11 17  1  0  0  0  0
 17 18  1  0  0  0  0
 18 19  1  0  0  0  0
 19 20  2  0  0  0  0
 20 21  2  0  0  0  0
 21 22  1  0  0  0  0
 22 23  1  0  0  0  0
 23 24  1  0  0  0  0
 24 25  2  0  0  0  0
 24 26  1  0  0  0  0
 26 27  1  0  0  0  0
  1 28  1  0  0  0  0
  1 29  1  0  0  0  0
  1 30  1  0  0  0  0
  2 31  1  0  0  0  0
  2 32  1  0  0  0  0
  3 33  1  0  0  0  0
  3 34  1  0  0  0  0
  4 35  1  0  0  0  0
  4 36  1  0  0  0  0
  5 37  1  0  0  0  0
  5 38  1  0  0  0  0
  7 39  1  0  0  0  0
  7 40  1  0  0  0  0
  7 41  1  0  0  0  0
  8 42  1  0  0  0  0
  9 43  1  0  0  0  0
 10 44  1  0  0  0  0
 11 45  1  0  0  0  0
 12 46  1  0  0  0  0
 13 47  1  0  0  0  0
 14 48  1  0  0  0  0
 14 49  1  0  0  0  0
 15 50  1  0  0  0  0
 16 51  1  0  0  0  0
 17 52  1  0  0  0  0
 18 53  1  0  0  0  0
 18 54  1  0  0  0  0
 19 55  1  0  0  0  0
 21 56  1  0  0  0  0
 22 57  1  0  0  0  0
 22 58  1  0  0  0  0
 23 59  1  0  0  0  0
 23 60  1  0  0  0  0
 27 61  1  0  0  0  0
 27 62  1  0  0  0  0
 27 63  1  0  0  0  0
M  END
>  <InChIKey>
InChI=1S/C22H36O5/c1-4-5-10-14-22(2,26)15-13-18-17(19(23)16-20(18)24)11-8-6-7-9-12-21(25)27-3/h7-8,13,15,17-20,23-24,26H,4-5,9-12,14,16H2,1-3H3

>  <CASRN>
54120-61-5

> <Outcome>
0

>  <Index>
1575

>  <StandardizerResult>
Clear Stereo (ID: ClearStereo)
Wedge Clean (ID: WedgeClean)
Mesomerize (ID: Mesomerize)
Tautomerize (ID: Tautomerize)
Add Explicit Hydrogens (ID: AddExplicitH)
Neutralize (ID: Neutralize)
Clean 2D (ID: Clean2D)

> <knn Distance>
4.0

> <CpId>
1575

$$$$
1672
  Mrv1532301301811342D          

 86 86  0  0  0  0            999 V2000
   -3.0002  -11.7565    0.0000 C   0  0  0  0  0  0  0  0  0  0  0  0
   -2.2075  -11.9853    0.0000 C   0  0  0  0  0  0  0  0  0  0  0  0
   -1.6131  -11.4133    0.0000 C   0  0  0  0  0  0  0  0  0  0  0  0
   -0.8204  -11.6421    0.0000 C   0  0  0  0  0  0  0  0  0  0  0  0
   -0.2259  -11.0701    0.0000 C   0  0  0  0  0  0  0  0  0  0  0  0
    0.5667  -11.2989    0.0000 C   0  0  0  0  0  0  0  0  0  0  0  0
    1.1612  -10.7269    0.0000 C   0  0  0  0  0  0  0  0  0  0  0  0
    1.9538  -10.9557    0.0000 C   0  0  0  0  0  0  0  0  0  0  0  0
    2.5483  -10.3836    0.0000 C   0  0  0  0  0  0  0  0  0  0  0  0
    3.3409  -10.6124    0.0000 C   0  0  0  0  0  0  0  0  0  0  0  0
    3.9354  -10.0404    0.0000 C   0  0  0  0  0  0  0  0  0  0  0  0
    4.7280  -10.2692    0.0000 C   0  0  0  0  0  0  0  0  0  0  0  0
    4.9262  -11.0701    0.0000 O   0  0  0  0  0  0  0  0  0  0  0  0
    5.3225   -9.6972    0.0000 O   0  0  0  0  0  0  0  0  0  0  0  0
    6.1151   -9.9260    0.0000 C   0  0  0  0  0  0  0  0  0  0  0  0
    6.7096   -9.3540    0.0000 C   0  0  0  0  0  0  0  0  0  0  0  0
    7.5022   -9.5828    0.0000 O   0  0  0  0  0  0  0  0  0  0  0  0
    8.0967   -9.0107    0.0000 C   0  0  0  0  0  0  0  0  0  0  0  0
    8.8893   -9.2396    0.0000 C   0  0  0  0  0  0  0  0  0  0  0  0
    9.0875  -10.0404    0.0000 O   0  0  0  0  0  0  0  0  0  0  0  0
    8.4930  -10.6124    0.0000 C   0  0  0  0  0  0  0  0  0  0  0  0
    8.6912  -11.4133    0.0000 C   0  0  0  0  0  0  0  0  0  0  0  0
    8.0967  -11.9853    0.0000 O   0  0  0  0  0  0  0  0  0  0  0  0
    9.4838   -8.6675    0.0000 C   0  0  0  0  0  0  0  0  0  0  0  0
    9.3705   -7.8504    0.0000 O   0  0  0  0  0  0  0  0  0  0  0  0
   10.1126   -7.4900    0.0000 C   0  0  0  0  0  0  0  0  0  0  0  0
   10.6846   -8.0845    0.0000 C   0  0  0  0  0  0  0  0  0  0  0  0
   11.5018   -7.9711    0.0000 O   0  0  0  0  0  0  0  0  0  0  0  0
   11.8122   -7.2068    0.0000 C   0  0  0  0  0  0  0  0  0  0  0  0
   12.6294   -7.0934    0.0000 C   0  0  0  0  0  0  0  0  0  0  0  0
   12.9398   -6.3290    0.0000 O   0  0  0  0  0  0  0  0  0  0  0  0
   10.2960   -8.8122    0.0000 C   0  0  0  0  0  0  0  0  0  0  0  0
   10.6564   -9.5544    0.0000 O   0  0  0  0  0  0  0  0  0  0  0  0
   10.1938  -10.2375    0.0000 C   0  0  0  0  0  0  0  0  0  0  0  0
   10.5542  -10.9797    0.0000 C   0  0  0  0  0  0  0  0  0  0  0  0
   10.0916  -11.6628    0.0000 O   0  0  0  0  0  0  0  0  0  0  0  0
   -2.7714  -10.9639    0.0000 H   0  0  0  0  0  0  0  0  0  0  0  0
   -3.7928  -11.5277    0.0000 H   0  0  0  0  0  0  0  0  0  0  0  0
   -3.2290  -12.5491    0.0000 H   0  0  0  0  0  0  0  0  0  0  0  0
   -2.3899  -12.7899    0.0000 H   0  0  0  0  0  0  0  0  0  0  0  0
   -1.6710  -12.6121    0.0000 H   0  0  0  0  0  0  0  0  0  0  0  0
   -1.4307  -10.6087    0.0000 H   0  0  0  0  0  0  0  0  0  0  0  0
   -2.1496  -10.7866    0.0000 H   0  0  0  0  0  0  0  0  0  0  0  0
   -1.0028  -12.4467    0.0000 H   0  0  0  0  0  0  0  0  0  0  0  0
   -0.2839  -12.2688    0.0000 H   0  0  0  0  0  0  0  0  0  0  0  0
   -0.0436  -10.2655    0.0000 H   0  0  0  0  0  0  0  0  0  0  0  0
   -0.7624  -10.4433    0.0000 H   0  0  0  0  0  0  0  0  0  0  0  0
    0.3843  -12.1035    0.0000 H   0  0  0  0  0  0  0  0  0  0  0  0
    1.1032  -11.9256    0.0000 H   0  0  0  0  0  0  0  0  0  0  0  0
    1.3435   -9.9223    0.0000 H   0  0  0  0  0  0  0  0  0  0  0  0
    0.6247  -10.1001    0.0000 H   0  0  0  0  0  0  0  0  0  0  0  0
    1.7715  -11.7603    0.0000 H   0  0  0  0  0  0  0  0  0  0  0  0
    2.4903  -11.5824    0.0000 H   0  0  0  0  0  0  0  0  0  0  0  0
    2.7306   -9.5790    0.0000 H   0  0  0  0  0  0  0  0  0  0  0  0
    2.0118   -9.7569    0.0000 H   0  0  0  0  0  0  0  0  0  0  0  0
    3.1586  -11.4170    0.0000 H   0  0  0  0  0  0  0  0  0  0  0  0
    3.8774  -11.2392    0.0000 H   0  0  0  0  0  0  0  0  0  0  0  0
    4.1177   -9.2358    0.0000 H   0  0  0  0  0  0  0  0  0  0  0  0
    3.3989   -9.4137    0.0000 H   0  0  0  0  0  0  0  0  0  0  0  0
    5.9328  -10.7306    0.0000 H   0  0  0  0  0  0  0  0  0  0  0  0
    6.6516  -10.5527    0.0000 H   0  0  0  0  0  0  0  0  0  0  0  0
    6.8919   -8.5494    0.0000 H   0  0  0  0  0  0  0  0  0  0  0  0
    6.1731   -8.7272    0.0000 H   0  0  0  0  0  0  0  0  0  0  0  0
    8.2791   -8.2062    0.0000 H   0  0  0  0  0  0  0  0  0  0  0  0
    7.5602   -8.3840    0.0000 H   0  0  0  0  0  0  0  0  0  0  0  0
    8.2949   -9.8116    0.0000 H   0  0  0  0  0  0  0  0  0  0  0  0
    7.6727  -10.5247    0.0000 H   0  0  0  0  0  0  0  0  0  0  0  0
    7.8083  -11.0726    0.0000 H   0  0  0  0  0  0  0  0  0  0  0  0
    9.2968  -11.9735    0.0000 H   0  0  0  0  0  0  0  0  0  0  0  0
    9.5022  -11.2620    0.0000 H   0  0  0  0  0  0  0  0  0  0  0  0
    7.8932  -12.7848    0.0000 H   0  0  0  0  0  0  0  0  0  0  0  0
    9.7236   -9.4569    0.0000 H   0  0  0  0  0  0  0  0  0  0  0  0
   10.6217   -6.8408    0.0000 H   0  0  0  0  0  0  0  0  0  0  0  0
    9.8591   -6.7049    0.0000 H   0  0  0  0  0  0  0  0  0  0  0  0
   11.1566   -8.7611    0.0000 H   0  0  0  0  0  0  0  0  0  0  0  0
   11.6516   -6.3976    0.0000 H   0  0  0  0  0  0  0  0  0  0  0  0
   11.0672   -6.8524    0.0000 H   0  0  0  0  0  0  0  0  0  0  0  0
   12.7901   -7.9026    0.0000 H   0  0  0  0  0  0  0  0  0  0  0  0
   13.3744   -7.4477    0.0000 H   0  0  0  0  0  0  0  0  0  0  0  0
   13.7570   -6.2157    0.0000 H   0  0  0  0  0  0  0  0  0  0  0  0
    9.9357   -8.0701    0.0000 H   0  0  0  0  0  0  0  0  0  0  0  0
    9.3689  -10.2280    0.0000 H   0  0  0  0  0  0  0  0  0  0  0  0
    9.7520  -10.9342    0.0000 H   0  0  0  0  0  0  0  0  0  0  0  0
   11.2630  -11.4017    0.0000 H   0  0  0  0  0  0  0  0  0  0  0  0
   11.3160  -10.6631    0.0000 H   0  0  0  0  0  0  0  0  0  0  0  0
   10.6066  -12.3073    0.0000 H   0  0  0  0  0  0  0  0  0  0  0  0
  1  2  1  0  0  0  0
  2  3  1  0  0  0  0
  3  4  1  0  0  0  0
  4  5  1  0  0  0  0
  5  6  1  0  0  0  0
  6  7  1  0  0  0  0
  7  8  1  0  0  0  0
  8  9  1  0  0  0  0
  9 10  1  0  0  0  0
 10 11  1  0  0  0  0
 11 12  1  0  0  0  0
 12 13  2  0  0  0  0
 12 14  1  0  0  0  0
 14 15  1  0  0  0  0
 15 16  1  0  0  0  0
 16 17  1  0  0  0  0
 17 18  1  0  0  0  0
 18 19  1  0  0  0  0
 19 20  1  0  0  0  0
 20 21  1  0  0  0  0
 21 22  1  0  0  0  0
 22 23  1  0  0  0  0
 19 24  1  0  0  0  0
 24 25  1  0  0  0  0
 25 26  1  0  0  0  0
 26 27  1  0  0  0  0
 27 28  1  0  0  0  0
 28 29  1  0  0  0  0
 29 30  1  0  0  0  0
 30 31  1  0  0  0  0
 27 32  1  0  0  0  0
 24 32  1  0  0  0  0
 32 33  1  0  0  0  0
 33 34  1  0  0  0  0
 34 35  1  0  0  0  0
 35 36  1  0  0  0  0
  1 37  1  0  0  0  0
  1 38  1  0  0  0  0
  1 39  1  0  0  0  0
  2 40  1  0  0  0  0
  2 41  1  0  0  0  0
  3 42  1  0  0  0  0
  3 43  1  0  0  0  0
  4 44  1  0  0  0  0
  4 45  1  0  0  0  0
  5 46  1  0  0  0  0
  5 47  1  0  0  0  0
  6 48  1  0  0  0  0
  6 49  1  0  0  0  0
  7 50  1  0  0  0  0
  7 51  1  0  0  0  0
  8 52  1  0  0  0  0
  8 53  1  0  0  0  0
  9 54  1  0  0  0  0
  9 55  1  0  0  0  0
 10 56  1  0  0  0  0
 10 57  1  0  0  0  0
 11 58  1  0  0  0  0
 11 59  1  0  0  0  0
 15 60  1  0  0  0  0
 15 61  1  0  0  0  0
 16 62  1  0  0  0  0
 16 63  1  0  0  0  0
 18 64  1  0  0  0  0
 18 65  1  0  0  0  0
 19 66  1  0  0  0  0
 21 67  1  0  0  0  0
 21 68  1  0  0  0  0
 22 69  1  0  0  0  0
 22 70  1  0  0  0  0
 23 71  1  0  0  0  0
 24 72  1  0  0  0  0
 26 73  1  0  0  0  0
 26 74  1  0  0  0  0
 27 75  1  0  0  0  0
 29 76  1  0  0  0  0
 29 77  1  0  0  0  0
 30 78  1  0  0  0  0
 30 79  1  0  0  0  0
 31 80  1  0  0  0  0
 32 81  1  0  0  0  0
 34 82  1  0  0  0  0
 34 83  1  0  0  0  0
 35 84  1  0  0  0  0
 35 85  1  0  0  0  0
 36 86  1  0  0  0  0
M  END
>  <InChIKey>
InChI=1S/C26H50O10/c1-2-3-4-5-6-7-8-9-10-11-24(30)34-19-18-31-20-22(32-15-12-27)26-25(35-17-14-29)23(21-36-26)33-16-13-28/h22-23,25-29H,2-21H2,1H3

>  <UN GHS>
Non-irritant

>  <CASRN>
9005-64-5

> <Outcome>
0

>  <Index>
1672

>  <StandardizerResult>
Clear Stereo (ID: ClearStereo)
Wedge Clean (ID: WedgeClean)
Mesomerize (ID: Mesomerize)
Tautomerize (ID: Tautomerize)
Add Explicit Hydrogens (ID: AddExplicitH)
Neutralize (ID: Neutralize)
Clean 2D (ID: Clean2D)

> <knn Distance>
4.0

> <CpId>
1672

$$$$
1684
  Mrv1532301301811342D          

 70 74  0  0  0  0            999 V2000
    3.5951   -3.3158    0.0000 C   0  0  0  0  0  0  0  0  0  0  0  0
    3.9550   -2.5734    0.0000 C   0  0  0  0  0  0  0  0  0  0  0  0
    4.4868   -3.2041    0.0000 C   0  0  0  0  0  0  0  0  0  0  0  0
    5.2989   -3.0589    0.0000 C   0  0  0  0  0  0  0  0  0  0  0  0
    5.5792   -2.2830    0.0000 C   0  0  0  0  0  0  0  0  0  0  0  0
    5.0474   -1.6523    0.0000 C   0  0  0  0  0  0  0  0  0  0  0  0
    5.3277   -0.8763    0.0000 C   0  0  0  0  0  0  0  0  0  0  0  0
    6.1398   -0.7311    0.0000 C   0  0  0  0  0  0  0  0  0  0  0  0
    6.6716   -1.3618    0.0000 C   0  0  0  0  0  0  0  0  0  0  0  0
    7.4837   -1.2166    0.0000 C   0  0  0  0  0  0  0  0  0  0  0  0
    8.0155   -1.8473    0.0000 C   0  0  0  0  0  0  0  0  0  0  0  0
    8.8277   -1.7021    0.0000 O   0  0  0  0  0  0  0  0  0  0  0  0
    7.7352   -2.6232    0.0000 C   0  0  0  0  0  0  0  0  0  0  0  0
    6.9231   -2.7685    0.0000 C   0  0  0  0  0  0  0  0  0  0  0  0
    6.3913   -2.1377    0.0000 C   0  0  0  0  0  0  0  0  0  0  0  0
    6.1110   -2.9137    0.0000 C   0  0  0  0  0  0  0  0  0  0  0  0
    4.2353   -1.7975    0.0000 C   0  0  0  0  0  0  0  0  0  0  0  0
    3.5839   -1.2911    0.0000 C   0  0  0  0  0  0  0  0  0  0  0  0
    2.9011   -1.7541    0.0000 C   0  0  0  0  0  0  0  0  0  0  0  0
    3.1304   -2.5466    0.0000 C   0  0  0  0  0  0  0  0  0  0  0  0
    2.6240   -3.1979    0.0000 O   0  0  0  0  0  0  0  0  0  0  0  0
    2.9349   -3.9621    0.0000 C   0  0  0  0  0  0  0  0  0  0  0  0
    3.7522   -4.0749    0.0000 O   0  0  0  0  0  0  0  0  0  0  0  0
    2.4286   -4.6134    0.0000 C   0  0  0  0  0  0  0  0  0  0  0  0
    2.7395   -5.3776    0.0000 C   0  0  0  0  0  0  0  0  0  0  0  0
    2.2331   -6.0289    0.0000 C   0  0  0  0  0  0  0  0  0  0  0  0
    2.4624   -6.8214    0.0000 C   0  0  0  0  0  0  0  0  0  0  0  0
    1.7796   -7.2844    0.0000 C   0  0  0  0  0  0  0  0  0  0  0  0
    1.1282   -6.7781    0.0000 C   0  0  0  0  0  0  0  0  0  0  0  0
    1.4085   -6.0021    0.0000 C   0  0  0  0  0  0  0  0  0  0  0  0
    2.8440   -2.9744    0.0000 H   0  0  0  0  0  0  0  0  0  0  0  0
    2.7826   -3.4587    0.0000 H   0  0  0  0  0  0  0  0  0  0  0  0
    4.2660   -3.7959    0.0000 H   0  0  0  0  0  0  0  0  0  0  0  0
    5.0153   -3.8376    0.0000 H   0  0  0  0  0  0  0  0  0  0  0  0
    4.7671   -2.4282    0.0000 H   0  0  0  0  0  0  0  0  0  0  0  0
    5.5816   -3.8339    0.0000 H   0  0  0  0  0  0  0  0  0  0  0  0
    6.0140   -3.4703    0.0000 H   0  0  0  0  0  0  0  0  0  0  0  0
    5.8595   -1.5070    0.0000 H   0  0  0  0  0  0  0  0  0  0  0  0
    4.5156   -1.0215    0.0000 H   0  0  0  0  0  0  0  0  0  0  0  0
    5.4690   -0.0635    0.0000 H   0  0  0  0  0  0  0  0  0  0  0  0
    4.9135   -0.1629    0.0000 H   0  0  0  0  0  0  0  0  0  0  0  0
    6.9043   -0.4210    0.0000 H   0  0  0  0  0  0  0  0  0  0  0  0
    6.5118    0.0052    0.0000 H   0  0  0  0  0  0  0  0  0  0  0  0
    7.7640   -0.4407    0.0000 H   0  0  0  0  0  0  0  0  0  0  0  0
    7.9274   -3.4255    0.0000 H   0  0  0  0  0  0  0  0  0  0  0  0
    8.4936   -2.9482    0.0000 H   0  0  0  0  0  0  0  0  0  0  0  0
    6.7818   -3.5813    0.0000 H   0  0  0  0  0  0  0  0  0  0  0  0
    7.3373   -3.4819    0.0000 H   0  0  0  0  0  0  0  0  0  0  0  0
    6.3608   -3.6999    0.0000 H   0  0  0  0  0  0  0  0  0  0  0  0
    5.3351   -2.6334    0.0000 H   0  0  0  0  0  0  0  0  0  0  0  0
    5.5289   -3.4983    0.0000 H   0  0  0  0  0  0  0  0  0  0  0  0
    3.4428   -2.0268    0.0000 H   0  0  0  0  0  0  0  0  0  0  0  0
    3.5388   -0.4674    0.0000 H   0  0  0  0  0  0  0  0  0  0  0  0
    2.9792   -0.7299    0.0000 H   0  0  0  0  0  0  0  0  0  0  0  0
    2.3476   -1.1423    0.0000 H   0  0  0  0  0  0  0  0  0  0  0  0
    2.0844   -1.8709    0.0000 H   0  0  0  0  0  0  0  0  0  0  0  0
    2.3202   -2.3911    0.0000 H   0  0  0  0  0  0  0  0  0  0  0  0
    1.7489   -4.1458    0.0000 H   0  0  0  0  0  0  0  0  0  0  0  0
    1.6476   -4.8794    0.0000 H   0  0  0  0  0  0  0  0  0  0  0  0
    3.4191   -5.8452    0.0000 H   0  0  0  0  0  0  0  0  0  0  0  0
    3.5204   -5.1117    0.0000 H   0  0  0  0  0  0  0  0  0  0  0  0
    1.8826   -5.2821    0.0000 H   0  0  0  0  0  0  0  0  0  0  0  0
    3.0159   -7.4332    0.0000 H   0  0  0  0  0  0  0  0  0  0  0  0
    3.2791   -6.7046    0.0000 H   0  0  0  0  0  0  0  0  0  0  0  0
    1.3688   -7.9999    0.0000 H   0  0  0  0  0  0  0  0  0  0  0  0
    2.1430   -8.0250    0.0000 H   0  0  0  0  0  0  0  0  0  0  0  0
    0.3209   -6.6085    0.0000 H   0  0  0  0  0  0  0  0  0  0  0  0
    0.5362   -7.3526    0.0000 H   0  0  0  0  0  0  0  0  0  0  0  0
    0.8577   -5.3880    0.0000 H   0  0  0  0  0  0  0  0  0  0  0  0
    0.5868   -5.9286    0.0000 H   0  0  0  0  0  0  0  0  0  0  0  0
  1  2  1  0  0  0  0
  2  3  1  0  0  0  0
  3  4  1  0  0  0  0
  4  5  1  0  0  0  0
  5  6  1  0  0  0  0
  6  7  1  0  0  0  0
  7  8  1  0  0  0  0
  8  9  1  0  0  0  0
  9 10  2  0  0  0  0
 10 11  1  0  0  0  0
 11 12  2  0  0  0  0
 11 13  1  0  0  0  0
 13 14  1  0  0  0  0
 14 15  1  0  0  0  0
  5 15  1  0  0  0  0
  9 15  1  0  0  0  0
 15 16  1  0  0  0  0
  6 17  1  0  0  0  0
  2 17  1  0  0  0  0
 17 18  1  0  0  0  0
 18 19  1  0  0  0  0
 19 20  1  0  0  0  0
  2 20  1  0  0  0  0
 20 21  1  0  0  0  0
 21 22  1  0  0  0  0
 22 23  2  0  0  0  0
 22 24  1  0  0  0  0
 24 25  1  0  0  0  0
 25 26  1  0  0  0  0
 26 27  1  0  0  0  0
 27 28  1  0  0  0  0
 28 29  1  0  0  0  0
 29 30  1  0  0  0  0
 26 30  1  0  0  0  0
  1 31  1  0  0  0  0
  1 32  1  0  0  0  0
  1 33  1  0  0  0  0
  3 34  1  0  0  0  0
  3 35  1  0  0  0  0
  4 36  1  0  0  0  0
  4 37  1  0  0  0  0
  5 38  1  0  0  0  0
  6 39  1  0  0  0  0
  7 40  1  0  0  0  0
  7 41  1  0  0  0  0
  8 42  1  0  0  0  0
  8 43  1  0  0  0  0
 10 44  1  0  0  0  0
 13 45  1  0  0  0  0
 13 46  1  0  0  0  0
 14 47  1  0  0  0  0
 14 48  1  0  0  0  0
 16 49  1  0  0  0  0
 16 50  1  0  0  0  0
 16 51  1  0  0  0  0
 17 52  1  0  0  0  0
 18 53  1  0  0  0  0
 18 54  1  0  0  0  0
 19 55  1  0  0  0  0
 19 56  1  0  0  0  0
 20 57  1  0  0  0  0
 24 58  1  0  0  0  0
 24 59  1  0  0  0  0
 25 60  1  0  0  0  0
 25 61  1  0  0  0  0
 26 62  1  0  0  0  0
 27 63  1  0  0  0  0
 27 64  1  0  0  0  0
 28 65  1  0  0  0  0
 28 66  1  0  0  0  0
 29 67  1  0  0  0  0
 29 68  1  0  0  0  0
 30 69  1  0  0  0  0
 30 70  1  0  0  0  0
M  END
>  <InChIKey>
InChI=1S/C27H40O3/c1-26-15-13-20(28)17-19(26)8-9-21-22-10-11-24(27(22,2)16-14-23(21)26)30-25(29)12-7-18-5-3-4-6-18/h17-18,21-24H,3-16H2,1-2H3

>  <CASRN>
58-20-8

> <Outcome>
0

>  <Index>
1684

>  <StandardizerResult>
Clear Stereo (ID: ClearStereo)
Wedge Clean (ID: WedgeClean)
Mesomerize (ID: Mesomerize)
Tautomerize (ID: Tautomerize)
Add Explicit Hydrogens (ID: AddExplicitH)
Neutralize (ID: Neutralize)
Clean 2D (ID: Clean2D)

> <knn Distance>
4.0

> <CpId>
1684

$$$$
1743
  Mrv1532301301811342D          

 48 51  0  0  0  0            999 V2000
   -2.0716   -0.5711    0.0000 C   0  0  0  0  0  0  0  0  0  0  0  0
   -1.7118   -1.3135    0.0000 C   0  0  0  0  0  0  0  0  0  0  0  0
   -1.1800   -0.6828    0.0000 C   0  0  0  0  0  0  0  0  0  0  0  0
   -0.3678   -0.8280    0.0000 C   0  0  0  0  0  0  0  0  0  0  0  0
   -0.0875   -1.6039    0.0000 C   0  0  0  0  0  0  0  0  0  0  0  0
   -0.6194   -2.2346    0.0000 C   0  0  0  0  0  0  0  0  0  0  0  0
   -0.3391   -3.0106    0.0000 C   0  0  0  0  0  0  0  0  0  0  0  0
    0.4731   -3.1558    0.0000 C   0  0  0  0  0  0  0  0  0  0  0  0
    1.0049   -2.5251    0.0000 C   0  0  0  0  0  0  0  0  0  0  0  0
    0.7246   -1.7491    0.0000 C   0  0  0  0  0  0  0  0  0  0  0  0
    1.2564   -1.1184    0.0000 C   0  0  0  0  0  0  0  0  0  0  0  0
    2.0685   -1.2636    0.0000 C   0  0  0  0  0  0  0  0  0  0  0  0
    2.3488   -2.0396    0.0000 C   0  0  0  0  0  0  0  0  0  0  0  0
    3.1609   -2.1848    0.0000 O   0  0  0  0  0  0  0  0  0  0  0  0
    1.8170   -2.6703    0.0000 C   0  0  0  0  0  0  0  0  0  0  0  0
   -1.4315   -2.0894    0.0000 C   0  0  0  0  0  0  0  0  0  0  0  0
   -2.0828   -2.5958    0.0000 C   0  0  0  0  0  0  0  0  0  0  0  0
   -2.7656   -2.1328    0.0000 C   0  0  0  0  0  0  0  0  0  0  0  0
   -2.5363   -1.3403    0.0000 C   0  0  0  0  0  0  0  0  0  0  0  0
   -3.2972   -1.0214    0.0000 O   0  0  0  0  0  0  0  0  0  0  0  0
   -2.6577   -0.5243    0.0000 C   0  0  0  0  0  0  0  0  0  0  0  0
   -2.7791    0.2917    0.0000 C   0  0  0  0  0  0  0  0  0  0  0  0
   -1.4260   -0.0575    0.0000 H   0  0  0  0  0  0  0  0  0  0  0  0
   -1.9875    0.2496    0.0000 H   0  0  0  0  0  0  0  0  0  0  0  0
   -2.5996    0.0628    0.0000 H   0  0  0  0  0  0  0  0  0  0  0  0
   -0.6571   -0.0446    0.0000 H   0  0  0  0  0  0  0  0  0  0  0  0
   -0.8997   -1.4587    0.0000 H   0  0  0  0  0  0  0  0  0  0  0  0
    0.4572   -0.8277    0.0000 H   0  0  0  0  0  0  0  0  0  0  0  0
    0.2631   -0.2965    0.0000 H   0  0  0  0  0  0  0  0  0  0  0  0
    0.1928   -2.3798    0.0000 H   0  0  0  0  0  0  0  0  0  0  0  0
   -1.1512   -2.8653    0.0000 H   0  0  0  0  0  0  0  0  0  0  0  0
   -0.7533   -3.7240    0.0000 H   0  0  0  0  0  0  0  0  0  0  0  0
   -0.1978   -3.8234    0.0000 H   0  0  0  0  0  0  0  0  0  0  0  0
    0.8451   -3.8921    0.0000 H   0  0  0  0  0  0  0  0  0  0  0  0
    1.2375   -3.4659    0.0000 H   0  0  0  0  0  0  0  0  0  0  0  0
    1.8235   -0.5192    0.0000 H   0  0  0  0  0  0  0  0  0  0  0  0
    1.0667   -0.3155    0.0000 H   0  0  0  0  0  0  0  0  0  0  0  0
    2.8792   -1.4166    0.0000 H   0  0  0  0  0  0  0  0  0  0  0  0
    2.6123   -0.6432    0.0000 H   0  0  0  0  0  0  0  0  0  0  0  0
    1.7193   -3.4895    0.0000 H   0  0  0  0  0  0  0  0  0  0  0  0
    2.4157   -3.2379    0.0000 H   0  0  0  0  0  0  0  0  0  0  0  0
   -2.2240   -1.8601    0.0000 H   0  0  0  0  0  0  0  0  0  0  0  0
   -2.6875   -3.1570    0.0000 H   0  0  0  0  0  0  0  0  0  0  0  0
   -2.1280   -3.4195    0.0000 H   0  0  0  0  0  0  0  0  0  0  0  0
   -3.5823   -2.0160    0.0000 H   0  0  0  0  0  0  0  0  0  0  0  0
   -3.3192   -2.7446    0.0000 H   0  0  0  0  0  0  0  0  0  0  0  0
   -4.1150   -1.1300    0.0000 H   0  0  0  0  0  0  0  0  0  0  0  0
   -3.3894    0.8469    0.0000 H   0  0  0  0  0  0  0  0  0  0  0  0
  1  2  1  0  0  0  0
  2  3  1  0  0  0  0
  3  4  1  0  0  0  0
  4  5  1  0  0  0  0
  5  6  1  0  0  0  0
  6  7  1  0  0  0  0
  7  8  1  0  0  0  0
  8  9  1  0  0  0  0
  9 10  2  0  0  0  0
  5 10  1  0  0  0  0
 10 11  1  0  0  0  0
 11 12  1  0  0  0  0
 12 13  1  0  0  0  0
 13 14  2  0  0  0  0
 13 15  1  0  0  0  0
  9 15  1  0  0  0  0
  6 16  1  0  0  0  0
  2 16  1  0  0  0  0
 16 17  1  0  0  0  0
 17 18  1  0  0  0  0
 18 19  1  0  0  0  0
  2 19  1  0  0  0  0
 19 20  1  0  0  0  0
 19 21  1  0  0  0  0
 21 22  3  0  0  0  0
  1 23  1  0  0  0  0
  1 24  1  0  0  0  0
  1 25  1  0  0  0  0
  3 26  1  0  0  0  0
  3 27  1  0  0  0  0
  4 28  1  0  0  0  0
  4 29  1  0  0  0  0
  5 30  1  0  0  0  0
  6 31  1  0  0  0  0
  7 32  1  0  0  0  0
  7 33  1  0  0  0  0
  8 34  1  0  0  0  0
  8 35  1  0  0  0  0
 11 36  1  0  0  0  0
 11 37  1  0  0  0  0
 12 38  1  0  0  0  0
 12 39  1  0  0  0  0
 15 40  1  0  0  0  0
 15 41  1  0  0  0  0
 16 42  1  0  0  0  0
 17 43  1  0  0  0  0
 17 44  1  0  0  0  0
 18 45  1  0  0  0  0
 18 46  1  0  0  0  0
 20 47  1  0  0  0  0
 22 48  1  0  0  0  0
M  END
>  <InChIKey>
InChI=1S/C20H26O2/c1-3-20(22)11-9-18-17-6-4-13-12-14(21)5-7-15(13)16(17)8-10-19(18,20)2/h1,16-18,22H,4-12H2,2H3

>  <CASRN>
68-23-5

> <Outcome>
0

>  <Index>
1743

>  <StandardizerResult>
Clear Stereo (ID: ClearStereo)
Wedge Clean (ID: WedgeClean)
Mesomerize (ID: Mesomerize)
Tautomerize (ID: Tautomerize)
Add Explicit Hydrogens (ID: AddExplicitH)
Neutralize (ID: Neutralize)
Clean 2D (ID: Clean2D)

> <knn Distance>
4.0

> <CpId>
1743

$$$$
1771
  Mrv1532301301811342D          

 39 40  0  0  0  0            999 V2000
   -0.0022   -4.9038    0.0000 O   0  0  0  0  0  0  0  0  0  0  0  0
    0.7123   -5.3163    0.0000 C   0  0  0  0  0  0  0  0  0  0  0  0
    0.7123   -6.1413    0.0000 O   0  0  0  0  0  0  0  0  0  0  0  0
    1.4268   -4.9038    0.0000 C   0  0  0  0  0  0  0  0  0  0  0  0
    2.1412   -5.3163    0.0000 C   0  0  0  0  0  0  0  0  0  0  0  0
    2.8557   -4.9038    0.0000 C   0  0  0  0  0  0  0  0  0  0  0  0
    2.8557   -4.0788    0.0000 O   0  0  0  0  0  0  0  0  0  0  0  0
    3.5702   -5.3163    0.0000 C   0  0  0  0  0  0  0  0  0  0  0  0
    4.2846   -4.9038    0.0000 C   0  0  0  0  0  0  0  0  0  0  0  0
    4.9991   -5.3163    0.0000 C   0  0  0  0  0  0  0  0  0  0  0  0
    4.9991   -6.1413    0.0000 C   0  0  0  0  0  0  0  0  0  0  0  0
    5.7136   -6.5538    0.0000 C   0  0  0  0  0  0  0  0  0  0  0  0
    6.4281   -6.1413    0.0000 C   0  0  0  0  0  0  0  0  0  0  0  0
    7.1425   -6.5538    0.0000 C   0  0  0  0  0  0  0  0  0  0  0  0
    7.1425   -7.3788    0.0000 C   0  0  0  0  0  0  0  0  0  0  0  0
    6.4281   -7.7913    0.0000 C   0  0  0  0  0  0  0  0  0  0  0  0
    5.7136   -7.3788    0.0000 C   0  0  0  0  0  0  0  0  0  0  0  0
    4.2846   -6.5538    0.0000 C   0  0  0  0  0  0  0  0  0  0  0  0
    4.2846   -7.3788    0.0000 Cl  0  0  0  0  0  0  0  0  0  0  0  0
    3.5702   -6.1413    0.0000 C   0  0  0  0  0  0  0  0  0  0  0  0
   -0.0022   -4.0788    0.0000 H   0  0  0  0  0  0  0  0  0  0  0  0
    1.7970   -4.1665    0.0000 H   0  0  0  0  0  0  0  0  0  0  0  0
    1.0565   -4.1665    0.0000 H   0  0  0  0  0  0  0  0  0  0  0  0
    1.7710   -6.0535    0.0000 H   0  0  0  0  0  0  0  0  0  0  0  0
    2.5115   -6.0535    0.0000 H   0  0  0  0  0  0  0  0  0  0  0  0
    4.2846   -4.0788    0.0000 H   0  0  0  0  0  0  0  0  0  0  0  0
    5.7136   -4.9038    0.0000 H   0  0  0  0  0  0  0  0  0  0  0  0
    4.9991   -6.9663    0.0000 H   0  0  0  0  0  0  0  0  0  0  0  0
    6.7983   -5.4040    0.0000 H   0  0  0  0  0  0  0  0  0  0  0  0
    6.0578   -5.4040    0.0000 H   0  0  0  0  0  0  0  0  0  0  0  0
    7.9661   -6.5058    0.0000 H   0  0  0  0  0  0  0  0  0  0  0  0
    7.5959   -5.8645    0.0000 H   0  0  0  0  0  0  0  0  0  0  0  0
    7.5959   -8.0681    0.0000 H   0  0  0  0  0  0  0  0  0  0  0  0
    7.9661   -7.4268    0.0000 H   0  0  0  0  0  0  0  0  0  0  0  0
    6.0578   -8.5285    0.0000 H   0  0  0  0  0  0  0  0  0  0  0  0
    6.7983   -8.5285    0.0000 H   0  0  0  0  0  0  0  0  0  0  0  0
    5.0816   -7.9091    0.0000 H   0  0  0  0  0  0  0  0  0  0  0  0
    5.5703   -8.1913    0.0000 H   0  0  0  0  0  0  0  0  0  0  0  0
    2.8557   -6.5538    0.0000 H   0  0  0  0  0  0  0  0  0  0  0  0
  1  2  1  0  0  0  0
  2  3  2  0  0  0  0
  2  4  1  0  0  0  0
  4  5  1  0  0  0  0
  5  6  1  0  0  0  0
  6  7  2  0  0  0  0
  6  8  1  0  0  0  0
  8  9  4  0  0  0  0
  9 10  4  0  0  0  0
 10 11  4  0  0  0  0
 11 12  1  0  0  0  0
 12 13  1  0  0  0  0
 13 14  1  0  0  0  0
 14 15  1  0  0  0  0
 15 16  1  0  0  0  0
 16 17  1  0  0  0  0
 12 17  1  0  0  0  0
 11 18  4  0  0  0  0
 18 19  1  0  0  0  0
 18 20  4  0  0  0  0
  8 20  4  0  0  0  0
  1 21  1  0  0  0  0
  4 22  1  0  0  0  0
  4 23  1  0  0  0  0
  5 24  1  0  0  0  0
  5 25  1  0  0  0  0
  9 26  1  0  0  0  0
 10 27  1  0  0  0  0
 12 28  1  0  0  0  0
 13 29  1  0  0  0  0
 13 30  1  0  0  0  0
 14 31  1  0  0  0  0
 14 32  1  0  0  0  0
 15 33  1  0  0  0  0
 15 34  1  0  0  0  0
 16 35  1  0  0  0  0
 16 36  1  0  0  0  0
 17 37  1  0  0  0  0
 17 38  1  0  0  0  0
 20 39  1  0  0  0  0
M  END
>  <InChIKey>
InChI=1S/C16H19ClO3/c17-14-10-12(15(18)8-9-16(19)20)6-7-13(14)11-4-2-1-3-5-11/h6-7,10-11H,1-5,8-9H2,(H,19,20)

>  <CASRN>
32808-51-8

> <Outcome>
0

>  <Index>
1771

>  <StandardizerResult>
Dearomatize (ID: Dearomatize)
Clear Stereo (ID: ClearStereo)
Wedge Clean (ID: WedgeClean)
Mesomerize (ID: Mesomerize)
Tautomerize (ID: Tautomerize)
Aromatize (ID: Aromatize)
Add Explicit Hydrogens (ID: AddExplicitH)
Neutralize (ID: Neutralize)
Clean 2D (ID: Clean2D)

> <knn Distance>
4.0

> <CpId>
1771

$$$$
1783
  Mrv1532301301811342D          

 49 52  0  0  0  0            999 V2000
   -1.1815   -3.1323    0.0000 C   0  0  0  0  0  0  0  0  0  0  0  0
   -0.9012   -2.3564    0.0000 O   0  0  0  0  0  0  0  0  0  0  0  0
   -0.0891   -2.2112    0.0000 C   0  0  0  0  0  0  0  0  0  0  0  0
    0.1912   -1.4353    0.0000 C   0  0  0  0  0  0  0  0  0  0  0  0
    1.0033   -1.2900    0.0000 C   0  0  0  0  0  0  0  0  0  0  0  0
    1.5351   -1.9208    0.0000 C   0  0  0  0  0  0  0  0  0  0  0  0
    2.3472   -1.7755    0.0000 C   0  0  0  0  0  0  0  0  0  0  0  0
    2.6275   -0.9996    0.0000 C   0  0  0  0  0  0  0  0  0  0  0  0
    3.4397   -0.8544    0.0000 C   0  0  0  0  0  0  0  0  0  0  0  0
    3.9715   -1.4851    0.0000 C   0  0  0  0  0  0  0  0  0  0  0  0
    4.3313   -0.7427    0.0000 C   0  0  0  0  0  0  0  0  0  0  0  0
    3.6912   -2.2610    0.0000 C   0  0  0  0  0  0  0  0  0  0  0  0
    4.3425   -2.7674    0.0000 C   0  0  0  0  0  0  0  0  0  0  0  0
    5.0253   -2.3044    0.0000 C   0  0  0  0  0  0  0  0  0  0  0  0
    4.7960   -1.5119    0.0000 C   0  0  0  0  0  0  0  0  0  0  0  0
    5.5569   -1.1930    0.0000 O   0  0  0  0  0  0  0  0  0  0  0  0
    4.9174   -0.6959    0.0000 C   0  0  0  0  0  0  0  0  0  0  0  0
    5.0388    0.1201    0.0000 C   0  0  0  0  0  0  0  0  0  0  0  0
    2.8791   -2.4062    0.0000 C   0  0  0  0  0  0  0  0  0  0  0  0
    2.5988   -3.1822    0.0000 C   0  0  0  0  0  0  0  0  0  0  0  0
    1.7866   -3.3274    0.0000 C   0  0  0  0  0  0  0  0  0  0  0  0
    1.2548   -2.6967    0.0000 C   0  0  0  0  0  0  0  0  0  0  0  0
    0.4427   -2.8419    0.0000 C   0  0  0  0  0  0  0  0  0  0  0  0
   -1.9575   -2.8520    0.0000 H   0  0  0  0  0  0  0  0  0  0  0  0
   -1.4618   -3.9082    0.0000 H   0  0  0  0  0  0  0  0  0  0  0  0
   -0.4056   -3.4126    0.0000 H   0  0  0  0  0  0  0  0  0  0  0  0
   -0.3406   -0.8046    0.0000 H   0  0  0  0  0  0  0  0  0  0  0  0
    1.2836   -0.5141    0.0000 H   0  0  0  0  0  0  0  0  0  0  0  0
    1.8154   -1.1448    0.0000 H   0  0  0  0  0  0  0  0  0  0  0  0
    2.7688   -0.1868    0.0000 H   0  0  0  0  0  0  0  0  0  0  0  0
    2.2133   -0.2861    0.0000 H   0  0  0  0  0  0  0  0  0  0  0  0
    3.7064   -0.0737    0.0000 H   0  0  0  0  0  0  0  0  0  0  0  0
    3.1594   -1.6303    0.0000 H   0  0  0  0  0  0  0  0  0  0  0  0
    4.9929   -0.2498    0.0000 H   0  0  0  0  0  0  0  0  0  0  0  0
    4.6296    0.0265    0.0000 H   0  0  0  0  0  0  0  0  0  0  0  0
    4.1749    0.0673    0.0000 H   0  0  0  0  0  0  0  0  0  0  0  0
    3.4935   -3.0620    0.0000 H   0  0  0  0  0  0  0  0  0  0  0  0
    4.4140   -3.5893    0.0000 H   0  0  0  0  0  0  0  0  0  0  0  0
    4.9585   -3.3162    0.0000 H   0  0  0  0  0  0  0  0  0  0  0  0
    5.5789   -2.9162    0.0000 H   0  0  0  0  0  0  0  0  0  0  0  0
    5.8420   -2.1876    0.0000 H   0  0  0  0  0  0  0  0  0  0  0  0
    6.3747   -1.3016    0.0000 H   0  0  0  0  0  0  0  0  0  0  0  0
    5.6401    0.6850    0.0000 H   0  0  0  0  0  0  0  0  0  0  0  0
    2.0669   -2.5515    0.0000 H   0  0  0  0  0  0  0  0  0  0  0  0
    2.3073   -3.9540    0.0000 H   0  0  0  0  0  0  0  0  0  0  0  0
    3.1121   -3.8280    0.0000 H   0  0  0  0  0  0  0  0  0  0  0  0
    0.9742   -3.4706    0.0000 H   0  0  0  0  0  0  0  0  0  0  0  0
    1.5026   -4.1019    0.0000 H   0  0  0  0  0  0  0  0  0  0  0  0
   -0.1877   -3.3741    0.0000 H   0  0  0  0  0  0  0  0  0  0  0  0
  1  2  1  0  0  0  0
  2  3  1  0  0  0  0
  3  4  4  0  0  0  0
  4  5  4  0  0  0  0
  5  6  4  0  0  0  0
  6  7  1  0  0  0  0
  7  8  1  0  0  0  0
  8  9  1  0  0  0  0
  9 10  1  0  0  0  0
 10 11  1  0  0  0  0
 10 12  1  0  0  0  0
 12 13  1  0  0  0  0
 13 14  1  0  0  0  0
 14 15  1  0  0  0  0
 10 15  1  0  0  0  0
 15 16  1  0  0  0  0
 15 17  1  0  0  0  0
 17 18  3  0  0  0  0
 12 19  1  0  0  0  0
  7 19  1  0  0  0  0
 19 20  1  0  0  0  0
 20 21  1  0  0  0  0
 21 22  1  0  0  0  0
  6 22  4  0  0  0  0
 22 23  4  0  0  0  0
  3 23  4  0  0  0  0
  1 24  1  0  0  0  0
  1 25  1  0  0  0  0
  1 26  1  0  0  0  0
  4 27  1  0  0  0  0
  5 28  1  0  0  0  0
  7 29  1  0  0  0  0
  8 30  1  0  0  0  0
  8 31  1  0  0  0  0
  9 32  1  0  0  0  0
  9 33  1  0  0  0  0
 11 34  1  0  0  0  0
 11 35  1  0  0  0  0
 11 36  1  0  0  0  0
 12 37  1  0  0  0  0
 13 38  1  0  0  0  0
 13 39  1  0  0  0  0
 14 40  1  0  0  0  0
 14 41  1  0  0  0  0
 16 42  1  0  0  0  0
 18 43  1  0  0  0  0
 19 44  1  0  0  0  0
 20 45  1  0  0  0  0
 20 46  1  0  0  0  0
 21 47  1  0  0  0  0
 21 48  1  0  0  0  0
 23 49  1  0  0  0  0
M  END
>  <InChIKey>
InChI=1S/C21H26O2/c1-4-21(22)12-10-19-18-7-5-14-13-15(23-3)6-8-16(14)17(18)9-11-20(19,21)2/h1,6,8,13,17-19,22H,5,7,9-12H2,2-3H3

>  <CASRN>
72-33-3

> <Outcome>
0

>  <Index>
1783

>  <StandardizerResult>
Dearomatize (ID: Dearomatize)
Clear Stereo (ID: ClearStereo)
Wedge Clean (ID: WedgeClean)
Mesomerize (ID: Mesomerize)
Tautomerize (ID: Tautomerize)
Aromatize (ID: Aromatize)
Add Explicit Hydrogens (ID: AddExplicitH)
Neutralize (ID: Neutralize)
Clean 2D (ID: Clean2D)

> <knn Distance>
4.0

> <CpId>
1783

$$$$
1800
  Mrv1532301301811342D          

 32 32  0  0  0  0            999 V2000
   -0.0902   -2.4348    0.0000 C   0  0  0  0  0  0  0  0  0  0  0  0
    0.6242   -2.8473    0.0000 C   0  0  0  0  0  0  0  0  0  0  0  0
    0.6242   -3.6723    0.0000 C   0  0  0  0  0  0  0  0  0  0  0  0
    1.3387   -2.4348    0.0000 N   0  0  0  0  0  0  0  0  0  0  0  0
    2.0532   -2.8473    0.0000 C   0  0  0  0  0  0  0  0  0  0  0  0
    2.0532   -3.6723    0.0000 C   0  0  0  0  0  0  0  0  0  0  0  0
    2.7676   -2.4348    0.0000 C   0  0  0  0  0  0  0  0  0  0  0  0
    3.4821   -2.8473    0.0000 C   0  0  0  0  0  0  0  0  0  0  0  0
    4.1966   -2.4348    0.0000 C   0  0  0  0  0  0  0  0  0  0  0  0
    4.9111   -2.8473    0.0000 C   0  0  0  0  0  0  0  0  0  0  0  0
    4.9111   -3.6723    0.0000 C   0  0  0  0  0  0  0  0  0  0  0  0
    5.6255   -4.0848    0.0000 I   0  0  0  0  0  0  0  0  0  0  0  0
    4.1966   -4.0848    0.0000 C   0  0  0  0  0  0  0  0  0  0  0  0
    3.4821   -3.6723    0.0000 C   0  0  0  0  0  0  0  0  0  0  0  0
    0.3223   -1.7204    0.0000 H   0  0  0  0  0  0  0  0  0  0  0  0
   -0.8047   -2.0223    0.0000 H   0  0  0  0  0  0  0  0  0  0  0  0
   -0.5027   -3.1493    0.0000 H   0  0  0  0  0  0  0  0  0  0  0  0
   -0.0902   -3.2598    0.0000 H   0  0  0  0  0  0  0  0  0  0  0  0
    0.0409   -4.2557    0.0000 H   0  0  0  0  0  0  0  0  0  0  0  0
    1.0367   -4.3868    0.0000 H   0  0  0  0  0  0  0  0  0  0  0  0
    1.4211   -3.4588    0.0000 H   0  0  0  0  0  0  0  0  0  0  0  0
    1.3387   -1.6098    0.0000 H   0  0  0  0  0  0  0  0  0  0  0  0
    2.7676   -3.2598    0.0000 H   0  0  0  0  0  0  0  0  0  0  0  0
    1.4075   -4.1859    0.0000 H   0  0  0  0  0  0  0  0  0  0  0  0
    2.1346   -4.4933    0.0000 H   0  0  0  0  0  0  0  0  0  0  0  0
    2.7872   -4.0490    0.0000 H   0  0  0  0  0  0  0  0  0  0  0  0
    3.1379   -1.6976    0.0000 H   0  0  0  0  0  0  0  0  0  0  0  0
    2.3974   -1.6976    0.0000 H   0  0  0  0  0  0  0  0  0  0  0  0
    4.1966   -1.6098    0.0000 H   0  0  0  0  0  0  0  0  0  0  0  0
    5.6255   -2.4348    0.0000 H   0  0  0  0  0  0  0  0  0  0  0  0
    4.1966   -4.9098    0.0000 H   0  0  0  0  0  0  0  0  0  0  0  0
    3.4710   -4.4973    0.0000 H   0  0  0  0  0  0  0  0  0  0  0  0
  1  2  1  0  0  0  0
  2  3  1  0  0  0  0
  2  4  1  0  0  0  0
  4  5  1  0  0  0  0
  5  6  1  0  0  0  0
  5  7  1  0  0  0  0
  7  8  1  0  0  0  0
  8  9  4  0  0  0  0
  9 10  4  0  0  0  0
 10 11  4  0  0  0  0
 11 12  1  0  0  0  0
 11 13  4  0  0  0  0
 13 14  4  0  0  0  0
  8 14  4  0  0  0  0
  1 15  1  0  0  0  0
  1 16  1  0  0  0  0
  1 17  1  0  0  0  0
  2 18  1  0  0  0  0
  3 19  1  0  0  0  0
  3 20  1  0  0  0  0
  3 21  1  0  0  0  0
  4 22  1  0  0  0  0
  5 23  1  0  0  0  0
  6 24  1  0  0  0  0
  6 25  1  0  0  0  0
  6 26  1  0  0  0  0
  7 27  1  0  0  0  0
  7 28  1  0  0  0  0
  9 29  1  0  0  0  0
 10 30  1  0  0  0  0
 13 31  1  0  0  0  0
 14 32  1  0  0  0  0
M  END
>  <InChIKey>
InChI=1S/C12H18IN/c1-9(2)14-10(3)8-11-4-6-12(13)7-5-11/h4-7,9-10,14H,8H2,1-3H3

>  <CASRN>
95896-48-3

> <Outcome>
0

>  <Index>
1800

>  <StandardizerResult>
Dearomatize (ID: Dearomatize)
Clear Stereo (ID: ClearStereo)
Wedge Clean (ID: WedgeClean)
Mesomerize (ID: Mesomerize)
Tautomerize (ID: Tautomerize)
Aromatize (ID: Aromatize)
Add Explicit Hydrogens (ID: AddExplicitH)
Neutralize (ID: Neutralize)
Clean 2D (ID: Clean2D)

> <knn Distance>
4.0

> <CpId>
1800

$$$$
1814
  Mrv1532301301811342D          

 55 58  0  0  0  0            999 V2000
    3.0488   -3.9047    0.0000 C   0  0  0  0  0  0  0  0  0  0  0  0
    2.5170   -3.2740    0.0000 C   0  0  0  0  0  0  0  0  0  0  0  0
    1.7048   -3.4193    0.0000 C   0  0  0  0  0  0  0  0  0  0  0  0
    1.1730   -2.7885    0.0000 C   0  0  0  0  0  0  0  0  0  0  0  0
    0.3609   -2.9338    0.0000 C   0  0  0  0  0  0  0  0  0  0  0  0
   -0.1709   -2.3031    0.0000 C   0  0  0  0  0  0  0  0  0  0  0  0
   -0.9830   -2.4483    0.0000 O   0  0  0  0  0  0  0  0  0  0  0  0
    0.1094   -1.5271    0.0000 C   0  0  0  0  0  0  0  0  0  0  0  0
    0.9215   -1.3819    0.0000 C   0  0  0  0  0  0  0  0  0  0  0  0
    1.4533   -2.0126    0.0000 C   0  0  0  0  0  0  0  0  0  0  0  0
    1.7336   -1.2367    0.0000 C   0  0  0  0  0  0  0  0  0  0  0  0
    2.2654   -1.8674    0.0000 C   0  0  0  0  0  0  0  0  0  0  0  0
    2.5457   -1.0915    0.0000 C   0  0  0  0  0  0  0  0  0  0  0  0
    3.3579   -0.9463    0.0000 C   0  0  0  0  0  0  0  0  0  0  0  0
    3.8897   -1.5770    0.0000 C   0  0  0  0  0  0  0  0  0  0  0  0
    4.2495   -0.8346    0.0000 C   0  0  0  0  0  0  0  0  0  0  0  0
    3.6094   -2.3529    0.0000 C   0  0  0  0  0  0  0  0  0  0  0  0
    4.2607   -2.8593    0.0000 C   0  0  0  0  0  0  0  0  0  0  0  0
    4.9435   -2.3963    0.0000 C   0  0  0  0  0  0  0  0  0  0  0  0
    4.7142   -1.6038    0.0000 C   0  0  0  0  0  0  0  0  0  0  0  0
    5.4751   -1.2849    0.0000 C   0  0  0  0  0  0  0  0  0  0  0  0
    4.8356   -0.7878    0.0000 O   0  0  0  0  0  0  0  0  0  0  0  0
    2.7973   -2.4981    0.0000 C   0  0  0  0  0  0  0  0  0  0  0  0
    2.4181   -4.4366    0.0000 H   0  0  0  0  0  0  0  0  0  0  0  0
    3.5806   -4.5355    0.0000 H   0  0  0  0  0  0  0  0  0  0  0  0
    3.6795   -3.3729    0.0000 H   0  0  0  0  0  0  0  0  0  0  0  0
    3.3291   -3.1288    0.0000 H   0  0  0  0  0  0  0  0  0  0  0  0
    1.1061   -3.9868    0.0000 H   0  0  0  0  0  0  0  0  0  0  0  0
    1.8026   -4.2384    0.0000 H   0  0  0  0  0  0  0  0  0  0  0  0
    0.0806   -3.7097    0.0000 H   0  0  0  0  0  0  0  0  0  0  0  0
   -0.0828   -0.7248    0.0000 H   0  0  0  0  0  0  0  0  0  0  0  0
   -0.6489   -1.2022    0.0000 H   0  0  0  0  0  0  0  0  0  0  0  0
    1.0628   -0.5691    0.0000 H   0  0  0  0  0  0  0  0  0  0  0  0
    0.5073   -0.6684    0.0000 H   0  0  0  0  0  0  0  0  0  0  0  0
    2.3526   -0.6912    0.0000 H   0  0  0  0  0  0  0  0  0  0  0  0
    1.9798   -0.4493    0.0000 H   0  0  0  0  0  0  0  0  0  0  0  0
    1.5356   -0.4358    0.0000 H   0  0  0  0  0  0  0  0  0  0  0  0
    3.0776   -1.7222    0.0000 H   0  0  0  0  0  0  0  0  0  0  0  0
    3.1256   -0.5046    0.0000 H   0  0  0  0  0  0  0  0  0  0  0  0
    2.6811   -0.2777    0.0000 H   0  0  0  0  0  0  0  0  0  0  0  0
    3.9512   -0.3731    0.0000 H   0  0  0  0  0  0  0  0  0  0  0  0
    3.4887   -0.1317    0.0000 H   0  0  0  0  0  0  0  0  0  0  0  0
    4.9323   -0.3715    0.0000 H   0  0  0  0  0  0  0  0  0  0  0  0
    4.6148   -0.0949    0.0000 H   0  0  0  0  0  0  0  0  0  0  0  0
    4.2020   -0.0110    0.0000 H   0  0  0  0  0  0  0  0  0  0  0  0
    4.4019   -2.1236    0.0000 H   0  0  0  0  0  0  0  0  0  0  0  0
    4.3901   -3.6740    0.0000 H   0  0  0  0  0  0  0  0  0  0  0  0
    5.0177   -3.1871    0.0000 H   0  0  0  0  0  0  0  0  0  0  0  0
    5.7549   -2.5459    0.0000 H   0  0  0  0  0  0  0  0  0  0  0  0
    5.6436   -1.9597    0.0000 H   0  0  0  0  0  0  0  0  0  0  0  0
    6.2430   -1.5866    0.0000 H   0  0  0  0  0  0  0  0  0  0  0  0
    6.1664   -0.8346    0.0000 H   0  0  0  0  0  0  0  0  0  0  0  0
    5.5096   -0.4606    0.0000 H   0  0  0  0  0  0  0  0  0  0  0  0
    4.2328   -1.3510    0.0000 H   0  0  0  0  0  0  0  0  0  0  0  0
    1.9851   -2.6433    0.0000 H   0  0  0  0  0  0  0  0  0  0  0  0
  1  2  1  0  0  0  0
  2  3  1  0  0  0  0
  3  4  1  0  0  0  0
  4  5  2  0  0  0  0
  5  6  1  0  0  0  0
  6  7  2  0  0  0  0
  6  8  1  0  0  0  0
  8  9  1  0  0  0  0
  9 10  1  0  0  0  0
  4 10  1  0  0  0  0
 10 11  1  0  0  0  0
 10 12  1  0  0  0  0
 12 13  1  0  0  0  0
 13 14  1  0  0  0  0
 14 15  1  0  0  0  0
 15 16  1  0  0  0  0
 15 17  1  0  0  0  0
 17 18  1  0  0  0  0
 18 19  1  0  0  0  0
 19 20  1  0  0  0  0
 15 20  1  0  0  0  0
 20 21  1  0  0  0  0
 20 22  1  0  0  0  0
 17 23  1  0  0  0  0
  2 23  1  0  0  0  0
 12 23  1  0  0  0  0
  1 24  1  0  0  0  0
  1 25  1  0  0  0  0
  1 26  1  0  0  0  0
  2 27  1  0  0  0  0
  3 28  1  0  0  0  0
  3 29  1  0  0  0  0
  5 30  1  0  0  0  0
  8 31  1  0  0  0  0
  8 32  1  0  0  0  0
  9 33  1  0  0  0  0
  9 34  1  0  0  0  0
 11 35  1  0  0  0  0
 11 36  1  0  0  0  0
 11 37  1  0  0  0  0
 12 38  1  0  0  0  0
 13 39  1  0  0  0  0
 13 40  1  0  0  0  0
 14 41  1  0  0  0  0
 14 42  1  0  0  0  0
 16 43  1  0  0  0  0
 16 44  1  0  0  0  0
 16 45  1  0  0  0  0
 17 46  1  0  0  0  0
 18 47  1  0  0  0  0
 18 48  1  0  0  0  0
 19 49  1  0  0  0  0
 19 50  1  0  0  0  0
 21 51  1  0  0  0  0
 21 52  1  0  0  0  0
 21 53  1  0  0  0  0
 22 54  1  0  0  0  0
 23 55  1  0  0  0  0
M  END
>  <InChIKey>
InChI=1S/C21H32O2/c1-13-11-14-12-15(22)5-8-19(14,2)16-6-9-20(3)17(18(13)16)7-10-21(20,4)23/h12-13,16-18,23H,5-11H2,1-4H3

>  <CASRN>
17021-26-0

> <Outcome>
0

>  <Index>
1814

>  <StandardizerResult>
Clear Stereo (ID: ClearStereo)
Wedge Clean (ID: WedgeClean)
Mesomerize (ID: Mesomerize)
Tautomerize (ID: Tautomerize)
Add Explicit Hydrogens (ID: AddExplicitH)
Neutralize (ID: Neutralize)
Clean 2D (ID: Clean2D)

> <knn Distance>
4.0

> <CpId>
1814

$$$$
1869
  Mrv1532301301811342D          

 51 54  0  0  0  0            999 V2000
    1.8050   -3.0209    0.0000 C   0  0  0  0  0  0  0  0  0  0  0  0
    2.6223   -3.1338    0.0000 C   0  0  0  0  0  0  0  0  0  0  0  0
    2.9332   -3.8979    0.0000 O   0  0  0  0  0  0  0  0  0  0  0  0
    3.1286   -2.4824    0.0000 C   0  0  0  0  0  0  0  0  0  0  0  0
    2.8993   -1.6899    0.0000 C   0  0  0  0  0  0  0  0  0  0  0  0
    3.5822   -1.2270    0.0000 C   0  0  0  0  0  0  0  0  0  0  0  0
    4.2335   -1.7333    0.0000 C   0  0  0  0  0  0  0  0  0  0  0  0
    5.0456   -1.5881    0.0000 C   0  0  0  0  0  0  0  0  0  0  0  0
    5.3259   -0.8122    0.0000 C   0  0  0  0  0  0  0  0  0  0  0  0
    6.1380   -0.6670    0.0000 C   0  0  0  0  0  0  0  0  0  0  0  0
    6.6699   -1.2977    0.0000 C   0  0  0  0  0  0  0  0  0  0  0  0
    7.4820   -1.1525    0.0000 C   0  0  0  0  0  0  0  0  0  0  0  0
    8.0138   -1.7832    0.0000 C   0  0  0  0  0  0  0  0  0  0  0  0
    8.8259   -1.6380    0.0000 O   0  0  0  0  0  0  0  0  0  0  0  0
    7.7335   -2.5591    0.0000 C   0  0  0  0  0  0  0  0  0  0  0  0
    6.9214   -2.7043    0.0000 C   0  0  0  0  0  0  0  0  0  0  0  0
    6.3896   -2.0736    0.0000 C   0  0  0  0  0  0  0  0  0  0  0  0
    6.1093   -2.8495    0.0000 C   0  0  0  0  0  0  0  0  0  0  0  0
    5.5774   -2.2188    0.0000 C   0  0  0  0  0  0  0  0  0  0  0  0
    5.2971   -2.9947    0.0000 C   0  0  0  0  0  0  0  0  0  0  0  0
    4.4850   -3.1400    0.0000 C   0  0  0  0  0  0  0  0  0  0  0  0
    3.9532   -2.5092    0.0000 C   0  0  0  0  0  0  0  0  0  0  0  0
    3.5933   -3.2516    0.0000 C   0  0  0  0  0  0  0  0  0  0  0  0
    1.9179   -2.2037    0.0000 H   0  0  0  0  0  0  0  0  0  0  0  0
    0.9878   -2.9081    0.0000 H   0  0  0  0  0  0  0  0  0  0  0  0
    1.6922   -3.8382    0.0000 H   0  0  0  0  0  0  0  0  0  0  0  0
    2.3184   -2.3270    0.0000 H   0  0  0  0  0  0  0  0  0  0  0  0
    2.6255   -0.9117    0.0000 H   0  0  0  0  0  0  0  0  0  0  0  0
    2.1683   -1.3076    0.0000 H   0  0  0  0  0  0  0  0  0  0  0  0
    3.9929   -0.5115    0.0000 H   0  0  0  0  0  0  0  0  0  0  0  0
    3.2187   -0.4863    0.0000 H   0  0  0  0  0  0  0  0  0  0  0  0
    4.7653   -2.3640    0.0000 H   0  0  0  0  0  0  0  0  0  0  0  0
    4.5138   -0.9574    0.0000 H   0  0  0  0  0  0  0  0  0  0  0  0
    5.1807   -0.0001    0.0000 H   0  0  0  0  0  0  0  0  0  0  0  0
    6.4183    0.1090    0.0000 H   0  0  0  0  0  0  0  0  0  0  0  0
    7.7623   -0.3765    0.0000 H   0  0  0  0  0  0  0  0  0  0  0  0
    7.9257   -3.3614    0.0000 H   0  0  0  0  0  0  0  0  0  0  0  0
    8.4918   -2.8840    0.0000 H   0  0  0  0  0  0  0  0  0  0  0  0
    6.7801   -3.5171    0.0000 H   0  0  0  0  0  0  0  0  0  0  0  0
    7.3356   -3.4178    0.0000 H   0  0  0  0  0  0  0  0  0  0  0  0
    5.4903   -3.3950    0.0000 H   0  0  0  0  0  0  0  0  0  0  0  0
    5.8631   -3.6369    0.0000 H   0  0  0  0  0  0  0  0  0  0  0  0
    6.3073   -3.6504    0.0000 H   0  0  0  0  0  0  0  0  0  0  0  0
    5.8577   -1.4429    0.0000 H   0  0  0  0  0  0  0  0  0  0  0  0
    4.7173   -3.5816    0.0000 H   0  0  0  0  0  0  0  0  0  0  0  0
    5.1617   -3.8086    0.0000 H   0  0  0  0  0  0  0  0  0  0  0  0
    3.8916   -3.7131    0.0000 H   0  0  0  0  0  0  0  0  0  0  0  0
    4.3542   -3.9545    0.0000 H   0  0  0  0  0  0  0  0  0  0  0  0
    2.8423   -2.9102    0.0000 H   0  0  0  0  0  0  0  0  0  0  0  0
    2.7808   -3.3945    0.0000 H   0  0  0  0  0  0  0  0  0  0  0  0
    3.5019   -4.0715    0.0000 H   0  0  0  0  0  0  0  0  0  0  0  0
  1  2  1  0  0  0  0
  2  3  2  0  0  0  0
  2  4  1  0  0  0  0
  4  5  1  0  0  0  0
  5  6  1  0  0  0  0
  6  7  1  0  0  0  0
  7  8  1  0  0  0  0
  8  9  1  0  0  0  0
  9 10  2  0  0  0  0
 10 11  1  0  0  0  0
 11 12  2  0  0  0  0
 12 13  1  0  0  0  0
 13 14  2  0  0  0  0
 13 15  1  0  0  0  0
 15 16  1  0  0  0  0
 16 17  1  0  0  0  0
 11 17  1  0  0  0  0
 17 18  1  0  0  0  0
 17 19  1  0  0  0  0
  8 19  1  0  0  0  0
 19 20  1  0  0  0  0
 20 21  1  0  0  0  0
 21 22  1  0  0  0  0
  4 22  1  0  0  0  0
  7 22  1  0  0  0  0
 22 23  1  0  0  0  0
  1 24  1  0  0  0  0
  1 25  1  0  0  0  0
  1 26  1  0  0  0  0
  4 27  1  0  0  0  0
  5 28  1  0  0  0  0
  5 29  1  0  0  0  0
  6 30  1  0  0  0  0
  6 31  1  0  0  0  0
  7 32  1  0  0  0  0
  8 33  1  0  0  0  0
  9 34  1  0  0  0  0
 10 35  1  0  0  0  0
 12 36  1  0  0  0  0
 15 37  1  0  0  0  0
 15 38  1  0  0  0  0
 16 39  1  0  0  0  0
 16 40  1  0  0  0  0
 18 41  1  0  0  0  0
 18 42  1  0  0  0  0
 18 43  1  0  0  0  0
 19 44  1  0  0  0  0
 20 45  1  0  0  0  0
 20 46  1  0  0  0  0
 21 47  1  0  0  0  0
 21 48  1  0  0  0  0
 23 49  1  0  0  0  0
 23 50  1  0  0  0  0
 23 51  1  0  0  0  0
M  END
>  <InChIKey>
InChI=1S/C21H28O2/c1-13(22)17-6-7-18-16-5-4-14-12-15(23)8-10-20(14,2)19(16)9-11-21(17,18)3/h4-5,12,16-19H,6-11H2,1-3H3

>  <CASRN>
152-62-5

> <Outcome>
0

>  <Index>
1869

>  <StandardizerResult>
Clear Stereo (ID: ClearStereo)
Wedge Clean (ID: WedgeClean)
Mesomerize (ID: Mesomerize)
Tautomerize (ID: Tautomerize)
Add Explicit Hydrogens (ID: AddExplicitH)
Neutralize (ID: Neutralize)
Clean 2D (ID: Clean2D)

> <knn Distance>
4.0

> <CpId>
1869

$$$$
1875
  Mrv1532301301811342D          

 24 24  0  0  0  0            999 V2000
   -0.7145    3.7125    0.0000 C   0  0  0  0  0  0  0  0  0  0  0  0
   -0.7145    2.8875    0.0000 O   0  0  0  0  0  0  0  0  0  0  0  0
   -0.0000    2.4750    0.0000 P   0  0  0  0  0  0  0  0  0  0  0  0
   -0.4125    1.7605    0.0000 S   0  0  0  0  0  0  0  0  0  0  0  0
    0.4125    3.1895    0.0000 O   0  0  0  0  0  0  0  0  0  0  0  0
    1.2375    3.1895    0.0000 C   0  0  0  0  0  0  0  0  0  0  0  0
    0.7145    2.0625    0.0000 O   0  0  0  0  0  0  0  0  0  0  0  0
    0.7145    1.2375    0.0000 C   0  0  0  0  0  0  0  0  0  0  0  0
    1.4289    0.8250    0.0000 C   0  0  0  0  0  0  0  0  0  0  0  0
    1.4289    0.0000    0.0000 C   0  0  0  0  0  0  0  0  0  0  0  0
    2.1434   -0.4125    0.0000 Cl  0  0  0  0  0  0  0  0  0  0  0  0
    0.7145   -0.4125    0.0000 C   0  0  0  0  0  0  0  0  0  0  0  0
    0.7145   -1.2375    0.0000 Cl  0  0  0  0  0  0  0  0  0  0  0  0
   -0.0000    0.0000    0.0000 C   0  0  0  0  0  0  0  0  0  0  0  0
   -0.0000    0.8250    0.0000 C   0  0  0  0  0  0  0  0  0  0  0  0
   -0.7145    1.2375    0.0000 Cl  0  0  0  0  0  0  0  0  0  0  0  0
    0.1105    3.7125    0.0000 H   0  0  0  0  0  0  0  0  0  0  0  0
   -0.7145    4.5375    0.0000 H   0  0  0  0  0  0  0  0  0  0  0  0
   -1.5395    3.7125    0.0000 H   0  0  0  0  0  0  0  0  0  0  0  0
    1.2375    2.3645    0.0000 H   0  0  0  0  0  0  0  0  0  0  0  0
    2.0625    3.1895    0.0000 H   0  0  0  0  0  0  0  0  0  0  0  0
    1.2375    4.0145    0.0000 H   0  0  0  0  0  0  0  0  0  0  0  0
    2.1434    1.2375    0.0000 H   0  0  0  0  0  0  0  0  0  0  0  0
   -0.7145   -0.4125    0.0000 H   0  0  0  0  0  0  0  0  0  0  0  0
  1  2  1  0  0  0  0
  2  3  1  0  0  0  0
  3  4  2  0  0  0  0
  3  5  1  0  0  0  0
  5  6  1  0  0  0  0
  3  7  1  0  0  0  0
  7  8  1  0  0  0  0
  8  9  4  0  0  0  0
  9 10  4  0  0  0  0
 10 11  1  0  0  0  0
 10 12  4  0  0  0  0
 12 13  1  0  0  0  0
 12 14  4  0  0  0  0
 14 15  4  0  0  0  0
  8 15  4  0  0  0  0
 15 16  1  0  0  0  0
  1 17  1  0  0  0  0
  1 18  1  0  0  0  0
  1 19  1  0  0  0  0
  6 20  1  0  0  0  0
  6 21  1  0  0  0  0
  6 22  1  0  0  0  0
  9 23  1  0  0  0  0
 14 24  1  0  0  0  0
M  END
>  <InChIKey>
InChI=1S/C8H8Cl3O3PS/c1-12-15(16,13-2)14-8-4-6(10)5(9)3-7(8)11/h3-4H,1-2H3

>  <CASRN>
299-84-3

> <Outcome>
0

>  <Index>
1875

>  <StandardizerResult>
Dearomatize (ID: Dearomatize)
Clear Stereo (ID: ClearStereo)
Wedge Clean (ID: WedgeClean)
Mesomerize (ID: Mesomerize)
Tautomerize (ID: Tautomerize)
Aromatize (ID: Aromatize)
Add Explicit Hydrogens (ID: AddExplicitH)
Neutralize (ID: Neutralize)
Clean 2D (ID: Clean2D)

> <knn Distance>
4.0

> <CpId>
1875

$$$$
1907
  Mrv1532301301811342D          

 60 63  0  0  0  0            999 V2000
    0.4129   -3.5601    0.0000 C   0  0  0  0  0  0  0  0  0  0  0  0
    1.2301   -3.6729    0.0000 C   0  0  0  0  0  0  0  0  0  0  0  0
    1.7365   -3.0216    0.0000 C   0  0  0  0  0  0  0  0  0  0  0  0
    1.4256   -2.2574    0.0000 O   0  0  0  0  0  0  0  0  0  0  0  0
    2.5537   -3.1344    0.0000 O   0  0  0  0  0  0  0  0  0  0  0  0
    3.0601   -2.4831    0.0000 C   0  0  0  0  0  0  0  0  0  0  0  0
    2.8308   -1.6906    0.0000 C   0  0  0  0  0  0  0  0  0  0  0  0
    3.5136   -1.2276    0.0000 C   0  0  0  0  0  0  0  0  0  0  0  0
    4.1650   -1.7340    0.0000 C   0  0  0  0  0  0  0  0  0  0  0  0
    4.9771   -1.5888    0.0000 C   0  0  0  0  0  0  0  0  0  0  0  0
    5.2574   -0.8129    0.0000 C   0  0  0  0  0  0  0  0  0  0  0  0
    6.0695   -0.6676    0.0000 C   0  0  0  0  0  0  0  0  0  0  0  0
    6.6013   -1.2983    0.0000 C   0  0  0  0  0  0  0  0  0  0  0  0
    7.4134   -1.1531    0.0000 C   0  0  0  0  0  0  0  0  0  0  0  0
    7.9453   -1.7838    0.0000 C   0  0  0  0  0  0  0  0  0  0  0  0
    8.7574   -1.6386    0.0000 O   0  0  0  0  0  0  0  0  0  0  0  0
    9.0377   -0.8627    0.0000 C   0  0  0  0  0  0  0  0  0  0  0  0
    8.5059   -0.2320    0.0000 O   0  0  0  0  0  0  0  0  0  0  0  0
    9.8498   -0.7175    0.0000 C   0  0  0  0  0  0  0  0  0  0  0  0
   10.1301    0.0584    0.0000 C   0  0  0  0  0  0  0  0  0  0  0  0
    7.6650   -2.5598    0.0000 C   0  0  0  0  0  0  0  0  0  0  0  0
    6.8528   -2.7050    0.0000 C   0  0  0  0  0  0  0  0  0  0  0  0
    6.3210   -2.0743    0.0000 C   0  0  0  0  0  0  0  0  0  0  0  0
    5.5089   -2.2195    0.0000 C   0  0  0  0  0  0  0  0  0  0  0  0
    5.2286   -2.9954    0.0000 C   0  0  0  0  0  0  0  0  0  0  0  0
    4.4165   -3.1406    0.0000 C   0  0  0  0  0  0  0  0  0  0  0  0
    3.8847   -2.5099    0.0000 C   0  0  0  0  0  0  0  0  0  0  0  0
    3.5248   -3.2523    0.0000 C   0  0  0  0  0  0  0  0  0  0  0  0
    0.5258   -2.7428    0.0000 H   0  0  0  0  0  0  0  0  0  0  0  0
   -0.4043   -3.4472    0.0000 H   0  0  0  0  0  0  0  0  0  0  0  0
    0.3001   -4.3773    0.0000 H   0  0  0  0  0  0  0  0  0  0  0  0
    1.1650   -4.4953    0.0000 H   0  0  0  0  0  0  0  0  0  0  0  0
    1.8509   -4.2163    0.0000 H   0  0  0  0  0  0  0  0  0  0  0  0
    2.2499   -2.3276    0.0000 H   0  0  0  0  0  0  0  0  0  0  0  0
    2.5569   -0.9124    0.0000 H   0  0  0  0  0  0  0  0  0  0  0  0
    2.0998   -1.3082    0.0000 H   0  0  0  0  0  0  0  0  0  0  0  0
    3.9244   -0.5122    0.0000 H   0  0  0  0  0  0  0  0  0  0  0  0
    3.1502   -0.4870    0.0000 H   0  0  0  0  0  0  0  0  0  0  0  0
    4.6968   -2.3647    0.0000 H   0  0  0  0  0  0  0  0  0  0  0  0
    4.4453   -0.9581    0.0000 H   0  0  0  0  0  0  0  0  0  0  0  0
    5.3987   -0.0000    0.0000 H   0  0  0  0  0  0  0  0  0  0  0  0
    4.8432   -0.0994    0.0000 H   0  0  0  0  0  0  0  0  0  0  0  0
    6.8340   -0.3575    0.0000 H   0  0  0  0  0  0  0  0  0  0  0  0
    6.4416    0.0687    0.0000 H   0  0  0  0  0  0  0  0  0  0  0  0
    7.6937   -0.3772    0.0000 H   0  0  0  0  0  0  0  0  0  0  0  0
   10.0420   -1.5198    0.0000 H   0  0  0  0  0  0  0  0  0  0  0  0
   10.6081   -1.0424    0.0000 H   0  0  0  0  0  0  0  0  0  0  0  0
   10.9060   -0.2219    0.0000 H   0  0  0  0  0  0  0  0  0  0  0  0
   10.4104    0.8344    0.0000 H   0  0  0  0  0  0  0  0  0  0  0  0
    9.3542    0.3387    0.0000 H   0  0  0  0  0  0  0  0  0  0  0  0
    8.1968   -3.1905    0.0000 H   0  0  0  0  0  0  0  0  0  0  0  0
    6.5725   -3.4809    0.0000 H   0  0  0  0  0  0  0  0  0  0  0  0
    6.0407   -2.8502    0.0000 H   0  0  0  0  0  0  0  0  0  0  0  0
    5.0873   -3.8082    0.0000 H   0  0  0  0  0  0  0  0  0  0  0  0
    5.6428   -3.7089    0.0000 H   0  0  0  0  0  0  0  0  0  0  0  0
    3.8840   -3.7708    0.0000 H   0  0  0  0  0  0  0  0  0  0  0  0
    4.4521   -3.9649    0.0000 H   0  0  0  0  0  0  0  0  0  0  0  0
    2.7208   -3.0672    0.0000 H   0  0  0  0  0  0  0  0  0  0  0  0
    2.8323   -3.7007    0.0000 H   0  0  0  0  0  0  0  0  0  0  0  0
    3.3648   -4.0616    0.0000 H   0  0  0  0  0  0  0  0  0  0  0  0
  1  2  1  0  0  0  0
  2  3  1  0  0  0  0
  3  4  2  0  0  0  0
  3  5  1  0  0  0  0
  5  6  1  0  0  0  0
  6  7  1  0  0  0  0
  7  8  1  0  0  0  0
  8  9  1  0  0  0  0
  9 10  1  0  0  0  0
 10 11  1  0  0  0  0
 11 12  1  0  0  0  0
 12 13  1  0  0  0  0
 13 14  4  0  0  0  0
 14 15  4  0  0  0  0
 15 16  1  0  0  0  0
 16 17  1  0  0  0  0
 17 18  2  0  0  0  0
 17 19  1  0  0  0  0
 19 20  1  0  0  0  0
 15 21  4  0  0  0  0
 21 22  4  0  0  0  0
 22 23  4  0  0  0  0
 13 23  4  0  0  0  0
 23 24  1  0  0  0  0
 10 24  1  0  0  0  0
 24 25  1  0  0  0  0
 25 26  1  0  0  0  0
 26 27  1  0  0  0  0
  6 27  1  0  0  0  0
  9 27  1  0  0  0  0
 27 28  1  0  0  0  0
  1 29  1  0  0  0  0
  1 30  1  0  0  0  0
  1 31  1  0  0  0  0
  2 32  1  0  0  0  0
  2 33  1  0  0  0  0
  6 34  1  0  0  0  0
  7 35  1  0  0  0  0
  7 36  1  0  0  0  0
  8 37  1  0  0  0  0
  8 38  1  0  0  0  0
  9 39  1  0  0  0  0
 10 40  1  0  0  0  0
 11 41  1  0  0  0  0
 11 42  1  0  0  0  0
 12 43  1  0  0  0  0
 12 44  1  0  0  0  0
 14 45  1  0  0  0  0
 19 46  1  0  0  0  0
 19 47  1  0  0  0  0
 20 48  1  0  0  0  0
 20 49  1  0  0  0  0
 20 50  1  0  0  0  0
 21 51  1  0  0  0  0
 22 52  1  0  0  0  0
 24 53  1  0  0  0  0
 25 54  1  0  0  0  0
 25 55  1  0  0  0  0
 26 56  1  0  0  0  0
 26 57  1  0  0  0  0
 28 58  1  0  0  0  0
 28 59  1  0  0  0  0
 28 60  1  0  0  0  0
M  END
>  <InChIKey>
InChI=1S/C24H32O4/c1-4-22(25)27-16-7-9-17-15(14-16)6-8-19-18(17)12-13-24(3)20(19)10-11-21(24)28-23(26)5-2/h7,9,14,18-21H,4-6,8,10-13H2,1-3H3

>  <CASRN>
113-38-2

> <Outcome>
0

>  <Index>
1907

>  <StandardizerResult>
Dearomatize (ID: Dearomatize)
Clear Stereo (ID: ClearStereo)
Wedge Clean (ID: WedgeClean)
Mesomerize (ID: Mesomerize)
Tautomerize (ID: Tautomerize)
Aromatize (ID: Aromatize)
Add Explicit Hydrogens (ID: AddExplicitH)
Neutralize (ID: Neutralize)
Clean 2D (ID: Clean2D)

> <knn Distance>
4.0

> <CpId>
1907

$$$$
1923
  Mrv1532301301811342D          

 38 39  0  0  0  0            999 V2000
    3.5723   -3.7125    0.0000 C   0  0  0  0  0  0  0  0  0  0  0  0
    2.8579   -4.1250    0.0000 C   0  0  0  0  0  0  0  0  0  0  0  0
    2.1434   -3.7125    0.0000 N   0  0  0  0  0  0  0  0  0  0  0  0
    1.4289   -4.1250    0.0000 C   0  0  0  0  0  0  0  0  0  0  0  0
    0.7145   -3.7125    0.0000 C   0  0  0  0  0  0  0  0  0  0  0  0
   -0.0000   -4.1250    0.0000 C   0  0  0  0  0  0  0  0  0  0  0  0
   -0.7145   -3.7125    0.0000 C   0  0  0  0  0  0  0  0  0  0  0  0
   -0.7145   -2.8875    0.0000 C   0  0  0  0  0  0  0  0  0  0  0  0
   -0.0000   -2.4750    0.0000 C   0  0  0  0  0  0  0  0  0  0  0  0
    0.7145   -2.8875    0.0000 C   0  0  0  0  0  0  0  0  0  0  0  0
    4.2868   -4.1250    0.0000 N   0  0  0  0  0  0  0  0  0  0  0  0
    5.0013   -3.7125    0.0000 C   0  0  0  0  0  0  0  0  0  0  0  0
    5.7158   -4.1250    0.0000 C   0  0  0  0  0  0  0  0  0  0  0  0
    6.4302   -3.7125    0.0000 C   0  0  0  0  0  0  0  0  0  0  0  0
    7.1447   -4.1250    0.0000 C   0  0  0  0  0  0  0  0  0  0  0  0
    7.1447   -4.9500    0.0000 C   0  0  0  0  0  0  0  0  0  0  0  0
    6.4302   -5.3625    0.0000 C   0  0  0  0  0  0  0  0  0  0  0  0
    5.7158   -4.9500    0.0000 C   0  0  0  0  0  0  0  0  0  0  0  0
    3.9426   -2.9753    0.0000 H   0  0  0  0  0  0  0  0  0  0  0  0
    3.2021   -2.9753    0.0000 H   0  0  0  0  0  0  0  0  0  0  0  0
    2.4876   -4.8622    0.0000 H   0  0  0  0  0  0  0  0  0  0  0  0
    3.2281   -4.8622    0.0000 H   0  0  0  0  0  0  0  0  0  0  0  0
    2.1434   -2.8875    0.0000 H   0  0  0  0  0  0  0  0  0  0  0  0
    1.0587   -4.8622    0.0000 H   0  0  0  0  0  0  0  0  0  0  0  0
    1.7992   -4.8622    0.0000 H   0  0  0  0  0  0  0  0  0  0  0  0
   -0.0000   -4.9500    0.0000 H   0  0  0  0  0  0  0  0  0  0  0  0
   -1.4289   -4.1250    0.0000 H   0  0  0  0  0  0  0  0  0  0  0  0
   -1.4289   -2.4750    0.0000 H   0  0  0  0  0  0  0  0  0  0  0  0
   -0.0000   -1.6500    0.0000 H   0  0  0  0  0  0  0  0  0  0  0  0
    1.4289   -2.4750    0.0000 H   0  0  0  0  0  0  0  0  0  0  0  0
    4.2868   -4.9500    0.0000 H   0  0  0  0  0  0  0  0  0  0  0  0
    5.3716   -2.9753    0.0000 H   0  0  0  0  0  0  0  0  0  0  0  0
    4.6310   -2.9753    0.0000 H   0  0  0  0  0  0  0  0  0  0  0  0
    6.4302   -2.8875    0.0000 H   0  0  0  0  0  0  0  0  0  0  0  0
    7.8592   -3.7125    0.0000 H   0  0  0  0  0  0  0  0  0  0  0  0
    7.8592   -5.3625    0.0000 H   0  0  0  0  0  0  0  0  0  0  0  0
    6.4302   -6.1875    0.0000 H   0  0  0  0  0  0  0  0  0  0  0  0
    5.0013   -5.3625    0.0000 H   0  0  0  0  0  0  0  0  0  0  0  0
  1  2  1  0  0  0  0
  2  3  1  0  0  0  0
  3  4  1  0  0  0  0
  4  5  1  0  0  0  0
  5  6  4  0  0  0  0
  6  7  4  0  0  0  0
  7  8  4  0  0  0  0
  8  9  4  0  0  0  0
  9 10  4  0  0  0  0
  5 10  4  0  0  0  0
  1 11  1  0  0  0  0
 11 12  1  0  0  0  0
 12 13  1  0  0  0  0
 13 14  4  0  0  0  0
 14 15  4  0  0  0  0
 15 16  4  0  0  0  0
 16 17  4  0  0  0  0
 17 18  4  0  0  0  0
 13 18  4  0  0  0  0
  1 19  1  0  0  0  0
  1 20  1  0  0  0  0
  2 21  1  0  0  0  0
  2 22  1  0  0  0  0
  3 23  1  0  0  0  0
  4 24  1  0  0  0  0
  4 25  1  0  0  0  0
  6 26  1  0  0  0  0
  7 27  1  0  0  0  0
  8 28  1  0  0  0  0
  9 29  1  0  0  0  0
 10 30  1  0  0  0  0
 11 31  1  0  0  0  0
 12 32  1  0  0  0  0
 12 33  1  0  0  0  0
 14 34  1  0  0  0  0
 15 35  1  0  0  0  0
 16 36  1  0  0  0  0
 17 37  1  0  0  0  0
 18 38  1  0  0  0  0
M  END
>  <InChIKey>
InChI=1S/C16H20N2/c1-3-7-15(8-4-1)13-17-11-12-18-14-16-9-5-2-6-10-16/h1-10,17-18H,11-14H2

>  <CASRN>
140-28-3

> <Outcome>
0

>  <Index>
1923

>  <StandardizerResult>
Dearomatize (ID: Dearomatize)
Clear Stereo (ID: ClearStereo)
Wedge Clean (ID: WedgeClean)
Mesomerize (ID: Mesomerize)
Tautomerize (ID: Tautomerize)
Aromatize (ID: Aromatize)
Add Explicit Hydrogens (ID: AddExplicitH)
Neutralize (ID: Neutralize)
Clean 2D (ID: Clean2D)

> <knn Distance>
4.0

> <CpId>
1923

$$$$
1937
  Mrv1532301301811342D          

 73 75  0  0  0  0            999 V2000
    1.4333   -2.8108    0.0000 C   0  0  0  0  0  0  0  0  0  0  0  0
    0.8813   -2.1977    0.0000 C   0  0  0  0  0  0  0  0  0  0  0  0
    0.0743   -2.3692    0.0000 C   0  0  0  0  0  0  0  0  0  0  0  0
   -0.1806   -3.1539    0.0000 C   0  0  0  0  0  0  0  0  0  0  0  0
   -0.9876   -3.3254    0.0000 C   0  0  0  0  0  0  0  0  0  0  0  0
   -1.2425   -4.1100    0.0000 C   0  0  0  0  0  0  0  0  0  0  0  0
   -1.4975   -4.8946    0.0000 C   0  0  0  0  0  0  0  0  0  0  0  0
   -0.4579   -4.3649    0.0000 C   0  0  0  0  0  0  0  0  0  0  0  0
   -2.0271   -3.8551    0.0000 O   0  0  0  0  0  0  0  0  0  0  0  0
    1.1362   -1.4131    0.0000 C   0  0  0  0  0  0  0  0  0  0  0  0
    0.6513   -0.7456    0.0000 C   0  0  0  0  0  0  0  0  0  0  0  0
    1.1362   -0.0782    0.0000 C   0  0  0  0  0  0  0  0  0  0  0  0
    1.9209   -0.3331    0.0000 C   0  0  0  0  0  0  0  0  0  0  0  0
    2.6353    0.0794    0.0000 C   0  0  0  0  0  0  0  0  0  0  0  0
    3.3498   -0.3331    0.0000 C   0  0  0  0  0  0  0  0  0  0  0  0
    3.3498   -1.1581    0.0000 C   0  0  0  0  0  0  0  0  0  0  0  0
    2.6353   -1.5706    0.0000 C   0  0  0  0  0  0  0  0  0  0  0  0
    1.9209   -1.1581    0.0000 C   0  0  0  0  0  0  0  0  0  0  0  0
    1.8346   -1.9786    0.0000 C   0  0  0  0  0  0  0  0  0  0  0  0
    2.6353    0.9044    0.0000 C   0  0  0  0  0  0  0  0  0  0  0  0
    1.9209    1.3169    0.0000 C   0  0  0  0  0  0  0  0  0  0  0  0
    1.9209    2.1419    0.0000 C   0  0  0  0  0  0  0  0  0  0  0  0
    1.2064    2.5544    0.0000 C   0  0  0  0  0  0  0  0  0  0  0  0
    1.2064    3.3794    0.0000 C   0  0  0  0  0  0  0  0  0  0  0  0
    0.4919    3.7919    0.0000 O   0  0  0  0  0  0  0  0  0  0  0  0
    1.9209    3.7919    0.0000 C   0  0  0  0  0  0  0  0  0  0  0  0
    2.6353    3.3794    0.0000 C   0  0  0  0  0  0  0  0  0  0  0  0
    2.6353    2.5544    0.0000 C   0  0  0  0  0  0  0  0  0  0  0  0
    3.3498    2.1419    0.0000 C   0  0  0  0  0  0  0  0  0  0  0  0
    0.6860   -3.1603    0.0000 H   0  0  0  0  0  0  0  0  0  0  0  0
    1.5500   -3.6275    0.0000 H   0  0  0  0  0  0  0  0  0  0  0  0
    2.2486   -2.9371    0.0000 H   0  0  0  0  0  0  0  0  0  0  0  0
    0.6264   -2.9823    0.0000 H   0  0  0  0  0  0  0  0  0  0  0  0
   -0.1438   -1.5736    0.0000 H   0  0  0  0  0  0  0  0  0  0  0  0
   -0.6941   -2.0691    0.0000 H   0  0  0  0  0  0  0  0  0  0  0  0
   -0.0974   -3.9746    0.0000 H   0  0  0  0  0  0  0  0  0  0  0  0
   -0.7326   -2.5408    0.0000 H   0  0  0  0  0  0  0  0  0  0  0  0
   -1.6377   -2.8175    0.0000 H   0  0  0  0  0  0  0  0  0  0  0  0
   -1.8121   -3.3542    0.0000 H   0  0  0  0  0  0  0  0  0  0  0  0
   -2.2821   -4.6397    0.0000 H   0  0  0  0  0  0  0  0  0  0  0  0
   -1.7524   -5.6792    0.0000 H   0  0  0  0  0  0  0  0  0  0  0  0
   -0.7128   -5.1496    0.0000 H   0  0  0  0  0  0  0  0  0  0  0  0
    0.0005   -5.0508    0.0000 H   0  0  0  0  0  0  0  0  0  0  0  0
    0.3646   -4.4294    0.0000 H   0  0  0  0  0  0  0  0  0  0  0  0
   -0.6664   -3.5667    0.0000 H   0  0  0  0  0  0  0  0  0  0  0  0
   -2.7993   -3.5645    0.0000 H   0  0  0  0  0  0  0  0  0  0  0  0
    0.3214   -1.5421    0.0000 H   0  0  0  0  0  0  0  0  0  0  0  0
    0.1293   -0.1068    0.0000 H   0  0  0  0  0  0  0  0  0  0  0  0
   -0.1662   -0.6344    0.0000 H   0  0  0  0  0  0  0  0  0  0  0  0
    1.2795    0.7343    0.0000 H   0  0  0  0  0  0  0  0  0  0  0  0
    0.5428    0.4949    0.0000 H   0  0  0  0  0  0  0  0  0  0  0  0
    2.6353   -0.7456    0.0000 H   0  0  0  0  0  0  0  0  0  0  0  0
    4.1734   -0.2852    0.0000 H   0  0  0  0  0  0  0  0  0  0  0  0
    3.8031    0.3561    0.0000 H   0  0  0  0  0  0  0  0  0  0  0  0
    3.8031   -1.8474    0.0000 H   0  0  0  0  0  0  0  0  0  0  0  0
    4.1734   -1.2061    0.0000 H   0  0  0  0  0  0  0  0  0  0  0  0
    2.7525   -2.3873    0.0000 H   0  0  0  0  0  0  0  0  0  0  0  0
    3.2564   -2.1137    0.0000 H   0  0  0  0  0  0  0  0  0  0  0  0
    2.1415   -2.7444    0.0000 H   0  0  0  0  0  0  0  0  0  0  0  0
    2.6070   -2.2686    0.0000 H   0  0  0  0  0  0  0  0  0  0  0  0
    1.0296   -2.1590    0.0000 H   0  0  0  0  0  0  0  0  0  0  0  0
    3.3498    1.3169    0.0000 H   0  0  0  0  0  0  0  0  0  0  0  0
    1.1664    1.6508    0.0000 H   0  0  0  0  0  0  0  0  0  0  0  0
    0.4981    2.9773    0.0000 H   0  0  0  0  0  0  0  0  0  0  0  0
    0.4801    2.1631    0.0000 H   0  0  0  0  0  0  0  0  0  0  0  0
    1.2064    4.2044    0.0000 H   0  0  0  0  0  0  0  0  0  0  0  0
   -0.2241    4.2017    0.0000 H   0  0  0  0  0  0  0  0  0  0  0  0
    2.5528    4.3222    0.0000 H   0  0  0  0  0  0  0  0  0  0  0  0
    2.0641    4.6043    0.0000 H   0  0  0  0  0  0  0  0  0  0  0  0
    3.4197    3.1237    0.0000 H   0  0  0  0  0  0  0  0  0  0  0  0
    3.3944    3.7024    0.0000 H   0  0  0  0  0  0  0  0  0  0  0  0
    4.1734    2.1898    0.0000 H   0  0  0  0  0  0  0  0  0  0  0  0
    3.8031    2.8311    0.0000 H   0  0  0  0  0  0  0  0  0  0  0  0
  1  2  1  0  0  0  0
  2  3  1  0  0  0  0
  3  4  1  0  0  0  0
  4  5  1  0  0  0  0
  5  6  1  0  0  0  0
  6  7  1  0  0  0  0
  6  8  1  0  0  0  0
  6  9  1  0  0  0  0
  2 10  1  0  0  0  0
 10 11  1  0  0  0  0
 11 12  1  0  0  0  0
 12 13  1  0  0  0  0
 13 14  1  0  0  0  0
 14 15  1  0  0  0  0
 15 16  1  0  0  0  0
 16 17  1  0  0  0  0
 17 18  1  0  0  0  0
 10 18  1  0  0  0  0
 13 18  1  0  0  0  0
 18 19  1  0  0  0  0
 14 20  2  0  0  0  0
 20 21  1  4  0  0  0
 21 22  2  0  0  0  0
 22 23  1  4  0  0  0
 23 24  1  0  0  0  0
 24 25  1  0  0  0  0
 24 26  1  0  0  0  0
 26 27  1  0  0  0  0
 27 28  1  0  0  0  0
 22 28  1  0  0  0  0
 28 29  2  0  0  0  0
  1 30  1  0  0  0  0
  1 31  1  0  0  0  0
  1 32  1  0  0  0  0
  2 33  1  0  0  0  0
  3 34  1  0  0  0  0
  3 35  1  0  0  0  0
  4 36  1  0  0  0  0
  4 37  1  0  0  0  0
  5 38  1  0  0  0  0
  5 39  1  0  0  0  0
  7 40  1  0  0  0  0
  7 41  1  0  0  0  0
  7 42  1  0  0  0  0
  8 43  1  0  0  0  0
  8 44  1  0  0  0  0
  8 45  1  0  0  0  0
  9 46  1  0  0  0  0
 10 47  1  0  0  0  0
 11 48  1  0  0  0  0
 11 49  1  0  0  0  0
 12 50  1  0  0  0  0
 12 51  1  0  0  0  0
 13 52  1  0  0  0  0
 15 53  1  0  0  0  0
 15 54  1  0  0  0  0
 16 55  1  0  0  0  0
 16 56  1  0  0  0  0
 17 57  1  0  0  0  0
 17 58  1  0  0  0  0
 19 59  1  0  0  0  0
 19 60  1  0  0  0  0
 19 61  1  0  0  0  0
 20 62  1  0  0  0  0
 21 63  1  0  0  0  0
 23 64  1  0  0  0  0
 23 65  1  0  0  0  0
 24 66  1  0  0  0  0
 25 67  1  0  0  0  0
 26 68  1  0  0  0  0
 26 69  1  0  0  0  0
 27 70  1  0  0  0  0
 27 71  1  0  0  0  0
 29 72  1  0  0  0  0
 29 73  1  0  0  0  0
M  END
>  <InChIKey>
InChI=1S/C27H44O2/c1-19-10-13-23(28)18-22(19)12-11-21-9-7-17-27(5)24(14-15-25(21)27)20(2)8-6-16-26(3,4)29/h11-12,20,23-25,28-29H,1,6-10,13-18H2,2-5H3

>  <CASRN>
19356-17-3

> <Outcome>
0

>  <Index>
1937

>  <StandardizerResult>
Clear Stereo (ID: ClearStereo)
Wedge Clean (ID: WedgeClean)
Mesomerize (ID: Mesomerize)
Tautomerize (ID: Tautomerize)
Add Explicit Hydrogens (ID: AddExplicitH)
Neutralize (ID: Neutralize)
Clean 2D (ID: Clean2D)

> <knn Distance>
4.0

> <CpId>
1937

$$$$
1978
  Mrv1532301301811342D          

 46 48  0  0  0  0            999 V2000
   -1.3823    0.8630    0.0000 C   0  0  0  0  0  0  0  0  0  0  0  0
   -1.3823    0.0380    0.0000 C   0  0  0  0  0  0  0  0  0  0  0  0
   -2.0968   -0.3745    0.0000 O   0  0  0  0  0  0  0  0  0  0  0  0
   -0.6679   -0.3745    0.0000 O   0  0  0  0  0  0  0  0  0  0  0  0
   -0.6679   -1.1995    0.0000 C   0  0  0  0  0  0  0  0  0  0  0  0
    0.0466   -1.6120    0.0000 C   0  0  0  0  0  0  0  0  0  0  0  0
    0.0466   -2.4370    0.0000 C   0  0  0  0  0  0  0  0  0  0  0  0
   -0.6679   -2.8495    0.0000 C   0  0  0  0  0  0  0  0  0  0  0  0
   -1.3823   -2.4370    0.0000 C   0  0  0  0  0  0  0  0  0  0  0  0
   -1.3823   -1.6120    0.0000 C   0  0  0  0  0  0  0  0  0  0  0  0
   -0.6679   -3.6745    0.0000 C   0  0  0  0  0  0  0  0  0  0  0  0
   -1.3823   -4.0870    0.0000 C   0  0  0  0  0  0  0  0  0  0  0  0
   -1.3823   -4.9120    0.0000 C   0  0  0  0  0  0  0  0  0  0  0  0
   -2.0968   -5.3245    0.0000 C   0  0  0  0  0  0  0  0  0  0  0  0
   -2.8113   -4.9120    0.0000 C   0  0  0  0  0  0  0  0  0  0  0  0
   -3.5258   -5.3245    0.0000 O   0  0  0  0  0  0  0  0  0  0  0  0
   -3.5258   -6.1495    0.0000 C   0  0  0  0  0  0  0  0  0  0  0  0
   -2.8113   -6.5620    0.0000 C   0  0  0  0  0  0  0  0  0  0  0  0
   -4.2402   -6.5620    0.0000 O   0  0  0  0  0  0  0  0  0  0  0  0
   -2.8113   -4.0870    0.0000 C   0  0  0  0  0  0  0  0  0  0  0  0
   -2.0968   -3.6745    0.0000 C   0  0  0  0  0  0  0  0  0  0  0  0
    0.0466   -4.0870    0.0000 C   0  0  0  0  0  0  0  0  0  0  0  0
    0.7611   -3.6745    0.0000 C   0  0  0  0  0  0  0  0  0  0  0  0
    1.4755   -4.0870    0.0000 C   0  0  0  0  0  0  0  0  0  0  0  0
    1.4755   -4.9120    0.0000 C   0  0  0  0  0  0  0  0  0  0  0  0
    0.7611   -5.3245    0.0000 C   0  0  0  0  0  0  0  0  0  0  0  0
    0.0466   -4.9120    0.0000 N   0  0  0  0  0  0  0  0  0  0  0  0
   -0.5573    0.8630    0.0000 H   0  0  0  0  0  0  0  0  0  0  0  0
   -1.3823    1.6880    0.0000 H   0  0  0  0  0  0  0  0  0  0  0  0
   -2.2073    0.8630    0.0000 H   0  0  0  0  0  0  0  0  0  0  0  0
    0.7611   -1.1995    0.0000 H   0  0  0  0  0  0  0  0  0  0  0  0
    0.7611   -2.8495    0.0000 H   0  0  0  0  0  0  0  0  0  0  0  0
   -2.0968   -2.8495    0.0000 H   0  0  0  0  0  0  0  0  0  0  0  0
   -2.0968   -1.1995    0.0000 H   0  0  0  0  0  0  0  0  0  0  0  0
   -1.3823   -3.2620    0.0000 H   0  0  0  0  0  0  0  0  0  0  0  0
   -0.6679   -5.3245    0.0000 H   0  0  0  0  0  0  0  0  0  0  0  0
   -2.0968   -6.1495    0.0000 H   0  0  0  0  0  0  0  0  0  0  0  0
   -3.5258   -6.9745    0.0000 H   0  0  0  0  0  0  0  0  0  0  0  0
   -2.8113   -7.3870    0.0000 H   0  0  0  0  0  0  0  0  0  0  0  0
   -2.0968   -6.9745    0.0000 H   0  0  0  0  0  0  0  0  0  0  0  0
   -3.5258   -3.6745    0.0000 H   0  0  0  0  0  0  0  0  0  0  0  0
   -2.8113   -3.2620    0.0000 H   0  0  0  0  0  0  0  0  0  0  0  0
    0.0466   -3.2620    0.0000 H   0  0  0  0  0  0  0  0  0  0  0  0
    2.1900   -3.6745    0.0000 H   0  0  0  0  0  0  0  0  0  0  0  0
    2.1900   -5.3245    0.0000 H   0  0  0  0  0  0  0  0  0  0  0  0
    0.7611   -6.1495    0.0000 H   0  0  0  0  0  0  0  0  0  0  0  0
  1  2  1  0  0  0  0
  2  3  2  0  0  0  0
  2  4  1  0  0  0  0
  4  5  1  0  0  0  0
  5  6  4  0  0  0  0
  6  7  4  0  0  0  0
  7  8  4  0  0  0  0
  8  9  4  0  0  0  0
  9 10  4  0  0  0  0
  5 10  4  0  0  0  0
  8 11  1  0  0  0  0
 11 12  1  0  0  0  0
 12 13  4  0  0  0  0
 13 14  4  0  0  0  0
 14 15  4  0  0  0  0
 15 16  1  0  0  0  0
 16 17  1  0  0  0  0
 17 18  1  0  0  0  0
 17 19  2  0  0  0  0
 15 20  4  0  0  0  0
 20 21  4  0  0  0  0
 12 21  4  0  0  0  0
 11 22  1  0  0  0  0
 22 23  4  0  0  0  0
 23 24  4  0  0  0  0
 24 25  4  0  0  0  0
 25 26  4  0  0  0  0
 26 27  4  0  0  0  0
 22 27  4  0  0  0  0
  1 28  1  0  0  0  0
  1 29  1  0  0  0  0
  1 30  1  0  0  0  0
  6 31  1  0  0  0  0
  7 32  1  0  0  0  0
  9 33  1  0  0  0  0
 10 34  1  0  0  0  0
 11 35  1  0  0  0  0
 13 36  1  0  0  0  0
 14 37  1  0  0  0  0
 18 38  1  0  0  0  0
 18 39  1  0  0  0  0
 18 40  1  0  0  0  0
 20 41  1  0  0  0  0
 21 42  1  0  0  0  0
 23 43  1  0  0  0  0
 24 44  1  0  0  0  0
 25 45  1  0  0  0  0
 26 46  1  0  0  0  0
M  END
>  <InChIKey>
InChI=1S/C22H19NO4/c1-15(24)26-19-10-6-17(7-11-19)22(21-5-3-4-14-23-21)18-8-12-20(13-9-18)27-16(2)25/h3-14,22H,1-2H3

>  <CASRN>
603-50-9

> <Outcome>
0

>  <Index>
1978

>  <StandardizerResult>
Dearomatize (ID: Dearomatize)
Clear Stereo (ID: ClearStereo)
Wedge Clean (ID: WedgeClean)
Mesomerize (ID: Mesomerize)
Tautomerize (ID: Tautomerize)
Aromatize (ID: Aromatize)
Add Explicit Hydrogens (ID: AddExplicitH)
Neutralize (ID: Neutralize)
Clean 2D (ID: Clean2D)

> <knn Distance>
4.0

> <CpId>
1978

$$$$
2037
  Mrv1532301301811342D          

 80 83  0  0  0  0            999 V2000
    8.3484   -0.1069    0.0000 C   0  0  0  0  0  0  0  0  0  0  0  0
    7.5234   -0.1069    0.0000 C   0  0  0  0  0  0  0  0  0  0  0  0
    7.1109   -0.8213    0.0000 C   0  0  0  0  0  0  0  0  0  0  0  0
    6.2859   -0.8213    0.0000 C   0  0  0  0  0  0  0  0  0  0  0  0
    5.8734   -1.5358    0.0000 C   0  0  0  0  0  0  0  0  0  0  0  0
    5.0484   -1.5358    0.0000 C   0  0  0  0  0  0  0  0  0  0  0  0
    4.6359   -2.2503    0.0000 C   0  0  0  0  0  0  0  0  0  0  0  0
    4.6359   -0.8213    0.0000 C   0  0  0  0  0  0  0  0  0  0  0  0
    3.8154   -0.7351    0.0000 C   0  0  0  0  0  0  0  0  0  0  0  0
    3.6438    0.0719    0.0000 C   0  0  0  0  0  0  0  0  0  0  0  0
    4.3583    0.4844    0.0000 C   0  0  0  0  0  0  0  0  0  0  0  0
    4.5298    1.2913    0.0000 C   0  0  0  0  0  0  0  0  0  0  0  0
    3.9167    1.8434    0.0000 C   0  0  0  0  0  0  0  0  0  0  0  0
    4.0883    2.6503    0.0000 C   0  0  0  0  0  0  0  0  0  0  0  0
    4.8729    2.9053    0.0000 C   0  0  0  0  0  0  0  0  0  0  0  0
    5.0444    3.7122    0.0000 C   0  0  0  0  0  0  0  0  0  0  0  0
    5.8290    3.9672    0.0000 C   0  0  0  0  0  0  0  0  0  0  0  0
    6.0006    4.7742    0.0000 O   0  0  0  0  0  0  0  0  0  0  0  0
    6.4421    3.4152    0.0000 C   0  0  0  0  0  0  0  0  0  0  0  0
    6.2706    2.6082    0.0000 C   0  0  0  0  0  0  0  0  0  0  0  0
    5.4860    2.3532    0.0000 C   0  0  0  0  0  0  0  0  0  0  0  0
    6.0991    1.8012    0.0000 C   0  0  0  0  0  0  0  0  0  0  0  0
    5.3145    1.5463    0.0000 C   0  0  0  0  0  0  0  0  0  0  0  0
    5.9276    0.9942    0.0000 C   0  0  0  0  0  0  0  0  0  0  0  0
    5.7560    0.1873    0.0000 C   0  0  0  0  0  0  0  0  0  0  0  0
    4.9714   -0.0677    0.0000 C   0  0  0  0  0  0  0  0  0  0  0  0
    5.5234   -0.6808    0.0000 C   0  0  0  0  0  0  0  0  0  0  0  0
    7.5234   -1.5358    0.0000 C   0  0  0  0  0  0  0  0  0  0  0  0
    8.3484   -1.5358    0.0000 C   0  0  0  0  0  0  0  0  0  0  0  0
    7.1109   -2.2503    0.0000 C   0  0  0  0  0  0  0  0  0  0  0  0
    8.3484   -0.9319    0.0000 H   0  0  0  0  0  0  0  0  0  0  0  0
    9.1734   -0.1069    0.0000 H   0  0  0  0  0  0  0  0  0  0  0  0
    8.3484    0.7181    0.0000 H   0  0  0  0  0  0  0  0  0  0  0  0
    7.4754    0.7167    0.0000 H   0  0  0  0  0  0  0  0  0  0  0  0
    6.8341    0.3465    0.0000 H   0  0  0  0  0  0  0  0  0  0  0  0
    6.6984   -0.1069    0.0000 H   0  0  0  0  0  0  0  0  0  0  0  0
    5.9401   -0.0723    0.0000 H   0  0  0  0  0  0  0  0  0  0  0  0
    6.6984   -1.5358    0.0000 H   0  0  0  0  0  0  0  0  0  0  0  0
    5.5912   -2.3111    0.0000 H   0  0  0  0  0  0  0  0  0  0  0  0
    6.1555   -2.3111    0.0000 H   0  0  0  0  0  0  0  0  0  0  0  0
    4.2234   -1.5358    0.0000 H   0  0  0  0  0  0  0  0  0  0  0  0
    3.8110   -2.2372    0.0000 H   0  0  0  0  0  0  0  0  0  0  0  0
    4.2009   -2.9513    0.0000 H   0  0  0  0  0  0  0  0  0  0  0  0
    5.0139   -2.9836    0.0000 H   0  0  0  0  0  0  0  0  0  0  0  0
    4.2234   -0.1069    0.0000 H   0  0  0  0  0  0  0  0  0  0  0  0
    2.9910   -0.7039    0.0000 H   0  0  0  0  0  0  0  0  0  0  0  0
    3.1943   -1.2782    0.0000 H   0  0  0  0  0  0  0  0  0  0  0  0
    3.1359    0.7220    0.0000 H   0  0  0  0  0  0  0  0  0  0  0  0
    2.8209    0.0143    0.0000 H   0  0  0  0  0  0  0  0  0  0  0  0
    5.1429    0.7393    0.0000 H   0  0  0  0  0  0  0  0  0  0  0  0
    3.7452    1.0364    0.0000 H   0  0  0  0  0  0  0  0  0  0  0  0
    3.2171    2.2805    0.0000 H   0  0  0  0  0  0  0  0  0  0  0  0
    3.0998    1.7285    0.0000 H   0  0  0  0  0  0  0  0  0  0  0  0
    3.7994    3.4231    0.0000 H   0  0  0  0  0  0  0  0  0  0  0  0
    4.7443    4.4807    0.0000 H   0  0  0  0  0  0  0  0  0  0  0  0
    4.2488    3.9304    0.0000 H   0  0  0  0  0  0  0  0  0  0  0  0
    6.6137    4.2221    0.0000 H   0  0  0  0  0  0  0  0  0  0  0  0
    5.7456    5.5588    0.0000 H   0  0  0  0  0  0  0  0  0  0  0  0
    7.1418    2.9780    0.0000 H   0  0  0  0  0  0  0  0  0  0  0  0
    7.2591    3.5300    0.0000 H   0  0  0  0  0  0  0  0  0  0  0  0
    6.9072    2.0834    0.0000 H   0  0  0  0  0  0  0  0  0  0  0  0
    5.6575    3.1602    0.0000 H   0  0  0  0  0  0  0  0  0  0  0  0
    6.3583    1.0180    0.0000 H   0  0  0  0  0  0  0  0  0  0  0  0
    6.7182    1.2559    0.0000 H   0  0  0  0  0  0  0  0  0  0  0  0
    6.9088    1.6429    0.0000 H   0  0  0  0  0  0  0  0  0  0  0  0
    4.7014    2.0983    0.0000 H   0  0  0  0  0  0  0  0  0  0  0  0
    6.2506    0.2351    0.0000 H   0  0  0  0  0  0  0  0  0  0  0  0
    6.6280    0.5583    0.0000 H   0  0  0  0  0  0  0  0  0  0  0  0
    6.5064   -0.1557    0.0000 H   0  0  0  0  0  0  0  0  0  0  0  0
    4.9491    0.3588    0.0000 H   0  0  0  0  0  0  0  0  0  0  0  0
    4.8461   -1.1518    0.0000 H   0  0  0  0  0  0  0  0  0  0  0  0
    5.1188   -1.3997    0.0000 H   0  0  0  0  0  0  0  0  0  0  0  0
    5.4722   -1.5042    0.0000 H   0  0  0  0  0  0  0  0  0  0  0  0
    7.9359   -0.8213    0.0000 H   0  0  0  0  0  0  0  0  0  0  0  0
    8.0326   -2.2980    0.0000 H   0  0  0  0  0  0  0  0  0  0  0  0
    8.9317   -2.1192    0.0000 H   0  0  0  0  0  0  0  0  0  0  0  0
    9.1106   -1.2201    0.0000 H   0  0  0  0  0  0  0  0  0  0  0  0
    6.5481   -2.8535    0.0000 H   0  0  0  0  0  0  0  0  0  0  0  0
    7.1157   -3.0753    0.0000 H   0  0  0  0  0  0  0  0  0  0  0  0
    7.6807   -2.8469    0.0000 H   0  0  0  0  0  0  0  0  0  0  0  0
  1  2  1  0  0  0  0
  2  3  1  0  0  0  0
  3  4  1  0  0  0  0
  4  5  1  0  0  0  0
  5  6  1  0  0  0  0
  6  7  1  0  0  0  0
  6  8  1  0  0  0  0
  8  9  1  0  0  0  0
  9 10  1  0  0  0  0
 10 11  1  0  0  0  0
 11 12  1  0  0  0  0
 12 13  1  0  0  0  0
 13 14  1  0  0  0  0
 14 15  2  0  0  0  0
 15 16  1  0  0  0  0
 16 17  1  0  0  0  0
 17 18  1  0  0  0  0
 17 19  1  0  0  0  0
 19 20  1  0  0  0  0
 20 21  1  0  0  0  0
 15 21  1  0  0  0  0
 21 22  1  0  0  0  0
 21 23  1  0  0  0  0
 12 23  1  0  0  0  0
 23 24  1  0  0  0  0
 24 25  1  0  0  0  0
 25 26  1  0  0  0  0
  8 26  1  0  0  0  0
 11 26  1  0  0  0  0
 26 27  1  0  0  0  0
  3 28  1  0  0  0  0
 28 29  1  0  0  0  0
 28 30  1  0  0  0  0
  1 31  1  0  0  0  0
  1 32  1  0  0  0  0
  1 33  1  0  0  0  0
  2 34  1  0  0  0  0
  2 35  1  0  0  0  0
  3 36  1  0  0  0  0
  4 37  1  0  0  0  0
  4 38  1  0  0  0  0
  5 39  1  0  0  0  0
  5 40  1  0  0  0  0
  6 41  1  0  0  0  0
  7 42  1  0  0  0  0
  7 43  1  0  0  0  0
  7 44  1  0  0  0  0
  8 45  1  0  0  0  0
  9 46  1  0  0  0  0
  9 47  1  0  0  0  0
 10 48  1  0  0  0  0
 10 49  1  0  0  0  0
 11 50  1  0  0  0  0
 12 51  1  0  0  0  0
 13 52  1  0  0  0  0
 13 53  1  0  0  0  0
 14 54  1  0  0  0  0
 16 55  1  0  0  0  0
 16 56  1  0  0  0  0
 17 57  1  0  0  0  0
 18 58  1  0  0  0  0
 19 59  1  0  0  0  0
 19 60  1  0  0  0  0
 20 61  1  0  0  0  0
 20 62  1  0  0  0  0
 22 63  1  0  0  0  0
 22 64  1  0  0  0  0
 22 65  1  0  0  0  0
 23 66  1  0  0  0  0
 24 67  1  0  0  0  0
 24 68  1  0  0  0  0
 25 69  1  0  0  0  0
 25 70  1  0  0  0  0
 27 71  1  0  0  0  0
 27 72  1  0  0  0  0
 27 73  1  0  0  0  0
 28 74  1  0  0  0  0
 29 75  1  0  0  0  0
 29 76  1  0  0  0  0
 29 77  1  0  0  0  0
 30 78  1  0  0  0  0
 30 79  1  0  0  0  0
 30 80  1  0  0  0  0
M  END
>  <InChIKey>
InChI=1S/C29H50O/c1-7-21(19(2)3)9-8-20(4)25-12-13-26-24-11-10-22-18-23(30)14-16-28(22,5)27(24)15-17-29(25,26)6/h10,19-21,23-27,30H,7-9,11-18H2,1-6H3

>  <CASRN>
83-46-5

> <Outcome>
0

>  <Index>
2037

>  <StandardizerResult>
Clear Stereo (ID: ClearStereo)
Wedge Clean (ID: WedgeClean)
Mesomerize (ID: Mesomerize)
Tautomerize (ID: Tautomerize)
Add Explicit Hydrogens (ID: AddExplicitH)
Neutralize (ID: Neutralize)
Clean 2D (ID: Clean2D)

> <knn Distance>
4.0

> <CpId>
2037

$$$$
2141
  Mrv1532301301811342D          

 79 80  0  0  0  0            999 V2000
   10.5871   -1.2089    0.0000 C   0  0  0  0  0  0  0  0  0  0  0  0
   11.3016   -0.7964    0.0000 C   0  0  0  0  0  0  0  0  0  0  0  0
   11.3016    0.0286    0.0000 C   0  0  0  0  0  0  0  0  0  0  0  0
   12.0161   -1.2089    0.0000 C   0  0  0  0  0  0  0  0  0  0  0  0
   12.7305   -0.7964    0.0000 C   0  0  0  0  0  0  0  0  0  0  0  0
   13.4450   -1.2089    0.0000 C   0  0  0  0  0  0  0  0  0  0  0  0
   14.1595   -0.7964    0.0000 C   0  0  0  0  0  0  0  0  0  0  0  0
   14.1595    0.0286    0.0000 C   0  0  0  0  0  0  0  0  0  0  0  0
   14.8739   -1.2089    0.0000 C   0  0  0  0  0  0  0  0  0  0  0  0
   15.5884   -0.7964    0.0000 C   0  0  0  0  0  0  0  0  0  0  0  0
   16.3029   -1.2089    0.0000 C   0  0  0  0  0  0  0  0  0  0  0  0
   17.0174   -0.7964    0.0000 C   0  0  0  0  0  0  0  0  0  0  0  0
   17.0174    0.0286    0.0000 C   0  0  0  0  0  0  0  0  0  0  0  0
   17.7318   -1.2089    0.0000 C   0  0  0  0  0  0  0  0  0  0  0  0
   18.4463   -0.7964    0.0000 C   0  0  0  0  0  0  0  0  0  0  0  0
   19.1608   -1.2089    0.0000 C   0  0  0  0  0  0  0  0  0  0  0  0
   19.8752   -0.7964    0.0000 C   0  0  0  0  0  0  0  0  0  0  0  0
   19.8752    0.0286    0.0000 C   0  0  0  0  0  0  0  0  0  0  0  0
   20.5897   -1.2089    0.0000 C   0  0  0  0  0  0  0  0  0  0  0  0
   21.3042   -0.7964    0.0000 C   0  0  0  0  0  0  0  0  0  0  0  0
   22.0186   -1.2089    0.0000 C   0  0  0  0  0  0  0  0  0  0  0  0
   22.7331   -0.7964    0.0000 C   0  0  0  0  0  0  0  0  0  0  0  0
   22.7331    0.0286    0.0000 C   0  0  0  0  0  0  0  0  0  0  0  0
   23.4476   -1.2089    0.0000 C   0  0  0  0  0  0  0  0  0  0  0  0
   24.1621   -0.7964    0.0000 O   0  0  0  0  0  0  0  0  0  0  0  0
   23.4476   -2.0339    0.0000 C   0  0  0  0  0  0  0  0  0  0  0  0
   24.1621   -2.4464    0.0000 C   0  0  0  0  0  0  0  0  0  0  0  0
   24.1621   -3.2714    0.0000 C   0  0  0  0  0  0  0  0  0  0  0  0
   23.4476   -3.6839    0.0000 C   0  0  0  0  0  0  0  0  0  0  0  0
   22.7331   -3.2714    0.0000 C   0  0  0  0  0  0  0  0  0  0  0  0
   22.7331   -2.4464    0.0000 C   0  0  0  0  0  0  0  0  0  0  0  0
   22.0186   -2.0339    0.0000 C   0  0  0  0  0  0  0  0  0  0  0  0
   21.3042   -2.4464    0.0000 O   0  0  0  0  0  0  0  0  0  0  0  0
   10.1746   -0.4944    0.0000 H   0  0  0  0  0  0  0  0  0  0  0  0
    9.8726   -1.6214    0.0000 H   0  0  0  0  0  0  0  0  0  0  0  0
   10.9996   -1.9233    0.0000 H   0  0  0  0  0  0  0  0  0  0  0  0
   10.5871   -0.3839    0.0000 H   0  0  0  0  0  0  0  0  0  0  0  0
   12.0985   -0.1849    0.0000 H   0  0  0  0  0  0  0  0  0  0  0  0
   11.7141    0.7431    0.0000 H   0  0  0  0  0  0  0  0  0  0  0  0
   10.7182    0.6120    0.0000 H   0  0  0  0  0  0  0  0  0  0  0  0
   11.6458   -1.9461    0.0000 H   0  0  0  0  0  0  0  0  0  0  0  0
   12.3863   -1.9461    0.0000 H   0  0  0  0  0  0  0  0  0  0  0  0
   13.2273   -0.1377    0.0000 H   0  0  0  0  0  0  0  0  0  0  0  0
   12.7305   -1.6214    0.0000 H   0  0  0  0  0  0  0  0  0  0  0  0
   13.5883   -2.0213    0.0000 H   0  0  0  0  0  0  0  0  0  0  0  0
   14.0770   -1.7392    0.0000 H   0  0  0  0  0  0  0  0  0  0  0  0
   13.4450   -0.3839    0.0000 H   0  0  0  0  0  0  0  0  0  0  0  0
   14.9349   -0.2531    0.0000 H   0  0  0  0  0  0  0  0  0  0  0  0
   14.6891    0.6612    0.0000 H   0  0  0  0  0  0  0  0  0  0  0  0
   13.7459    0.7425    0.0000 H   0  0  0  0  0  0  0  0  0  0  0  0
   14.9089   -2.0331    0.0000 H   0  0  0  0  0  0  0  0  0  0  0  0
   15.5970   -1.6061    0.0000 H   0  0  0  0  0  0  0  0  0  0  0  0
   16.3251   -0.4250    0.0000 H   0  0  0  0  0  0  0  0  0  0  0  0
   15.6816    0.0234    0.0000 H   0  0  0  0  0  0  0  0  0  0  0  0
   16.4407   -2.0223    0.0000 H   0  0  0  0  0  0  0  0  0  0  0  0
   16.9326   -1.7419    0.0000 H   0  0  0  0  0  0  0  0  0  0  0  0
   17.7318   -0.3839    0.0000 H   0  0  0  0  0  0  0  0  0  0  0  0
   17.7259    0.4512    0.0000 H   0  0  0  0  0  0  0  0  0  0  0  0
   16.9941    0.8533    0.0000 H   0  0  0  0  0  0  0  0  0  0  0  0
   16.2861    0.4105    0.0000 H   0  0  0  0  0  0  0  0  0  0  0  0
   17.7673   -2.0331    0.0000 H   0  0  0  0  0  0  0  0  0  0  0  0
   18.4550   -1.6059    0.0000 H   0  0  0  0  0  0  0  0  0  0  0  0
   19.0783   -0.2661    0.0000 H   0  0  0  0  0  0  0  0  0  0  0  0
   18.5896    0.0161    0.0000 H   0  0  0  0  0  0  0  0  0  0  0  0
   19.2985   -2.0223    0.0000 H   0  0  0  0  0  0  0  0  0  0  0  0
   19.7904   -1.7419    0.0000 H   0  0  0  0  0  0  0  0  0  0  0  0
   20.6624   -0.2184    0.0000 H   0  0  0  0  0  0  0  0  0  0  0  0
   20.3467    0.7056    0.0000 H   0  0  0  0  0  0  0  0  0  0  0  0
   19.3705    0.6812    0.0000 H   0  0  0  0  0  0  0  0  0  0  0  0
   21.0251   -1.9096    0.0000 H   0  0  0  0  0  0  0  0  0  0  0  0
   21.7891   -0.1289    0.0000 H   0  0  0  0  0  0  0  0  0  0  0  0
   21.3042   -1.6214    0.0000 H   0  0  0  0  0  0  0  0  0  0  0  0
   23.5077   -0.2553    0.0000 H   0  0  0  0  0  0  0  0  0  0  0  0
   23.2663    0.6582    0.0000 H   0  0  0  0  0  0  0  0  0  0  0  0
   22.3255    0.7459    0.0000 H   0  0  0  0  0  0  0  0  0  0  0  0
   24.8765   -2.0339    0.0000 H   0  0  0  0  0  0  0  0  0  0  0  0
   24.8765   -3.6839    0.0000 H   0  0  0  0  0  0  0  0  0  0  0  0
   23.4476   -4.5089    0.0000 H   0  0  0  0  0  0  0  0  0  0  0  0
   22.0186   -3.6839    0.0000 H   0  0  0  0  0  0  0  0  0  0  0  0
  1  2  1  0  0  0  0
  2  3  1  0  0  0  0
  2  4  1  0  0  0  0
  4  5  1  0  0  0  0
  5  6  1  0  0  0  0
  6  7  1  0  0  0  0
  7  8  1  0  0  0  0
  7  9  1  0  0  0  0
  9 10  1  0  0  0  0
 10 11  1  0  0  0  0
 11 12  1  0  0  0  0
 12 13  1  0  0  0  0
 12 14  1  0  0  0  0
 14 15  1  0  0  0  0
 15 16  1  0  0  0  0
 16 17  1  0  0  0  0
 17 18  1  0  0  0  0
 17 19  2  0  0  0  0
 19 20  1  4  0  0  0
 20 21  1  0  0  0  0
 21 22  2  0  0  0  0
 22 23  1  0  0  0  0
 22 24  1  0  0  0  0
 24 25  2  0  0  0  0
 24 26  1  0  0  0  0
 26 27  4  0  0  0  0
 27 28  4  0  0  0  0
 28 29  4  0  0  0  0
 29 30  4  0  0  0  0
 30 31  4  0  0  0  0
 26 31  4  0  0  0  0
 31 32  1  0  0  0  0
 21 32  1  0  0  0  0
 32 33  2  0  0  0  0
  1 34  1  0  0  0  0
  1 35  1  0  0  0  0
  1 36  1  0  0  0  0
  2 37  1  0  0  0  0
  3 38  1  0  0  0  0
  3 39  1  0  0  0  0
  3 40  1  0  0  0  0
  4 41  1  0  0  0  0
  4 42  1  0  0  0  0
  5 43  1  0  0  0  0
  5 44  1  0  0  0  0
  6 45  1  0  0  0  0
  6 46  1  0  0  0  0
  7 47  1  0  0  0  0
  8 48  1  0  0  0  0
  8 49  1  0  0  0  0
  8 50  1  0  0  0  0
  9 51  1  0  0  0  0
  9 52  1  0  0  0  0
 10 53  1  0  0  0  0
 10 54  1  0  0  0  0
 11 55  1  0  0  0  0
 11 56  1  0  0  0  0
 12 57  1  0  0  0  0
 13 58  1  0  0  0  0
 13 59  1  0  0  0  0
 13 60  1  0  0  0  0
 14 61  1  0  0  0  0
 14 62  1  0  0  0  0
 15 63  1  0  0  0  0
 15 64  1  0  0  0  0
 16 65  1  0  0  0  0
 16 66  1  0  0  0  0
 18 67  1  0  0  0  0
 18 68  1  0  0  0  0
 18 69  1  0  0  0  0
 19 70  1  0  0  0  0
 20 71  1  0  0  0  0
 20 72  1  0  0  0  0
 23 73  1  0  0  0  0
 23 74  1  0  0  0  0
 23 75  1  0  0  0  0
 27 76  1  0  0  0  0
 28 77  1  0  0  0  0
 29 78  1  0  0  0  0
 30 79  1  0  0  0  0
M  END
>  <InChIKey>
InChI=1S/C31H46O2/c1-22(2)12-9-13-23(3)14-10-15-24(4)16-11-17-25(5)20-21-27-26(6)30(32)28-18-7-8-19-29(28)31(27)33/h7-8,18-20,22-24H,9-17,21H2,1-6H3

>  <CASRN>
12001-79-5 84-80-0

> <Outcome>
0

>  <Index>
2141

>  <StandardizerResult>
Dearomatize (ID: Dearomatize)
Clear Stereo (ID: ClearStereo)
Wedge Clean (ID: WedgeClean)
Mesomerize (ID: Mesomerize)
Tautomerize (ID: Tautomerize)
Aromatize (ID: Aromatize)
Add Explicit Hydrogens (ID: AddExplicitH)
Neutralize (ID: Neutralize)
Clean 2D (ID: Clean2D)

> <knn Distance>
4.0

> <CpId>
2141

$$$$
2173
  Mrv1532301301811342D          

 38 41  0  0  0  0            999 V2000
    1.6497   -2.9351    0.0000 N   0  0  0  0  0  0  0  0  0  0  0  0
    1.6497   -2.1101    0.0000 C   0  0  0  0  0  0  0  0  0  0  0  0
    0.9353   -1.6976    0.0000 C   0  0  0  0  0  0  0  0  0  0  0  0
    0.2208   -2.1101    0.0000 O   0  0  0  0  0  0  0  0  0  0  0  0
    0.2208   -2.9351    0.0000 C   0  0  0  0  0  0  0  0  0  0  0  0
    0.9353   -3.3476    0.0000 C   0  0  0  0  0  0  0  0  0  0  0  0
    0.9353   -4.1726    0.0000 C   0  0  0  0  0  0  0  0  0  0  0  0
    0.2208   -4.5851    0.0000 C   0  0  0  0  0  0  0  0  0  0  0  0
   -0.4937   -4.1726    0.0000 C   0  0  0  0  0  0  0  0  0  0  0  0
   -0.4937   -3.3476    0.0000 C   0  0  0  0  0  0  0  0  0  0  0  0
    0.9353   -0.8726    0.0000 C   0  0  0  0  0  0  0  0  0  0  0  0
    1.6497   -0.4601    0.0000 C   0  0  0  0  0  0  0  0  0  0  0  0
    1.6497    0.3649    0.0000 O   0  0  0  0  0  0  0  0  0  0  0  0
    2.3642   -0.8726    0.0000 C   0  0  0  0  0  0  0  0  0  0  0  0
    3.0787   -0.4601    0.0000 C   0  0  0  0  0  0  0  0  0  0  0  0
    3.0787    0.3649    0.0000 O   0  0  0  0  0  0  0  0  0  0  0  0
    3.7931   -0.8726    0.0000 C   0  0  0  0  0  0  0  0  0  0  0  0
    4.5076   -0.4601    0.0000 C   0  0  0  0  0  0  0  0  0  0  0  0
    5.2221   -0.8726    0.0000 C   0  0  0  0  0  0  0  0  0  0  0  0
    5.2221   -1.6976    0.0000 C   0  0  0  0  0  0  0  0  0  0  0  0
    4.5076   -2.1101    0.0000 C   0  0  0  0  0  0  0  0  0  0  0  0
    3.7931   -1.6976    0.0000 C   0  0  0  0  0  0  0  0  0  0  0  0
    3.0787   -2.1101    0.0000 C   0  0  0  0  0  0  0  0  0  0  0  0
    3.0787   -2.9351    0.0000 O   0  0  0  0  0  0  0  0  0  0  0  0
    2.3642   -1.6976    0.0000 C   0  0  0  0  0  0  0  0  0  0  0  0
    2.1031   -3.6244    0.0000 H   0  0  0  0  0  0  0  0  0  0  0  0
    2.4733   -2.9831    0.0000 H   0  0  0  0  0  0  0  0  0  0  0  0
    0.9353   -2.5226    0.0000 H   0  0  0  0  0  0  0  0  0  0  0  0
    1.6497   -4.5851    0.0000 H   0  0  0  0  0  0  0  0  0  0  0  0
    0.2208   -5.4101    0.0000 H   0  0  0  0  0  0  0  0  0  0  0  0
   -1.2081   -4.5851    0.0000 H   0  0  0  0  0  0  0  0  0  0  0  0
   -1.2081   -2.9351    0.0000 H   0  0  0  0  0  0  0  0  0  0  0  0
    0.2208   -0.4601    0.0000 H   0  0  0  0  0  0  0  0  0  0  0  0
    2.3642    0.7774    0.0000 H   0  0  0  0  0  0  0  0  0  0  0  0
    4.5076    0.3649    0.0000 H   0  0  0  0  0  0  0  0  0  0  0  0
    5.9366   -0.4601    0.0000 H   0  0  0  0  0  0  0  0  0  0  0  0
    5.9366   -2.1101    0.0000 H   0  0  0  0  0  0  0  0  0  0  0  0
    4.5076   -2.9351    0.0000 H   0  0  0  0  0  0  0  0  0  0  0  0
  1  2  1  0  0  0  0
  2  3  4  0  0  0  0
  3  4  1  0  0  0  0
  4  5  1  0  0  0  0
  5  6  4  0  0  0  0
  6  7  4  0  0  0  0
  7  8  4  0  0  0  0
  8  9  4  0  0  0  0
  9 10  4  0  0  0  0
  5 10  4  0  0  0  0
  3 11  4  0  0  0  0
 11 12  4  0  0  0  0
 12 13  1  0  0  0  0
 12 14  4  0  0  0  0
 14 15  1  0  0  0  0
 15 16  2  0  0  0  0
 15 17  1  0  0  0  0
 17 18  4  0  0  0  0
 18 19  4  0  0  0  0
 19 20  4  0  0  0  0
 20 21  4  0  0  0  0
 21 22  4  0  0  0  0
 17 22  4  0  0  0  0
 22 23  1  0  0  0  0
 23 24  2  0  0  0  0
 23 25  1  0  0  0  0
  2 25  4  0  0  0  0
 14 25  4  0  0  0  0
  1 26  1  0  0  0  0
  1 27  1  0  0  0  0
  6 28  1  0  0  0  0
  7 29  1  0  0  0  0
  8 30  1  0  0  0  0
  9 31  1  0  0  0  0
 10 32  1  0  0  0  0
 11 33  1  0  0  0  0
 13 34  1  0  0  0  0
 18 35  1  0  0  0  0
 19 36  1  0  0  0  0
 20 37  1  0  0  0  0
 21 38  1  0  0  0  0
M  END
>  <InChIKey>
InChI=1S/C20H13NO4/c21-18-15(25-11-6-2-1-3-7-11)10-14(22)16-17(18)20(24)13-9-5-4-8-12(13)19(16)23/h1-10,22H,21H2

>  <UN GHS>
Non-irritant

>  <CASRN>
17418-58-5

> <Outcome>
0

>  <Index>
2173

>  <StandardizerResult>
Dearomatize (ID: Dearomatize)
Clear Stereo (ID: ClearStereo)
Wedge Clean (ID: WedgeClean)
Mesomerize (ID: Mesomerize)
Tautomerize (ID: Tautomerize)
Aromatize (ID: Aromatize)
Add Explicit Hydrogens (ID: AddExplicitH)
Neutralize (ID: Neutralize)
Clean 2D (ID: Clean2D)

> <knn Distance>
4.0

> <CpId>
2173

$$$$
2220
  Mrv1532301301811342D          

 49 52  0  0  0  0            999 V2000
    3.5566   -3.2624    0.0000 C   0  0  0  0  0  0  0  0  0  0  0  0
    3.9165   -2.5201    0.0000 C   0  0  0  0  0  0  0  0  0  0  0  0
    4.4483   -3.1508    0.0000 C   0  0  0  0  0  0  0  0  0  0  0  0
    5.2604   -3.0056    0.0000 C   0  0  0  0  0  0  0  0  0  0  0  0
    5.5407   -2.2296    0.0000 C   0  0  0  0  0  0  0  0  0  0  0  0
    5.0089   -1.5989    0.0000 C   0  0  0  0  0  0  0  0  0  0  0  0
    5.2892   -0.8230    0.0000 C   0  0  0  0  0  0  0  0  0  0  0  0
    6.1013   -0.6778    0.0000 C   0  0  0  0  0  0  0  0  0  0  0  0
    6.6331   -1.3085    0.0000 C   0  0  0  0  0  0  0  0  0  0  0  0
    7.4452   -1.1633    0.0000 C   0  0  0  0  0  0  0  0  0  0  0  0
    7.9771   -1.7940    0.0000 C   0  0  0  0  0  0  0  0  0  0  0  0
    8.7892   -1.6488    0.0000 O   0  0  0  0  0  0  0  0  0  0  0  0
    7.6968   -2.5699    0.0000 C   0  0  0  0  0  0  0  0  0  0  0  0
    6.8846   -2.7151    0.0000 C   0  0  0  0  0  0  0  0  0  0  0  0
    6.3528   -2.0844    0.0000 C   0  0  0  0  0  0  0  0  0  0  0  0
    6.0725   -2.8603    0.0000 C   0  0  0  0  0  0  0  0  0  0  0  0
    4.1968   -1.7441    0.0000 C   0  0  0  0  0  0  0  0  0  0  0  0
    3.5454   -1.2378    0.0000 C   0  0  0  0  0  0  0  0  0  0  0  0
    2.8626   -1.7008    0.0000 C   0  0  0  0  0  0  0  0  0  0  0  0
    3.0919   -2.4933    0.0000 C   0  0  0  0  0  0  0  0  0  0  0  0
    2.5855   -3.1446    0.0000 O   0  0  0  0  0  0  0  0  0  0  0  0
    2.7325   -3.3004    0.0000 H   0  0  0  0  0  0  0  0  0  0  0  0
    3.1967   -4.0048    0.0000 H   0  0  0  0  0  0  0  0  0  0  0  0
    4.0373   -3.9329    0.0000 H   0  0  0  0  0  0  0  0  0  0  0  0
    4.9356   -3.8164    0.0000 H   0  0  0  0  0  0  0  0  0  0  0  0
    4.7286   -2.3749    0.0000 H   0  0  0  0  0  0  0  0  0  0  0  0
    5.5267   -3.7864    0.0000 H   0  0  0  0  0  0  0  0  0  0  0  0
    5.9711   -3.4245    0.0000 H   0  0  0  0  0  0  0  0  0  0  0  0
    5.8210   -1.4537    0.0000 H   0  0  0  0  0  0  0  0  0  0  0  0
    4.4771   -0.9682    0.0000 H   0  0  0  0  0  0  0  0  0  0  0  0
    5.4305   -0.0102    0.0000 H   0  0  0  0  0  0  0  0  0  0  0  0
    4.8750   -0.1095    0.0000 H   0  0  0  0  0  0  0  0  0  0  0  0
    6.8658   -0.3676    0.0000 H   0  0  0  0  0  0  0  0  0  0  0  0
    6.4734    0.0585    0.0000 H   0  0  0  0  0  0  0  0  0  0  0  0
    7.7255   -0.3874    0.0000 H   0  0  0  0  0  0  0  0  0  0  0  0
    7.8889   -3.3722    0.0000 H   0  0  0  0  0  0  0  0  0  0  0  0
    8.4551   -2.8949    0.0000 H   0  0  0  0  0  0  0  0  0  0  0  0
    6.7433   -3.5279    0.0000 H   0  0  0  0  0  0  0  0  0  0  0  0
    7.2989   -3.4286    0.0000 H   0  0  0  0  0  0  0  0  0  0  0  0
    6.3202   -3.6473    0.0000 H   0  0  0  0  0  0  0  0  0  0  0  0
    5.2966   -2.5800    0.0000 H   0  0  0  0  0  0  0  0  0  0  0  0
    5.4889   -3.4434    0.0000 H   0  0  0  0  0  0  0  0  0  0  0  0
    3.4043   -1.9735    0.0000 H   0  0  0  0  0  0  0  0  0  0  0  0
    3.5003   -0.4140    0.0000 H   0  0  0  0  0  0  0  0  0  0  0  0
    2.9407   -0.6766    0.0000 H   0  0  0  0  0  0  0  0  0  0  0  0
    2.3091   -1.0890    0.0000 H   0  0  0  0  0  0  0  0  0  0  0  0
    2.0459   -1.8176    0.0000 H   0  0  0  0  0  0  0  0  0  0  0  0
    2.2817   -2.3378    0.0000 H   0  0  0  0  0  0  0  0  0  0  0  0
    1.8857   -3.5815    0.0000 H   0  0  0  0  0  0  0  0  0  0  0  0
  1  2  1  0  0  0  0
  2  3  1  0  0  0  0
  3  4  1  0  0  0  0
  4  5  1  0  0  0  0
  5  6  1  0  0  0  0
  6  7  1  0  0  0  0
  7  8  1  0  0  0  0
  8  9  1  0  0  0  0
  9 10  2  0  0  0  0
 10 11  1  0  0  0  0
 11 12  2  0  0  0  0
 11 13  1  0  0  0  0
 13 14  1  0  0  0  0
 14 15  1  0  0  0  0
  5 15  1  0  0  0  0
  9 15  1  0  0  0  0
 15 16  1  0  0  0  0
  6 17  1  0  0  0  0
  2 17  1  0  0  0  0
 17 18  1  0  0  0  0
 18 19  1  0  0  0  0
 19 20  1  0  0  0  0
  2 20  1  0  0  0  0
 20 21  1  0  0  0  0
  1 22  1  0  0  0  0
  1 23  1  0  0  0  0
  1 24  1  0  0  0  0
  3 25  1  0  0  0  0
  3 26  1  0  0  0  0
  4 27  1  0  0  0  0
  4 28  1  0  0  0  0
  5 29  1  0  0  0  0
  6 30  1  0  0  0  0
  7 31  1  0  0  0  0
  7 32  1  0  0  0  0
  8 33  1  0  0  0  0
  8 34  1  0  0  0  0
 10 35  1  0  0  0  0
 13 36  1  0  0  0  0
 13 37  1  0  0  0  0
 14 38  1  0  0  0  0
 14 39  1  0  0  0  0
 16 40  1  0  0  0  0
 16 41  1  0  0  0  0
 16 42  1  0  0  0  0
 17 43  1  0  0  0  0
 18 44  1  0  0  0  0
 18 45  1  0  0  0  0
 19 46  1  0  0  0  0
 19 47  1  0  0  0  0
 20 48  1  0  0  0  0
 21 49  1  0  0  0  0
M  END
>  <InChIKey>
InChI=1S/C19H28O2/c1-18-9-7-13(20)11-12(18)3-4-14-15-5-6-17(21)19(15,2)10-8-16(14)18/h11,14-17,21H,3-10H2,1-2H3

>  <CASRN>
58-22-0

> <Outcome>
0

>  <Index>
2220

>  <StandardizerResult>
Clear Stereo (ID: ClearStereo)
Wedge Clean (ID: WedgeClean)
Mesomerize (ID: Mesomerize)
Tautomerize (ID: Tautomerize)
Add Explicit Hydrogens (ID: AddExplicitH)
Neutralize (ID: Neutralize)
Clean 2D (ID: Clean2D)

> <knn Distance>
4.0

> <CpId>
2220

$$$$
2331
  Mrv1532301301811342D          

 74 74  0  0  0  0            999 V2000
   -4.0635   -1.8507    0.0000 C   0  0  0  0  0  0  0  0  0  0  0  0
   -4.0635   -2.6757    0.0000 C   0  0  0  0  0  0  0  0  0  0  0  0
   -3.3491   -3.0882    0.0000 C   0  0  0  0  0  0  0  0  0  0  0  0
   -3.3491   -3.9132    0.0000 C   0  0  0  0  0  0  0  0  0  0  0  0
   -2.6346   -4.3257    0.0000 C   0  0  0  0  0  0  0  0  0  0  0  0
   -2.6346   -5.1507    0.0000 C   0  0  0  0  0  0  0  0  0  0  0  0
   -1.9201   -5.5632    0.0000 C   0  0  0  0  0  0  0  0  0  0  0  0
   -1.9201   -6.3882    0.0000 C   0  0  0  0  0  0  0  0  0  0  0  0
   -1.2057   -6.8007    0.0000 C   0  0  0  0  0  0  0  0  0  0  0  0
   -1.2057   -7.6257    0.0000 C   0  0  0  0  0  0  0  0  0  0  0  0
   -0.4912   -8.0382    0.0000 C   0  0  0  0  0  0  0  0  0  0  0  0
    0.2233   -7.6257    0.0000 C   0  0  0  0  0  0  0  0  0  0  0  0
    0.9378   -8.0382    0.0000 C   0  0  0  0  0  0  0  0  0  0  0  0
    1.6522   -7.6257    0.0000 C   0  0  0  0  0  0  0  0  0  0  0  0
    2.3667   -8.0382    0.0000 C   0  0  0  0  0  0  0  0  0  0  0  0
    3.0812   -7.6257    0.0000 C   0  0  0  0  0  0  0  0  0  0  0  0
    3.7956   -8.0382    0.0000 C   0  0  0  0  0  0  0  0  0  0  0  0
    4.5101   -7.6257    0.0000 C   0  0  0  0  0  0  0  0  0  0  0  0
    4.5101   -6.8007    0.0000 O   0  0  0  0  0  0  0  0  0  0  0  0
    5.2246   -8.0382    0.0000 O   0  0  0  0  0  0  0  0  0  0  0  0
    5.9391   -7.6257    0.0000 C   0  0  0  0  0  0  0  0  0  0  0  0
    6.6535   -8.0382    0.0000 C   0  0  0  0  0  0  0  0  0  0  0  0
    6.6535   -8.8632    0.0000 O   0  0  0  0  0  0  0  0  0  0  0  0
    7.3680   -7.6257    0.0000 C   0  0  0  0  0  0  0  0  0  0  0  0
    7.4542   -6.8053    0.0000 O   0  0  0  0  0  0  0  0  0  0  0  0
    8.2612   -6.6337    0.0000 C   0  0  0  0  0  0  0  0  0  0  0  0
    8.6737   -7.3482    0.0000 C   0  0  0  0  0  0  0  0  0  0  0  0
    9.4942   -7.4344    0.0000 O   0  0  0  0  0  0  0  0  0  0  0  0
    8.1217   -7.9613    0.0000 C   0  0  0  0  0  0  0  0  0  0  0  0
    8.2932   -8.7683    0.0000 O   0  0  0  0  0  0  0  0  0  0  0  0
   -3.2385   -1.8507    0.0000 H   0  0  0  0  0  0  0  0  0  0  0  0
   -4.0635   -1.0257    0.0000 H   0  0  0  0  0  0  0  0  0  0  0  0
   -4.8885   -1.8507    0.0000 H   0  0  0  0  0  0  0  0  0  0  0  0
   -4.8871   -2.7237    0.0000 H   0  0  0  0  0  0  0  0  0  0  0  0
   -4.5169   -3.3650    0.0000 H   0  0  0  0  0  0  0  0  0  0  0  0
   -2.5255   -3.0403    0.0000 H   0  0  0  0  0  0  0  0  0  0  0  0
   -2.8957   -2.3990    0.0000 H   0  0  0  0  0  0  0  0  0  0  0  0
   -4.1727   -3.9612    0.0000 H   0  0  0  0  0  0  0  0  0  0  0  0
   -3.8024   -4.6025    0.0000 H   0  0  0  0  0  0  0  0  0  0  0  0
   -1.8110   -4.2778    0.0000 H   0  0  0  0  0  0  0  0  0  0  0  0
   -2.1812   -3.6365    0.0000 H   0  0  0  0  0  0  0  0  0  0  0  0
   -3.4582   -5.1987    0.0000 H   0  0  0  0  0  0  0  0  0  0  0  0
   -3.0879   -5.8400    0.0000 H   0  0  0  0  0  0  0  0  0  0  0  0
   -1.0965   -5.5153    0.0000 H   0  0  0  0  0  0  0  0  0  0  0  0
   -1.4668   -4.8740    0.0000 H   0  0  0  0  0  0  0  0  0  0  0  0
   -2.7437   -6.4362    0.0000 H   0  0  0  0  0  0  0  0  0  0  0  0
   -2.3735   -7.0775    0.0000 H   0  0  0  0  0  0  0  0  0  0  0  0
   -0.4912   -6.3882    0.0000 H   0  0  0  0  0  0  0  0  0  0  0  0
   -1.9201   -8.0382    0.0000 H   0  0  0  0  0  0  0  0  0  0  0  0
   -0.8614   -8.7755    0.0000 H   0  0  0  0  0  0  0  0  0  0  0  0
   -0.1209   -8.7755    0.0000 H   0  0  0  0  0  0  0  0  0  0  0  0
    0.5935   -6.8885    0.0000 H   0  0  0  0  0  0  0  0  0  0  0  0
   -0.1470   -6.8885    0.0000 H   0  0  0  0  0  0  0  0  0  0  0  0
    0.5675   -8.7755    0.0000 H   0  0  0  0  0  0  0  0  0  0  0  0
    1.3080   -8.7755    0.0000 H   0  0  0  0  0  0  0  0  0  0  0  0
    2.0225   -6.8885    0.0000 H   0  0  0  0  0  0  0  0  0  0  0  0
    1.2820   -6.8885    0.0000 H   0  0  0  0  0  0  0  0  0  0  0  0
    1.9964   -8.7755    0.0000 H   0  0  0  0  0  0  0  0  0  0  0  0
    2.7370   -8.7755    0.0000 H   0  0  0  0  0  0  0  0  0  0  0  0
    3.4514   -6.8885    0.0000 H   0  0  0  0  0  0  0  0  0  0  0  0
    2.7109   -6.8885    0.0000 H   0  0  0  0  0  0  0  0  0  0  0  0
    3.4254   -8.7755    0.0000 H   0  0  0  0  0  0  0  0  0  0  0  0
    4.1659   -8.7755    0.0000 H   0  0  0  0  0  0  0  0  0  0  0  0
    6.3093   -6.8885    0.0000 H   0  0  0  0  0  0  0  0  0  0  0  0
    5.5688   -6.8885    0.0000 H   0  0  0  0  0  0  0  0  0  0  0  0
    5.9391   -8.4507    0.0000 H   0  0  0  0  0  0  0  0  0  0  0  0
    7.0660   -9.5777    0.0000 H   0  0  0  0  0  0  0  0  0  0  0  0
    7.4112   -8.4496    0.0000 H   0  0  0  0  0  0  0  0  0  0  0  0
    8.9113   -6.1258    0.0000 H   0  0  0  0  0  0  0  0  0  0  0  0
    8.2037   -5.8108    0.0000 H   0  0  0  0  0  0  0  0  0  0  0  0
    8.9694   -8.1184    0.0000 H   0  0  0  0  0  0  0  0  0  0  0  0
   10.2522   -7.1088    0.0000 H   0  0  0  0  0  0  0  0  0  0  0  0
    7.9501   -7.1543    0.0000 H   0  0  0  0  0  0  0  0  0  0  0  0
    8.4647   -9.5753    0.0000 H   0  0  0  0  0  0  0  0  0  0  0  0
  1  2  1  0  0  0  0
  2  3  1  0  0  0  0
  3  4  1  0  0  0  0
  4  5  1  0  0  0  0
  5  6  1  0  0  0  0
  6  7  1  0  0  0  0
  7  8  1  0  0  0  0
  9  8  1  4  0  0  0
  9 10  2  0  0  0  0
 10 11  1  0  0  0  0
 11 12  1  0  0  0  0
 12 13  1  0  0  0  0
 13 14  1  0  0  0  0
 14 15  1  0  0  0  0
 15 16  1  0  0  0  0
 16 17  1  0  0  0  0
 17 18  1  0  0  0  0
 18 19  2  0  0  0  0
 18 20  1  0  0  0  0
 20 21  1  0  0  0  0
 21 22  1  0  0  0  0
 22 23  1  0  0  0  0
 22 24  1  0  0  0  0
 24 25  1  0  0  0  0
 25 26  1  0  0  0  0
 26 27  1  0  0  0  0
 27 28  1  0  0  0  0
 27 29  1  0  0  0  0
 24 29  1  0  0  0  0
 29 30  1  0  0  0  0
  1 31  1  0  0  0  0
  1 32  1  0  0  0  0
  1 33  1  0  0  0  0
  2 34  1  0  0  0  0
  2 35  1  0  0  0  0
  3 36  1  0  0  0  0
  3 37  1  0  0  0  0
  4 38  1  0  0  0  0
  4 39  1  0  0  0  0
  5 40  1  0  0  0  0
  5 41  1  0  0  0  0
  6 42  1  0  0  0  0
  6 43  1  0  0  0  0
  7 44  1  0  0  0  0
  7 45  1  0  0  0  0
  8 46  1  0  0  0  0
  8 47  1  0  0  0  0
  9 48  1  0  0  0  0
 10 49  1  0  0  0  0
 11 50  1  0  0  0  0
 11 51  1  0  0  0  0
 12 52  1  0  0  0  0
 12 53  1  0  0  0  0
 13 54  1  0  0  0  0
 13 55  1  0  0  0  0
 14 56  1  0  0  0  0
 14 57  1  0  0  0  0
 15 58  1  0  0  0  0
 15 59  1  0  0  0  0
 16 60  1  0  0  0  0
 16 61  1  0  0  0  0
 17 62  1  0  0  0  0
 17 63  1  0  0  0  0
 21 64  1  0  0  0  0
 21 65  1  0  0  0  0
 22 66  1  0  0  0  0
 23 67  1  0  0  0  0
 24 68  1  0  0  0  0
 26 69  1  0  0  0  0
 26 70  1  0  0  0  0
 27 71  1  0  0  0  0
 28 72  1  0  0  0  0
 29 73  1  0  0  0  0
 30 74  1  0  0  0  0
M  END
>  <InChIKey>
InChI=1S/C24H44O6/c1-2-3-4-5-6-7-8-9-10-11-12-13-14-15-16-17-22(27)29-19-21(26)24-23(28)20(25)18-30-24/h9-10,20-21,23-26,28H,2-8,11-19H2,1H3

>  <CASRN>
1338-43-8

> <Outcome>
0

>  <Index>
2331

>  <StandardizerResult>
Clear Stereo (ID: ClearStereo)
Wedge Clean (ID: WedgeClean)
Mesomerize (ID: Mesomerize)
Tautomerize (ID: Tautomerize)
Add Explicit Hydrogens (ID: AddExplicitH)
Neutralize (ID: Neutralize)
Clean 2D (ID: Clean2D)

> <knn Distance>
4.0

> <CpId>
2331

$$$$
2388
  Mrv1532301301811342D          

 65 65  0  0  0  0            999 V2000
    2.7102   -6.6481    0.0000 C   0  0  0  0  0  0  0  0  0  0  0  0
    2.0971   -6.0961    0.0000 C   0  0  0  0  0  0  0  0  0  0  0  0
    2.2687   -5.2891    0.0000 C   0  0  0  0  0  0  0  0  0  0  0  0
    1.6556   -4.7371    0.0000 C   0  0  0  0  0  0  0  0  0  0  0  0
    1.8271   -3.9301    0.0000 C   0  0  0  0  0  0  0  0  0  0  0  0
    2.6341   -4.1016    0.0000 C   0  0  0  0  0  0  0  0  0  0  0  0
    1.0201   -3.7586    0.0000 O   0  0  0  0  0  0  0  0  0  0  0  0
    1.9986   -3.1231    0.0000 C   0  0  0  0  0  0  0  0  0  0  0  0
    1.3855   -2.5711    0.0000 C   0  0  0  0  0  0  0  0  0  0  0  0
    1.5570   -1.7641    0.0000 C   0  0  0  0  0  0  0  0  0  0  0  0
    0.9440   -1.2121    0.0000 C   0  0  0  0  0  0  0  0  0  0  0  0
    0.1370   -1.3836    0.0000 C   0  0  0  0  0  0  0  0  0  0  0  0
   -0.1986   -2.1373    0.0000 O   0  0  0  0  0  0  0  0  0  0  0  0
   -0.2755   -0.6692    0.0000 C   0  0  0  0  0  0  0  0  0  0  0  0
    0.2765   -0.0561    0.0000 C   0  0  0  0  0  0  0  0  0  0  0  0
    0.1050    0.7509    0.0000 O   0  0  0  0  0  0  0  0  0  0  0  0
    1.0302   -0.3916    0.0000 C   0  0  0  0  0  0  0  0  0  0  0  0
    1.7447    0.0209    0.0000 C   0  0  0  0  0  0  0  0  0  0  0  0
    2.4591   -0.3916    0.0000 C   0  0  0  0  0  0  0  0  0  0  0  0
    3.1736    0.0209    0.0000 C   0  0  0  0  0  0  0  0  0  0  0  0
    3.8881   -0.3916    0.0000 C   0  0  0  0  0  0  0  0  0  0  0  0
    4.6025    0.0209    0.0000 C   0  0  0  0  0  0  0  0  0  0  0  0
    5.3170   -0.3916    0.0000 C   0  0  0  0  0  0  0  0  0  0  0  0
    6.0315    0.0209    0.0000 C   0  0  0  0  0  0  0  0  0  0  0  0
    6.0315    0.8459    0.0000 O   0  0  0  0  0  0  0  0  0  0  0  0
    6.7460   -0.3916    0.0000 O   0  0  0  0  0  0  0  0  0  0  0  0
    7.4604    0.0209    0.0000 C   0  0  0  0  0  0  0  0  0  0  0  0
    2.1582   -7.2612    0.0000 H   0  0  0  0  0  0  0  0  0  0  0  0
    3.3233   -7.2001    0.0000 H   0  0  0  0  0  0  0  0  0  0  0  0
    3.2623   -6.0350    0.0000 H   0  0  0  0  0  0  0  0  0  0  0  0
    1.2815   -5.9718    0.0000 H   0  0  0  0  0  0  0  0  0  0  0  0
    1.5104   -6.6760    0.0000 H   0  0  0  0  0  0  0  0  0  0  0  0
    3.0842   -5.4134    0.0000 H   0  0  0  0  0  0  0  0  0  0  0  0
    2.8554   -4.7091    0.0000 H   0  0  0  0  0  0  0  0  0  0  0  0
    0.8400   -4.6128    0.0000 H   0  0  0  0  0  0  0  0  0  0  0  0
    1.0688   -5.3170    0.0000 H   0  0  0  0  0  0  0  0  0  0  0  0
    3.4453   -4.2518    0.0000 H   0  0  0  0  0  0  0  0  0  0  0  0
    3.1752   -3.4789    0.0000 H   0  0  0  0  0  0  0  0  0  0  0  0
    2.3722   -3.3193    0.0000 H   0  0  0  0  0  0  0  0  0  0  0  0
    0.5702   -3.0670    0.0000 H   0  0  0  0  0  0  0  0  0  0  0  0
    2.4700   -2.4461    0.0000 H   0  0  0  0  0  0  0  0  0  0  0  0
    1.2140   -3.3781    0.0000 H   0  0  0  0  0  0  0  0  0  0  0  0
    0.7126   -2.0938    0.0000 H   0  0  0  0  0  0  0  0  0  0  0  0
    2.3417   -1.5092    0.0000 H   0  0  0  0  0  0  0  0  0  0  0  0
    1.7142   -0.9164    0.0000 H   0  0  0  0  0  0  0  0  0  0  0  0
   -0.6869   -1.4268    0.0000 H   0  0  0  0  0  0  0  0  0  0  0  0
   -0.5652   -2.8764    0.0000 H   0  0  0  0  0  0  0  0  0  0  0  0
   -0.7279    0.0208    0.0000 H   0  0  0  0  0  0  0  0  0  0  0  0
   -1.0769   -0.4731    0.0000 H   0  0  0  0  0  0  0  0  0  0  0  0
    0.9870    0.4323    0.0000 H   0  0  0  0  0  0  0  0  0  0  0  0
    2.3712    0.5576    0.0000 H   0  0  0  0  0  0  0  0  0  0  0  0
    1.8749    0.8355    0.0000 H   0  0  0  0  0  0  0  0  0  0  0  0
    2.5087   -1.2151    0.0000 H   0  0  0  0  0  0  0  0  0  0  0  0
    3.1857   -0.7825    0.0000 H   0  0  0  0  0  0  0  0  0  0  0  0
    3.8970    0.4176    0.0000 H   0  0  0  0  0  0  0  0  0  0  0  0
    3.2099    0.8451    0.0000 H   0  0  0  0  0  0  0  0  0  0  0  0
    4.0235   -1.2054    0.0000 H   0  0  0  0  0  0  0  0  0  0  0  0
    4.5168   -0.9258    0.0000 H   0  0  0  0  0  0  0  0  0  0  0  0
    5.2322    0.5540    0.0000 H   0  0  0  0  0  0  0  0  0  0  0  0
    4.7401    0.8343    0.0000 H   0  0  0  0  0  0  0  0  0  0  0  0
    5.3528   -1.2158    0.0000 H   0  0  0  0  0  0  0  0  0  0  0  0
    6.0403   -0.7885    0.0000 H   0  0  0  0  0  0  0  0  0  0  0  0
    7.8729   -0.6936    0.0000 H   0  0  0  0  0  0  0  0  0  0  0  0
    8.1749    0.4334    0.0000 H   0  0  0  0  0  0  0  0  0  0  0  0
    7.0479    0.7354    0.0000 H   0  0  0  0  0  0  0  0  0  0  0  0
  1  2  1  0  0  0  0
  2  3  1  0  0  0  0
  3  4  1  0  0  0  0
  4  5  1  0  0  0  0
  5  6  1  0  0  0  0
  5  7  1  0  0  0  0
  5  8  1  0  0  0  0
  9  8  1  4  0  0  0
  9 10  2  0  0  0  0
 10 11  1  0  0  0  0
 11 12  1  0  0  0  0
 12 13  1  0  0  0  0
 12 14  1  0  0  0  0
 14 15  1  0  0  0  0
 15 16  2  0  0  0  0
 15 17  1  0  0  0  0
 11 17  1  0  0  0  0
 17 18  1  0  0  0  0
 18 19  1  0  0  0  0
 19 20  1  0  0  0  0
 20 21  1  0  0  0  0
 21 22  1  0  0  0  0
 22 23  1  0  0  0  0
 23 24  1  0  0  0  0
 24 25  2  0  0  0  0
 24 26  1  0  0  0  0
 26 27  1  0  0  0  0
  1 28  1  0  0  0  0
  1 29  1  0  0  0  0
  1 30  1  0  0  0  0
  2 31  1  0  0  0  0
  2 32  1  0  0  0  0
  3 33  1  0  0  0  0
  3 34  1  0  0  0  0
  4 35  1  0  0  0  0
  4 36  1  0  0  0  0
  6 37  1  0  0  0  0
  6 38  1  0  0  0  0
  6 39  1  0  0  0  0
  7 40  1  0  0  0  0
  8 41  1  0  0  0  0
  8 42  1  0  0  0  0
  9 43  1  0  0  0  0
 10 44  1  0  0  0  0
 11 45  1  0  0  0  0
 12 46  1  0  0  0  0
 13 47  1  0  0  0  0
 14 48  1  0  0  0  0
 14 49  1  0  0  0  0
 17 50  1  0  0  0  0
 18 51  1  0  0  0  0
 18 52  1  0  0  0  0
 19 53  1  0  0  0  0
 19 54  1  0  0  0  0
 20 55  1  0  0  0  0
 20 56  1  0  0  0  0
 21 57  1  0  0  0  0
 21 58  1  0  0  0  0
 22 59  1  0  0  0  0
 22 60  1  0  0  0  0
 23 61  1  0  0  0  0
 23 62  1  0  0  0  0
 27 63  1  0  0  0  0
 27 64  1  0  0  0  0
 27 65  1  0  0  0  0
M  END
>  <InChIKey>
InChI=1S/C22H38O5/c1-4-5-14-22(2,26)15-10-12-18-17(19(23)16-20(18)24)11-8-6-7-9-13-21(25)27-3/h10,12,17-18,20,24,26H,4-9,11,13-16H2,1-3H3

>  <CASRN>
59122-46-2

> <Outcome>
0

>  <Index>
2388

>  <StandardizerResult>
Clear Stereo (ID: ClearStereo)
Wedge Clean (ID: WedgeClean)
Mesomerize (ID: Mesomerize)
Tautomerize (ID: Tautomerize)
Add Explicit Hydrogens (ID: AddExplicitH)
Neutralize (ID: Neutralize)
Clean 2D (ID: Clean2D)

> <knn Distance>
4.0

> <CpId>
2388

$$$$
2434
  Mrv1532301301811342D          

 24 24  0  0  0  0            999 V2000
   -0.6600    2.0757    0.0000 N   0  0  0  0  0  0  0  0  0  0  0  0
    0.0545    2.4882    0.0000 C   0  0  0  0  0  0  0  0  0  0  0  0
    0.7690    2.0757    0.0000 C   0  0  0  0  0  0  0  0  0  0  0  0
    0.7690    1.2507    0.0000 C   0  0  0  0  0  0  0  0  0  0  0  0
    1.4834    0.8382    0.0000 C   0  0  0  0  0  0  0  0  0  0  0  0
    1.4834    0.0132    0.0000 C   0  0  0  0  0  0  0  0  0  0  0  0
    0.7690   -0.3993    0.0000 C   0  0  0  0  0  0  0  0  0  0  0  0
    0.7690   -1.2243    0.0000 O   0  0  0  0  0  0  0  0  0  0  0  0
    0.0545    0.0132    0.0000 C   0  0  0  0  0  0  0  0  0  0  0  0
    0.0545    0.8382    0.0000 C   0  0  0  0  0  0  0  0  0  0  0  0
    0.0545    3.3132    0.0000 C   0  0  0  0  0  0  0  0  0  0  0  0
   -0.6600    3.7257    0.0000 O   0  0  0  0  0  0  0  0  0  0  0  0
    0.7690    3.7257    0.0000 O   0  0  0  0  0  0  0  0  0  0  0  0
   -1.3745    2.4882    0.0000 H   0  0  0  0  0  0  0  0  0  0  0  0
   -0.6600    1.2507    0.0000 H   0  0  0  0  0  0  0  0  0  0  0  0
    0.0545    1.6632    0.0000 H   0  0  0  0  0  0  0  0  0  0  0  0
    1.5926    2.1237    0.0000 H   0  0  0  0  0  0  0  0  0  0  0  0
    1.2223    2.7650    0.0000 H   0  0  0  0  0  0  0  0  0  0  0  0
    2.1979    1.2507    0.0000 H   0  0  0  0  0  0  0  0  0  0  0  0
    2.1979   -0.3993    0.0000 H   0  0  0  0  0  0  0  0  0  0  0  0
    0.0545   -1.6368    0.0000 H   0  0  0  0  0  0  0  0  0  0  0  0
   -0.6600   -0.3993    0.0000 H   0  0  0  0  0  0  0  0  0  0  0  0
   -0.6600    0.4257    0.0000 H   0  0  0  0  0  0  0  0  0  0  0  0
   -0.6600    4.5507    0.0000 H   0  0  0  0  0  0  0  0  0  0  0  0
  1  2  1  0  0  0  0
  2  3  1  0  0  0  0
  3  4  1  0  0  0  0
  4  5  4  0  0  0  0
  5  6  4  0  0  0  0
  6  7  4  0  0  0  0
  7  8  1  0  0  0  0
  7  9  4  0  0  0  0
  9 10  4  0  0  0  0
  4 10  4  0  0  0  0
  2 11  1  0  0  0  0
 11 12  1  0  0  0  0
 11 13  2  0  0  0  0
  1 14  1  0  0  0  0
  1 15  1  0  0  0  0
  2 16  1  0  0  0  0
  3 17  1  0  0  0  0
  3 18  1  0  0  0  0
  5 19  1  0  0  0  0
  6 20  1  0  0  0  0
  8 21  1  0  0  0  0
  9 22  1  0  0  0  0
 10 23  1  0  0  0  0
 12 24  1  0  0  0  0
M  END
>  <InChIKey>
InChI=1S/C9H11NO3/c10-8(9(12)13)5-6-1-3-7(11)4-2-6/h1-4,8,11H,5,10H2,(H,12,13)

>  <CASRN>
60-18-4

> <Outcome>
0

>  <Index>
2434

>  <StandardizerResult>
Dearomatize (ID: Dearomatize)
Clear Stereo (ID: ClearStereo)
Wedge Clean (ID: WedgeClean)
Mesomerize (ID: Mesomerize)
Tautomerize (ID: Tautomerize)
Aromatize (ID: Aromatize)
Add Explicit Hydrogens (ID: AddExplicitH)
Neutralize (ID: Neutralize)
Clean 2D (ID: Clean2D)

> <knn Distance>
4.0

> <CpId>
2434

$$$$
2447
  Mrv1532301301811342D          

 52 55  0  0  0  0            999 V2000
   -0.0299   -4.1366    0.0000 C   0  0  0  0  0  0  0  0  0  0  0  0
   -0.7444   -3.7241    0.0000 C   0  0  0  0  0  0  0  0  0  0  0  0
   -0.7444   -2.8991    0.0000 O   0  0  0  0  0  0  0  0  0  0  0  0
   -1.4589   -2.4866    0.0000 C   0  0  0  0  0  0  0  0  0  0  0  0
   -1.4589   -1.6616    0.0000 O   0  0  0  0  0  0  0  0  0  0  0  0
   -0.7444   -1.2491    0.0000 C   0  0  0  0  0  0  0  0  0  0  0  0
   -0.0299   -1.6616    0.0000 C   0  0  0  0  0  0  0  0  0  0  0  0
   -0.0299   -2.4866    0.0000 O   0  0  0  0  0  0  0  0  0  0  0  0
    0.6845   -1.2491    0.0000 C   0  0  0  0  0  0  0  0  0  0  0  0
    0.6845   -0.4241    0.0000 C   0  0  0  0  0  0  0  0  0  0  0  0
    1.3990   -0.0116    0.0000 C   0  0  0  0  0  0  0  0  0  0  0  0
    2.1135   -0.4241    0.0000 C   0  0  0  0  0  0  0  0  0  0  0  0
    2.8279   -0.0116    0.0000 O   0  0  0  0  0  0  0  0  0  0  0  0
    2.1135   -1.2491    0.0000 C   0  0  0  0  0  0  0  0  0  0  0  0
    1.3990   -1.6616    0.0000 C   0  0  0  0  0  0  0  0  0  0  0  0
    1.3990   -2.4866    0.0000 O   0  0  0  0  0  0  0  0  0  0  0  0
   -0.0299   -0.0116    0.0000 O   0  0  0  0  0  0  0  0  0  0  0  0
   -0.7444   -0.4241    0.0000 C   0  0  0  0  0  0  0  0  0  0  0  0
   -1.4589   -0.0116    0.0000 C   0  0  0  0  0  0  0  0  0  0  0  0
   -2.1734   -0.4241    0.0000 C   0  0  0  0  0  0  0  0  0  0  0  0
   -2.8878   -0.0116    0.0000 C   0  0  0  0  0  0  0  0  0  0  0  0
   -2.8878    0.8134    0.0000 C   0  0  0  0  0  0  0  0  0  0  0  0
   -3.6023    1.2259    0.0000 O   0  0  0  0  0  0  0  0  0  0  0  0
   -2.1734    1.2259    0.0000 C   0  0  0  0  0  0  0  0  0  0  0  0
   -2.1734    2.0509    0.0000 O   0  0  0  0  0  0  0  0  0  0  0  0
   -1.4589    0.8134    0.0000 C   0  0  0  0  0  0  0  0  0  0  0  0
   -2.1734   -2.8991    0.0000 C   0  0  0  0  0  0  0  0  0  0  0  0
   -2.8878   -2.4866    0.0000 O   0  0  0  0  0  0  0  0  0  0  0  0
   -2.1734   -3.7241    0.0000 C   0  0  0  0  0  0  0  0  0  0  0  0
   -2.8878   -4.1366    0.0000 O   0  0  0  0  0  0  0  0  0  0  0  0
   -1.4589   -4.1366    0.0000 C   0  0  0  0  0  0  0  0  0  0  0  0
   -1.4589   -4.9616    0.0000 O   0  0  0  0  0  0  0  0  0  0  0  0
   -0.4424   -4.8511    0.0000 H   0  0  0  0  0  0  0  0  0  0  0  0
    0.6845   -4.5491    0.0000 H   0  0  0  0  0  0  0  0  0  0  0  0
    0.3826   -3.4222    0.0000 H   0  0  0  0  0  0  0  0  0  0  0  0
   -0.7444   -4.5491    0.0000 H   0  0  0  0  0  0  0  0  0  0  0  0
   -2.1734   -2.0741    0.0000 H   0  0  0  0  0  0  0  0  0  0  0  0
    0.6845   -2.8991    0.0000 H   0  0  0  0  0  0  0  0  0  0  0  0
    1.3990    0.8134    0.0000 H   0  0  0  0  0  0  0  0  0  0  0  0
    3.5424   -0.4241    0.0000 H   0  0  0  0  0  0  0  0  0  0  0  0
    2.8279   -1.6616    0.0000 H   0  0  0  0  0  0  0  0  0  0  0  0
   -2.1734   -1.2491    0.0000 H   0  0  0  0  0  0  0  0  0  0  0  0
   -3.6023   -0.4241    0.0000 H   0  0  0  0  0  0  0  0  0  0  0  0
   -3.6023    2.0509    0.0000 H   0  0  0  0  0  0  0  0  0  0  0  0
   -1.4589    2.4634    0.0000 H   0  0  0  0  0  0  0  0  0  0  0  0
   -0.7444    1.2259    0.0000 H   0  0  0  0  0  0  0  0  0  0  0  0
   -2.8878   -3.3116    0.0000 H   0  0  0  0  0  0  0  0  0  0  0  0
   -3.6023   -2.0741    0.0000 H   0  0  0  0  0  0  0  0  0  0  0  0
   -2.1734   -4.5491    0.0000 H   0  0  0  0  0  0  0  0  0  0  0  0
   -3.6023   -4.5491    0.0000 H   0  0  0  0  0  0  0  0  0  0  0  0
   -1.4589   -3.3116    0.0000 H   0  0  0  0  0  0  0  0  0  0  0  0
   -1.4589   -5.7866    0.0000 H   0  0  0  0  0  0  0  0  0  0  0  0
  1  2  1  0  0  0  0
  2  3  1  0  0  0  0
  3  4  1  0  0  0  0
  4  5  1  0  0  0  0
  5  6  1  0  0  0  0
  6  7  1  0  0  0  0
  7  8  1  0  0  0  0
  7  9  2  0  0  0  0
  9 10  1  0  0  0  0
 10 11  2  0  0  0  0
 11 12  1  0  0  0  0
 12 13  1  0  0  0  0
 12 14  2  0  0  0  0
 14 15  1  0  0  0  0
  9 15  1  0  0  0  0
 15 16  2  0  0  0  0
 10 17  1  0  0  0  0
 17 18  1  0  0  0  0
  6 18  2  0  0  0  0
 18 19  1  0  0  0  0
 19 20  4  0  0  0  0
 20 21  4  0  0  0  0
 21 22  4  0  0  0  0
 22 23  1  0  0  0  0
 22 24  4  0  0  0  0
 24 25  1  0  0  0  0
 24 26  4  0  0  0  0
 19 26  4  0  0  0  0
  4 27  1  0  0  0  0
 27 28  1  0  0  0  0
 27 29  1  0  0  0  0
 29 30  1  0  0  0  0
 29 31  1  0  0  0  0
  2 31  1  0  0  0  0
 31 32  1  0  0  0  0
  1 33  1  0  0  0  0
  1 34  1  0  0  0  0
  1 35  1  0  0  0  0
  2 36  1  0  0  0  0
  4 37  1  0  0  0  0
  8 38  1  0  0  0  0
 11 39  1  0  0  0  0
 13 40  1  0  0  0  0
 14 41  1  0  0  0  0
 20 42  1  0  0  0  0
 21 43  1  0  0  0  0
 23 44  1  0  0  0  0
 25 45  1  0  0  0  0
 26 46  1  0  0  0  0
 27 47  1  0  0  0  0
 28 48  1  0  0  0  0
 29 49  1  0  0  0  0
 30 50  1  0  0  0  0
 31 51  1  0  0  0  0
 32 52  1  0  0  0  0
M  END
>  <InChIKey>
InChI=1S/C21H20O11/c1-7-15(26)17(28)18(29)21(30-7)32-20-16(27)14-12(25)5-9(22)6-13(14)31-19(20)8-2-3-10(23)11(24)4-8/h2-7,15,17-18,21-24,26-29H,1H3

>  <CASRN>
522-12-3

> <Outcome>
0

>  <Index>
2447

>  <StandardizerResult>
Dearomatize (ID: Dearomatize)
Clear Stereo (ID: ClearStereo)
Wedge Clean (ID: WedgeClean)
Mesomerize (ID: Mesomerize)
Tautomerize (ID: Tautomerize)
Aromatize (ID: Aromatize)
Add Explicit Hydrogens (ID: AddExplicitH)
Neutralize (ID: Neutralize)
Clean 2D (ID: Clean2D)

> <knn Distance>
4.0

> <CpId>
2447

$$$$
2452
  Mrv1532301301811342D          

 67 68  0  0  0  0            999 V2000
   -6.1648   -7.3963    0.0000 C   0  0  0  0  0  0  0  0  0  0  0  0
   -5.4503   -7.8088    0.0000 O   0  0  0  0  0  0  0  0  0  0  0  0
   -4.7358   -7.3963    0.0000 C   0  0  0  0  0  0  0  0  0  0  0  0
   -4.7358   -6.5713    0.0000 O   0  0  0  0  0  0  0  0  0  0  0  0
   -4.0214   -7.8088    0.0000 C   0  0  0  0  0  0  0  0  0  0  0  0
   -3.3069   -7.3963    0.0000 C   0  0  0  0  0  0  0  0  0  0  0  0
   -2.5924   -7.8088    0.0000 C   0  0  0  0  0  0  0  0  0  0  0  0
   -1.8780   -7.3963    0.0000 C   0  0  0  0  0  0  0  0  0  0  0  0
   -1.1635   -7.8088    0.0000 C   0  0  0  0  0  0  0  0  0  0  0  0
   -0.4490   -7.3963    0.0000 C   0  0  0  0  0  0  0  0  0  0  0  0
   -0.4490   -6.5713    0.0000 C   0  0  0  0  0  0  0  0  0  0  0  0
   -1.1164   -6.0864    0.0000 C   0  0  0  0  0  0  0  0  0  0  0  0
   -1.9011   -6.3413    0.0000 O   0  0  0  0  0  0  0  0  0  0  0  0
   -0.8615   -5.3018    0.0000 C   0  0  0  0  0  0  0  0  0  0  0  0
   -0.0365   -5.3018    0.0000 C   0  0  0  0  0  0  0  0  0  0  0  0
    0.4484   -4.6343    0.0000 O   0  0  0  0  0  0  0  0  0  0  0  0
    0.2184   -6.0864    0.0000 C   0  0  0  0  0  0  0  0  0  0  0  0
    1.0031   -6.3413    0.0000 C   0  0  0  0  0  0  0  0  0  0  0  0
    1.7877   -6.5963    0.0000 C   0  0  0  0  0  0  0  0  0  0  0  0
    2.5723   -6.8512    0.0000 C   0  0  0  0  0  0  0  0  0  0  0  0
    3.1854   -6.2992    0.0000 O   0  0  0  0  0  0  0  0  0  0  0  0
    2.7438   -7.6582    0.0000 C   0  0  0  0  0  0  0  0  0  0  0  0
    3.5284   -7.9131    0.0000 C   0  0  0  0  0  0  0  0  0  0  0  0
    4.1415   -7.3611    0.0000 C   0  0  0  0  0  0  0  0  0  0  0  0
    3.9700   -6.5541    0.0000 C   0  0  0  0  0  0  0  0  0  0  0  0
    4.5831   -6.0021    0.0000 C   0  0  0  0  0  0  0  0  0  0  0  0
    5.3677   -6.2570    0.0000 C   0  0  0  0  0  0  0  0  0  0  0  0
    5.5393   -7.0640    0.0000 C   0  0  0  0  0  0  0  0  0  0  0  0
    4.9262   -7.6160    0.0000 C   0  0  0  0  0  0  0  0  0  0  0  0
   -5.7523   -6.6819    0.0000 H   0  0  0  0  0  0  0  0  0  0  0  0
   -6.8792   -6.9838    0.0000 H   0  0  0  0  0  0  0  0  0  0  0  0
   -6.5773   -8.1108    0.0000 H   0  0  0  0  0  0  0  0  0  0  0  0
   -4.3916   -8.5461    0.0000 H   0  0  0  0  0  0  0  0  0  0  0  0
   -3.6511   -8.5461    0.0000 H   0  0  0  0  0  0  0  0  0  0  0  0
   -2.9366   -6.6591    0.0000 H   0  0  0  0  0  0  0  0  0  0  0  0
   -3.6772   -6.6591    0.0000 H   0  0  0  0  0  0  0  0  0  0  0  0
   -2.9627   -8.5461    0.0000 H   0  0  0  0  0  0  0  0  0  0  0  0
   -2.2222   -8.5461    0.0000 H   0  0  0  0  0  0  0  0  0  0  0  0
   -1.8780   -6.5713    0.0000 H   0  0  0  0  0  0  0  0  0  0  0  0
   -1.1635   -8.6338    0.0000 H   0  0  0  0  0  0  0  0  0  0  0  0
    0.0043   -8.0856    0.0000 H   0  0  0  0  0  0  0  0  0  0  0  0
    0.3746   -7.4443    0.0000 H   0  0  0  0  0  0  0  0  0  0  0  0
    0.2861   -6.9459    0.0000 H   0  0  0  0  0  0  0  0  0  0  0  0
   -1.1417   -6.9110    0.0000 H   0  0  0  0  0  0  0  0  0  0  0  0
   -2.5920   -5.8905    0.0000 H   0  0  0  0  0  0  0  0  0  0  0  0
   -0.9763   -4.4848    0.0000 H   0  0  0  0  0  0  0  0  0  0  0  0
   -1.6030   -4.9401    0.0000 H   0  0  0  0  0  0  0  0  0  0  0  0
    0.7783   -5.4308    0.0000 H   0  0  0  0  0  0  0  0  0  0  0  0
    0.5454   -3.8151    0.0000 H   0  0  0  0  0  0  0  0  0  0  0  0
   -0.5662   -5.8315    0.0000 H   0  0  0  0  0  0  0  0  0  0  0  0
    2.4008   -6.0443    0.0000 H   0  0  0  0  0  0  0  0  0  0  0  0
    3.4403   -5.5146    0.0000 H   0  0  0  0  0  0  0  0  0  0  0  0
    1.9482   -7.8764    0.0000 H   0  0  0  0  0  0  0  0  0  0  0  0
    2.4437   -8.4267    0.0000 H   0  0  0  0  0  0  0  0  0  0  0  0
    3.3196   -8.7113    0.0000 H   0  0  0  0  0  0  0  0  0  0  0  0
    4.0439   -8.5573    0.0000 H   0  0  0  0  0  0  0  0  0  0  0  0
    4.3131   -8.1681    0.0000 H   0  0  0  0  0  0  0  0  0  0  0  0
    3.3569   -7.1062    0.0000 H   0  0  0  0  0  0  0  0  0  0  0  0
    3.7985   -5.7472    0.0000 H   0  0  0  0  0  0  0  0  0  0  0  0
    5.0910   -5.3520    0.0000 H   0  0  0  0  0  0  0  0  0  0  0  0
    4.5543   -5.1776    0.0000 H   0  0  0  0  0  0  0  0  0  0  0  0
    6.1881   -6.3441    0.0000 H   0  0  0  0  0  0  0  0  0  0  0  0
    6.0431   -5.7832    0.0000 H   0  0  0  0  0  0  0  0  0  0  0  0
    5.8790   -7.8158    0.0000 H   0  0  0  0  0  0  0  0  0  0  0  0
    6.2909   -7.4042    0.0000 H   0  0  0  0  0  0  0  0  0  0  0  0
    5.2352   -8.3810    0.0000 H   0  0  0  0  0  0  0  0  0  0  0  0
    5.6546   -8.0034    0.0000 H   0  0  0  0  0  0  0  0  0  0  0  0
  1  2  1  0  0  0  0
  2  3  1  0  0  0  0
  3  4  2  0  0  0  0
  3  5  1  0  0  0  0
  5  6  1  0  0  0  0
  6  7  1  0  0  0  0
  8  7  1  4  0  0  0
  8  9  2  0  0  0  0
  9 10  1  0  0  0  0
 10 11  1  0  0  0  0
 11 12  1  0  0  0  0
 12 13  1  0  0  0  0
 12 14  1  0  0  0  0
 14 15  1  0  0  0  0
 15 16  1  0  0  0  0
 15 17  1  0  0  0  0
 11 17  1  0  0  0  0
 17 18  1  0  0  0  0
 18 19  3  0  0  0  0
 19 20  1  0  0  0  0
 20 21  1  0  0  0  0
 20 22  1  0  0  0  0
 22 23  1  0  0  0  0
 23 24  1  0  0  0  0
 24 25  1  0  0  0  0
 25 26  1  0  0  0  0
 26 27  1  0  0  0  0
 27 28  1  0  0  0  0
 28 29  1  0  0  0  0
 24 29  1  0  0  0  0
  1 30  1  0  0  0  0
  1 31  1  0  0  0  0
  1 32  1  0  0  0  0
  5 33  1  0  0  0  0
  5 34  1  0  0  0  0
  6 35  1  0  0  0  0
  6 36  1  0  0  0  0
  7 37  1  0  0  0  0
  7 38  1  0  0  0  0
  8 39  1  0  0  0  0
  9 40  1  0  0  0  0
 10 41  1  0  0  0  0
 10 42  1  0  0  0  0
 11 43  1  0  0  0  0
 12 44  1  0  0  0  0
 13 45  1  0  0  0  0
 14 46  1  0  0  0  0
 14 47  1  0  0  0  0
 15 48  1  0  0  0  0
 16 49  1  0  0  0  0
 17 50  1  0  0  0  0
 20 51  1  0  0  0  0
 21 52  1  0  0  0  0
 22 53  1  0  0  0  0
 22 54  1  0  0  0  0
 23 55  1  0  0  0  0
 23 56  1  0  0  0  0
 24 57  1  0  0  0  0
 25 58  1  0  0  0  0
 25 59  1  0  0  0  0
 26 60  1  0  0  0  0
 26 61  1  0  0  0  0
 27 62  1  0  0  0  0
 27 63  1  0  0  0  0
 28 64  1  0  0  0  0
 28 65  1  0  0  0  0
 29 66  1  0  0  0  0
 29 67  1  0  0  0  0
M  END
>  <InChIKey>
InChI=1S/C24H38O5/c1-29-24(28)12-8-3-2-7-11-20-21(23(27)17-22(20)26)16-15-19(25)14-13-18-9-5-4-6-10-18/h2,7,18-23,25-27H,3-6,8-14,17H2,1H3

>  <CASRN>
74176-31-1

> <Outcome>
0

>  <Index>
2452

>  <StandardizerResult>
Clear Stereo (ID: ClearStereo)
Wedge Clean (ID: WedgeClean)
Mesomerize (ID: Mesomerize)
Tautomerize (ID: Tautomerize)
Add Explicit Hydrogens (ID: AddExplicitH)
Neutralize (ID: Neutralize)
Clean 2D (ID: Clean2D)

> <knn Distance>
4.0

> <CpId>
2452

$$$$
2458
  Mrv1532301301811342D          

 62 64  0  0  0  0            999 V2000
   -6.9622   -3.3782    0.0000 C   0  0  0  0  0  0  0  0  0  0  0  0
   -6.2478   -2.9657    0.0000 C   0  0  0  0  0  0  0  0  0  0  0  0
   -5.5333   -3.3782    0.0000 C   0  0  0  0  0  0  0  0  0  0  0  0
   -4.8188   -2.9657    0.0000 C   0  0  0  0  0  0  0  0  0  0  0  0
   -4.1043   -3.3782    0.0000 C   0  0  0  0  0  0  0  0  0  0  0  0
   -3.3899   -2.9657    0.0000 C   0  0  0  0  0  0  0  0  0  0  0  0
   -3.3899   -2.1407    0.0000 O   0  0  0  0  0  0  0  0  0  0  0  0
   -2.6754   -3.3782    0.0000 C   0  0  0  0  0  0  0  0  0  0  0  0
   -1.9609   -2.9657    0.0000 C   0  0  0  0  0  0  0  0  0  0  0  0
   -1.2465   -3.3782    0.0000 C   0  0  0  0  0  0  0  0  0  0  0  0
   -1.1602   -4.1987    0.0000 C   0  0  0  0  0  0  0  0  0  0  0  0
   -1.7733   -4.7507    0.0000 O   0  0  0  0  0  0  0  0  0  0  0  0
   -0.3533   -4.3702    0.0000 C   0  0  0  0  0  0  0  0  0  0  0  0
    0.0592   -3.6558    0.0000 C   0  0  0  0  0  0  0  0  0  0  0  0
    0.8662   -3.4842    0.0000 C   0  0  0  0  0  0  0  0  0  0  0  0
    1.1212   -2.6996    0.0000 C   0  0  0  0  0  0  0  0  0  0  0  0
    0.5691   -2.0865    0.0000 C   0  0  0  0  0  0  0  0  0  0  0  0
   -0.2378   -2.2580    0.0000 C   0  0  0  0  0  0  0  0  0  0  0  0
   -0.4928   -3.0427    0.0000 C   0  0  0  0  0  0  0  0  0  0  0  0
    0.8241   -1.3019    0.0000 C   0  0  0  0  0  0  0  0  0  0  0  0
    1.6310   -1.1304    0.0000 C   0  0  0  0  0  0  0  0  0  0  0  0
    2.1831   -1.7435    0.0000 C   0  0  0  0  0  0  0  0  0  0  0  0
    1.9281   -2.5281    0.0000 C   0  0  0  0  0  0  0  0  0  0  0  0
    2.4802   -3.1412    0.0000 O   0  0  0  0  0  0  0  0  0  0  0  0
    3.2871   -2.9697    0.0000 C   0  0  0  0  0  0  0  0  0  0  0  0
    3.8392   -3.5827    0.0000 C   0  0  0  0  0  0  0  0  0  0  0  0
    4.6461   -3.4112    0.0000 O   0  0  0  0  0  0  0  0  0  0  0  0
    3.5842   -4.3674    0.0000 O   0  0  0  0  0  0  0  0  0  0  0  0
   -7.3747   -2.6638    0.0000 H   0  0  0  0  0  0  0  0  0  0  0  0
   -7.6767   -3.7907    0.0000 H   0  0  0  0  0  0  0  0  0  0  0  0
   -6.5497   -4.0927    0.0000 H   0  0  0  0  0  0  0  0  0  0  0  0
   -5.8775   -2.2285    0.0000 H   0  0  0  0  0  0  0  0  0  0  0  0
   -6.6180   -2.2285    0.0000 H   0  0  0  0  0  0  0  0  0  0  0  0
   -5.9035   -4.1155    0.0000 H   0  0  0  0  0  0  0  0  0  0  0  0
   -5.1630   -4.1155    0.0000 H   0  0  0  0  0  0  0  0  0  0  0  0
   -4.4486   -2.2285    0.0000 H   0  0  0  0  0  0  0  0  0  0  0  0
   -5.1891   -2.2285    0.0000 H   0  0  0  0  0  0  0  0  0  0  0  0
   -4.4746   -4.1155    0.0000 H   0  0  0  0  0  0  0  0  0  0  0  0
   -3.7341   -4.1155    0.0000 H   0  0  0  0  0  0  0  0  0  0  0  0
   -4.1043   -2.5532    0.0000 H   0  0  0  0  0  0  0  0  0  0  0  0
   -2.9774   -1.4263    0.0000 H   0  0  0  0  0  0  0  0  0  0  0  0
   -3.0457   -4.1155    0.0000 H   0  0  0  0  0  0  0  0  0  0  0  0
   -2.3051   -4.1155    0.0000 H   0  0  0  0  0  0  0  0  0  0  0  0
   -1.5907   -2.2285    0.0000 H   0  0  0  0  0  0  0  0  0  0  0  0
   -2.3312   -2.2285    0.0000 H   0  0  0  0  0  0  0  0  0  0  0  0
   -1.2033   -2.5544    0.0000 H   0  0  0  0  0  0  0  0  0  0  0  0
   -1.9304   -3.9031    0.0000 H   0  0  0  0  0  0  0  0  0  0  0  0
   -1.8313   -5.5737    0.0000 H   0  0  0  0  0  0  0  0  0  0  0  0
   -0.4108   -5.1932    0.0000 H   0  0  0  0  0  0  0  0  0  0  0  0
    0.2969   -4.8782    0.0000 H   0  0  0  0  0  0  0  0  0  0  0  0
    0.3142   -2.8711    0.0000 H   0  0  0  0  0  0  0  0  0  0  0  0
    1.0844   -4.2799    0.0000 H   0  0  0  0  0  0  0  0  0  0  0  0
    1.6347   -3.7844    0.0000 H   0  0  0  0  0  0  0  0  0  0  0  0
   -0.4560   -1.4624    0.0000 H   0  0  0  0  0  0  0  0  0  0  0  0
   -1.0063   -1.9579    0.0000 H   0  0  0  0  0  0  0  0  0  0  0  0
   -0.6643   -3.8496    0.0000 H   0  0  0  0  0  0  0  0  0  0  0  0
    0.2720   -0.6888    0.0000 H   0  0  0  0  0  0  0  0  0  0  0  0
    1.8860   -0.3457    0.0000 H   0  0  0  0  0  0  0  0  0  0  0  0
    2.9900   -1.5719    0.0000 H   0  0  0  0  0  0  0  0  0  0  0  0
    3.8671   -2.3829    0.0000 H   0  0  0  0  0  0  0  0  0  0  0  0
    3.1628   -2.1541    0.0000 H   0  0  0  0  0  0  0  0  0  0  0  0
    5.1982   -4.0243    0.0000 H   0  0  0  0  0  0  0  0  0  0  0  0
  1  2  1  0  0  0  0
  2  3  1  0  0  0  0
  3  4  1  0  0  0  0
  4  5  1  0  0  0  0
  5  6  1  0  0  0  0
  6  7  1  0  0  0  0
  6  8  1  0  0  0  0
  8  9  1  0  0  0  0
  9 10  1  0  0  0  0
 10 11  1  0  0  0  0
 11 12  1  0  0  0  0
 11 13  1  0  0  0  0
 13 14  1  0  0  0  0
 14 15  1  0  0  0  0
 15 16  1  0  0  0  0
 16 17  4  0  0  0  0
 17 18  1  0  0  0  0
 18 19  1  0  0  0  0
 10 19  1  0  0  0  0
 14 19  1  0  0  0  0
 17 20  4  0  0  0  0
 20 21  4  0  0  0  0
 21 22  4  0  0  0  0
 22 23  4  0  0  0  0
 16 23  4  0  0  0  0
 23 24  1  0  0  0  0
 24 25  1  0  0  0  0
 25 26  1  0  0  0  0
 26 27  1  0  0  0  0
 26 28  2  0  0  0  0
  1 29  1  0  0  0  0
  1 30  1  0  0  0  0
  1 31  1  0  0  0  0
  2 32  1  0  0  0  0
  2 33  1  0  0  0  0
  3 34  1  0  0  0  0
  3 35  1  0  0  0  0
  4 36  1  0  0  0  0
  4 37  1  0  0  0  0
  5 38  1  0  0  0  0
  5 39  1  0  0  0  0
  6 40  1  0  0  0  0
  7 41  1  0  0  0  0
  8 42  1  0  0  0  0
  8 43  1  0  0  0  0
  9 44  1  0  0  0  0
  9 45  1  0  0  0  0
 10 46  1  0  0  0  0
 11 47  1  0  0  0  0
 12 48  1  0  0  0  0
 13 49  1  0  0  0  0
 13 50  1  0  0  0  0
 14 51  1  0  0  0  0
 15 52  1  0  0  0  0
 15 53  1  0  0  0  0
 18 54  1  0  0  0  0
 18 55  1  0  0  0  0
 19 56  1  0  0  0  0
 20 57  1  0  0  0  0
 21 58  1  0  0  0  0
 22 59  1  0  0  0  0
 25 60  1  0  0  0  0
 25 61  1  0  0  0  0
 27 62  1  0  0  0  0
M  END
>  <InChIKey>
InChI=1S/C23H34O5/c1-2-3-4-7-17(24)9-10-18-19-11-15-6-5-8-22(28-14-23(26)27)20(15)12-16(19)13-21(18)25/h5-6,8,16-19,21,24-25H,2-4,7,9-14H2,1H3,(H,26,27)

>  <CASRN>
81846-19-7

> <Outcome>
0

>  <Index>
2458

>  <StandardizerResult>
Dearomatize (ID: Dearomatize)
Clear Stereo (ID: ClearStereo)
Wedge Clean (ID: WedgeClean)
Mesomerize (ID: Mesomerize)
Tautomerize (ID: Tautomerize)
Aromatize (ID: Aromatize)
Add Explicit Hydrogens (ID: AddExplicitH)
Neutralize (ID: Neutralize)
Clean 2D (ID: Clean2D)

> <knn Distance>
4.0

> <CpId>
2458

$$$$
2471
  Mrv1532301301811342D          

 57 60  0  0  0  0            999 V2000
    0.4303   -3.5230    0.0000 C   0  0  0  0  0  0  0  0  0  0  0  0
    1.2476   -3.6358    0.0000 C   0  0  0  0  0  0  0  0  0  0  0  0
    1.7539   -2.9845    0.0000 C   0  0  0  0  0  0  0  0  0  0  0  0
    1.4430   -2.2203    0.0000 O   0  0  0  0  0  0  0  0  0  0  0  0
    2.5712   -3.0973    0.0000 O   0  0  0  0  0  0  0  0  0  0  0  0
    3.0775   -2.4460    0.0000 C   0  0  0  0  0  0  0  0  0  0  0  0
    2.8482   -1.6535    0.0000 C   0  0  0  0  0  0  0  0  0  0  0  0
    3.5311   -1.1905    0.0000 C   0  0  0  0  0  0  0  0  0  0  0  0
    4.1824   -1.6969    0.0000 C   0  0  0  0  0  0  0  0  0  0  0  0
    4.9945   -1.5517    0.0000 C   0  0  0  0  0  0  0  0  0  0  0  0
    5.2748   -0.7757    0.0000 C   0  0  0  0  0  0  0  0  0  0  0  0
    6.0869   -0.6305    0.0000 C   0  0  0  0  0  0  0  0  0  0  0  0
    6.6188   -1.2612    0.0000 C   0  0  0  0  0  0  0  0  0  0  0  0
    7.4309   -1.1160    0.0000 C   0  0  0  0  0  0  0  0  0  0  0  0
    7.9627   -1.7467    0.0000 C   0  0  0  0  0  0  0  0  0  0  0  0
    8.7748   -1.6015    0.0000 O   0  0  0  0  0  0  0  0  0  0  0  0
    7.6824   -2.5227    0.0000 C   0  0  0  0  0  0  0  0  0  0  0  0
    6.8703   -2.6679    0.0000 C   0  0  0  0  0  0  0  0  0  0  0  0
    6.3385   -2.0372    0.0000 C   0  0  0  0  0  0  0  0  0  0  0  0
    6.0582   -2.8131    0.0000 C   0  0  0  0  0  0  0  0  0  0  0  0
    5.5263   -2.1824    0.0000 C   0  0  0  0  0  0  0  0  0  0  0  0
    5.2460   -2.9583    0.0000 C   0  0  0  0  0  0  0  0  0  0  0  0
    4.4339   -3.1035    0.0000 C   0  0  0  0  0  0  0  0  0  0  0  0
    3.9021   -2.4728    0.0000 C   0  0  0  0  0  0  0  0  0  0  0  0
    3.5422   -3.2152    0.0000 C   0  0  0  0  0  0  0  0  0  0  0  0
    0.5432   -2.7057    0.0000 H   0  0  0  0  0  0  0  0  0  0  0  0
   -0.3869   -3.4101    0.0000 H   0  0  0  0  0  0  0  0  0  0  0  0
    0.3175   -4.3402    0.0000 H   0  0  0  0  0  0  0  0  0  0  0  0
    1.1824   -4.4582    0.0000 H   0  0  0  0  0  0  0  0  0  0  0  0
    1.8684   -4.1792    0.0000 H   0  0  0  0  0  0  0  0  0  0  0  0
    2.2673   -2.2905    0.0000 H   0  0  0  0  0  0  0  0  0  0  0  0
    2.5744   -0.8753    0.0000 H   0  0  0  0  0  0  0  0  0  0  0  0
    2.1172   -1.2711    0.0000 H   0  0  0  0  0  0  0  0  0  0  0  0
    3.9418   -0.4751    0.0000 H   0  0  0  0  0  0  0  0  0  0  0  0
    3.1676   -0.4499    0.0000 H   0  0  0  0  0  0  0  0  0  0  0  0
    4.7142   -2.3276    0.0000 H   0  0  0  0  0  0  0  0  0  0  0  0
    4.4627   -0.9210    0.0000 H   0  0  0  0  0  0  0  0  0  0  0  0
    5.4161    0.0371    0.0000 H   0  0  0  0  0  0  0  0  0  0  0  0
    4.8606   -0.0623    0.0000 H   0  0  0  0  0  0  0  0  0  0  0  0
    6.8514   -0.3204    0.0000 H   0  0  0  0  0  0  0  0  0  0  0  0
    6.4590    0.1058    0.0000 H   0  0  0  0  0  0  0  0  0  0  0  0
    7.7112   -0.3401    0.0000 H   0  0  0  0  0  0  0  0  0  0  0  0
    7.8746   -3.3250    0.0000 H   0  0  0  0  0  0  0  0  0  0  0  0
    8.4407   -2.8476    0.0000 H   0  0  0  0  0  0  0  0  0  0  0  0
    6.7290   -3.4807    0.0000 H   0  0  0  0  0  0  0  0  0  0  0  0
    7.2845   -3.3813    0.0000 H   0  0  0  0  0  0  0  0  0  0  0  0
    5.4392   -3.3585    0.0000 H   0  0  0  0  0  0  0  0  0  0  0  0
    5.8120   -3.6005    0.0000 H   0  0  0  0  0  0  0  0  0  0  0  0
    6.2562   -3.6140    0.0000 H   0  0  0  0  0  0  0  0  0  0  0  0
    5.8066   -1.4065    0.0000 H   0  0  0  0  0  0  0  0  0  0  0  0
    4.6662   -3.5452    0.0000 H   0  0  0  0  0  0  0  0  0  0  0  0
    5.1106   -3.7721    0.0000 H   0  0  0  0  0  0  0  0  0  0  0  0
    3.8405   -3.6767    0.0000 H   0  0  0  0  0  0  0  0  0  0  0  0
    4.3031   -3.9181    0.0000 H   0  0  0  0  0  0  0  0  0  0  0  0
    2.7398   -3.0236    0.0000 H   0  0  0  0  0  0  0  0  0  0  0  0
    2.8426   -3.6525    0.0000 H   0  0  0  0  0  0  0  0  0  0  0  0
    3.3629   -4.0204    0.0000 H   0  0  0  0  0  0  0  0  0  0  0  0
  1  2  1  0  0  0  0
  2  3  1  0  0  0  0
  3  4  2  0  0  0  0
  3  5  1  0  0  0  0
  5  6  1  0  0  0  0
  6  7  1  0  0  0  0
  7  8  1  0  0  0  0
  8  9  1  0  0  0  0
  9 10  1  0  0  0  0
 10 11  1  0  0  0  0
 11 12  1  0  0  0  0
 12 13  1  0  0  0  0
 13 14  2  0  0  0  0
 14 15  1  0  0  0  0
 15 16  2  0  0  0  0
 15 17  1  0  0  0  0
 17 18  1  0  0  0  0
 18 19  1  0  0  0  0
 13 19  1  0  0  0  0
 19 20  1  0  0  0  0
 19 21  1  0  0  0  0
 10 21  1  0  0  0  0
 21 22  1  0  0  0  0
 22 23  1  0  0  0  0
 23 24  1  0  0  0  0
  6 24  1  0  0  0  0
  9 24  1  0  0  0  0
 24 25  1  0  0  0  0
  1 26  1  0  0  0  0
  1 27  1  0  0  0  0
  1 28  1  0  0  0  0
  2 29  1  0  0  0  0
  2 30  1  0  0  0  0
  6 31  1  0  0  0  0
  7 32  1  0  0  0  0
  7 33  1  0  0  0  0
  8 34  1  0  0  0  0
  8 35  1  0  0  0  0
  9 36  1  0  0  0  0
 10 37  1  0  0  0  0
 11 38  1  0  0  0  0
 11 39  1  0  0  0  0
 12 40  1  0  0  0  0
 12 41  1  0  0  0  0
 14 42  1  0  0  0  0
 17 43  1  0  0  0  0
 17 44  1  0  0  0  0
 18 45  1  0  0  0  0
 18 46  1  0  0  0  0
 20 47  1  0  0  0  0
 20 48  1  0  0  0  0
 20 49  1  0  0  0  0
 21 50  1  0  0  0  0
 22 51  1  0  0  0  0
 22 52  1  0  0  0  0
 23 53  1  0  0  0  0
 23 54  1  0  0  0  0
 25 55  1  0  0  0  0
 25 56  1  0  0  0  0
 25 57  1  0  0  0  0
M  END
>  <InChIKey>
InChI=1S/C22H32O3/c1-4-20(24)25-19-8-7-17-16-6-5-14-13-15(23)9-11-21(14,2)18(16)10-12-22(17,19)3/h13,16-19H,4-12H2,1-3H3

>  <CASRN>
57-85-2

> <Outcome>
0

>  <Index>
2471

>  <StandardizerResult>
Clear Stereo (ID: ClearStereo)
Wedge Clean (ID: WedgeClean)
Mesomerize (ID: Mesomerize)
Tautomerize (ID: Tautomerize)
Add Explicit Hydrogens (ID: AddExplicitH)
Neutralize (ID: Neutralize)
Clean 2D (ID: Clean2D)

> <knn Distance>
4.0

> <CpId>
2471

$$$$
2500
  Mrv1532301301811342D          

 20 19  0  0  0  0            999 V2000
    4.6984    2.7155    0.0000 N   0  0  0  0  0  0  0  0  0  0  0  0
    4.6984    1.8905    0.0000 C   0  0  0  0  0  0  0  0  0  0  0  0
    3.9839    1.4780    0.0000 C   0  0  0  0  0  0  0  0  0  0  0  0
    3.2695    1.8905    0.0000 C   0  0  0  0  0  0  0  0  0  0  0  0
    2.5550    1.4780    0.0000 C   0  0  0  0  0  0  0  0  0  0  0  0
    1.8405    1.8905    0.0000 O   0  0  0  0  0  0  0  0  0  0  0  0
    2.5550    0.6530    0.0000 O   0  0  0  0  0  0  0  0  0  0  0  0
    5.4129    1.4780    0.0000 C   0  0  0  0  0  0  0  0  0  0  0  0
    6.1273    1.8905    0.0000 C   0  0  0  0  0  0  0  0  0  0  0  0
    5.4129    3.1280    0.0000 H   0  0  0  0  0  0  0  0  0  0  0  0
    3.9839    3.1280    0.0000 H   0  0  0  0  0  0  0  0  0  0  0  0
    3.9839    2.3030    0.0000 H   0  0  0  0  0  0  0  0  0  0  0  0
    3.6137    0.7408    0.0000 H   0  0  0  0  0  0  0  0  0  0  0  0
    4.3542    0.7408    0.0000 H   0  0  0  0  0  0  0  0  0  0  0  0
    3.1262    2.7030    0.0000 H   0  0  0  0  0  0  0  0  0  0  0  0
    2.6375    2.4208    0.0000 H   0  0  0  0  0  0  0  0  0  0  0  0
    1.0159    1.8643    0.0000 H   0  0  0  0  0  0  0  0  0  0  0  0
    5.4129    0.6530    0.0000 H   0  0  0  0  0  0  0  0  0  0  0  0
    6.8418    1.4780    0.0000 H   0  0  0  0  0  0  0  0  0  0  0  0
    6.1273    2.7155    0.0000 H   0  0  0  0  0  0  0  0  0  0  0  0
  1  2  1  0  0  0  0
  2  3  1  0  0  0  0
  3  4  1  0  0  0  0
  4  5  1  0  0  0  0
  5  6  1  0  0  0  0
  5  7  2  0  0  0  0
  2  8  1  0  0  0  0
  8  9  2  0  0  0  0
  1 10  1  0  0  0  0
  1 11  1  0  0  0  0
  2 12  1  0  0  0  0
  3 13  1  0  0  0  0
  3 14  1  0  0  0  0
  4 15  1  0  0  0  0
  4 16  1  0  0  0  0
  6 17  1  0  0  0  0
  8 18  1  0  0  0  0
  9 19  1  0  0  0  0
  9 20  1  0  0  0  0
M  END
>  <InChIKey>
InChI=1S/C6H11NO2/c1-2-5(7)3-4-6(8)9/h2,5H,1,3-4,7H2,(H,8,9)

>  <CASRN>
60643-86-9

> <Outcome>
0

>  <Index>
2500

>  <StandardizerResult>
Clear Stereo (ID: ClearStereo)
Wedge Clean (ID: WedgeClean)
Mesomerize (ID: Mesomerize)
Tautomerize (ID: Tautomerize)
Add Explicit Hydrogens (ID: AddExplicitH)
Neutralize (ID: Neutralize)
Clean 2D (ID: Clean2D)

> <knn Distance>
4.0

> <CpId>
2500

$$$$
2511
  Mrv1532301301811342D          

 23 23  0  0  0  0            999 V2000
    0.0884    2.4865    0.0000 O   0  0  0  0  0  0  0  0  0  0  0  0
    0.8029    2.0740    0.0000 C   0  0  0  0  0  0  0  0  0  0  0  0
    0.8029    1.2490    0.0000 C   0  0  0  0  0  0  0  0  0  0  0  0
    1.5174    0.8365    0.0000 O   0  0  0  0  0  0  0  0  0  0  0  0
    1.5174    0.0115    0.0000 C   0  0  0  0  0  0  0  0  0  0  0  0
    2.2318   -0.4010    0.0000 O   0  0  0  0  0  0  0  0  0  0  0  0
    0.8029   -0.4010    0.0000 C   0  0  0  0  0  0  0  0  0  0  0  0
    0.0884    0.0115    0.0000 C   0  0  0  0  0  0  0  0  0  0  0  0
   -0.6261   -0.4010    0.0000 O   0  0  0  0  0  0  0  0  0  0  0  0
    0.0884    0.8365    0.0000 C   0  0  0  0  0  0  0  0  0  0  0  0
   -0.6261    1.2490    0.0000 O   0  0  0  0  0  0  0  0  0  0  0  0
    0.0884    3.3115    0.0000 H   0  0  0  0  0  0  0  0  0  0  0  0
    1.6265    2.1220    0.0000 H   0  0  0  0  0  0  0  0  0  0  0  0
    1.2562    2.7633    0.0000 H   0  0  0  0  0  0  0  0  0  0  0  0
    0.0884    1.6615    0.0000 H   0  0  0  0  0  0  0  0  0  0  0  0
    1.5174   -0.8135    0.0000 H   0  0  0  0  0  0  0  0  0  0  0  0
    3.0568   -0.4010    0.0000 H   0  0  0  0  0  0  0  0  0  0  0  0
    0.1709   -0.9313    0.0000 H   0  0  0  0  0  0  0  0  0  0  0  0
    0.6596   -1.2135    0.0000 H   0  0  0  0  0  0  0  0  0  0  0  0
   -0.6261    0.4240    0.0000 H   0  0  0  0  0  0  0  0  0  0  0  0
   -1.3533   -0.7906    0.0000 H   0  0  0  0  0  0  0  0  0  0  0  0
    0.8029    0.4240    0.0000 H   0  0  0  0  0  0  0  0  0  0  0  0
   -1.3405    1.6615    0.0000 H   0  0  0  0  0  0  0  0  0  0  0  0
  1  2  1  0  0  0  0
  2  3  1  0  0  0  0
  3  4  1  0  0  0  0
  4  5  1  0  0  0  0
  5  6  1  0  0  0  0
  5  7  1  0  0  0  0
  7  8  1  0  0  0  0
  8  9  1  0  0  0  0
  8 10  1  0  0  0  0
  3 10  1  0  0  0  0
 10 11  1  0  0  0  0
  1 12  1  0  0  0  0
  2 13  1  0  0  0  0
  2 14  1  0  0  0  0
  3 15  1  0  0  0  0
  5 16  1  0  0  0  0
  6 17  1  0  0  0  0
  7 18  1  0  0  0  0
  7 19  1  0  0  0  0
  8 20  1  0  0  0  0
  9 21  1  0  0  0  0
 10 22  1  0  0  0  0
 11 23  1  0  0  0  0
M  END
>  <InChIKey>
InChI=1S/C6H12O5/c7-2-4-6(10)3(8)1-5(9)11-4/h3-10H,1-2H2

>  <CASRN>
154-17-6

> <Outcome>
0

>  <Index>
2511

>  <StandardizerResult>
Clear Stereo (ID: ClearStereo)
Wedge Clean (ID: WedgeClean)
Mesomerize (ID: Mesomerize)
Tautomerize (ID: Tautomerize)
Add Explicit Hydrogens (ID: AddExplicitH)
Neutralize (ID: Neutralize)
Clean 2D (ID: Clean2D)

> <knn Distance>
4.0

> <CpId>
2511

$$$$
2530
  Mrv1532301301811342D          

 30 31  0  0  0  0            999 V2000
    1.4289   -1.6500    0.0000 N   0  0  0  0  0  0  0  0  0  0  0  0
    1.4289   -2.4750    0.0000 C   0  0  0  0  0  0  0  0  0  0  0  0
    2.1434   -2.8875    0.0000 C   0  0  0  0  0  0  0  0  0  0  0  0
    2.1434   -3.7125    0.0000 C   0  0  0  0  0  0  0  0  0  0  0  0
    1.4289   -4.1250    0.0000 C   0  0  0  0  0  0  0  0  0  0  0  0
    0.7145   -3.7125    0.0000 C   0  0  0  0  0  0  0  0  0  0  0  0
    0.7145   -2.8875    0.0000 C   0  0  0  0  0  0  0  0  0  0  0  0
    1.4289   -4.9500    0.0000 N   0  0  0  0  0  0  0  0  0  0  0  0
    2.1434   -5.3625    0.0000 N   0  0  0  0  0  0  0  0  0  0  0  0
    2.1434   -6.1875    0.0000 C   0  0  0  0  0  0  0  0  0  0  0  0
    2.8579   -6.6000    0.0000 C   0  0  0  0  0  0  0  0  0  0  0  0
    2.8579   -7.4250    0.0000 C   0  0  0  0  0  0  0  0  0  0  0  0
    2.1434   -7.8375    0.0000 C   0  0  0  0  0  0  0  0  0  0  0  0
    1.4289   -7.4250    0.0000 C   0  0  0  0  0  0  0  0  0  0  0  0
    1.4289   -6.6000    0.0000 C   0  0  0  0  0  0  0  0  0  0  0  0
    2.1434   -8.6625    0.0000 S   0  0  0  0  0  0  0  0  0  0  0  0
    2.1434   -9.4875    0.0000 O   0  0  0  0  0  0  0  0  0  0  0  0
    1.3184   -8.6625    0.0000 O   0  0  0  0  0  0  0  0  0  0  0  0
    2.9684   -8.6625    0.0000 O   0  0  0  0  0  0  0  0  0  0  0  0
    2.1434   -1.2375    0.0000 H   0  0  0  0  0  0  0  0  0  0  0  0
    0.7145   -1.2375    0.0000 H   0  0  0  0  0  0  0  0  0  0  0  0
    2.8579   -2.4750    0.0000 H   0  0  0  0  0  0  0  0  0  0  0  0
    2.8579   -4.1250    0.0000 H   0  0  0  0  0  0  0  0  0  0  0  0
   -0.0000   -4.1250    0.0000 H   0  0  0  0  0  0  0  0  0  0  0  0
   -0.0000   -2.4750    0.0000 H   0  0  0  0  0  0  0  0  0  0  0  0
    3.5723   -6.1875    0.0000 H   0  0  0  0  0  0  0  0  0  0  0  0
    3.5723   -7.8375    0.0000 H   0  0  0  0  0  0  0  0  0  0  0  0
    0.7145   -7.8375    0.0000 H   0  0  0  0  0  0  0  0  0  0  0  0
    0.7145   -6.1875    0.0000 H   0  0  0  0  0  0  0  0  0  0  0  0
    1.4289   -9.9000    0.0000 H   0  0  0  0  0  0  0  0  0  0  0  0
  1  2  1  0  0  0  0
  2  3  4  0  0  0  0
  3  4  4  0  0  0  0
  4  5  4  0  0  0  0
  5  6  4  0  0  0  0
  6  7  4  0  0  0  0
  2  7  4  0  0  0  0
  8  5  1  4  0  0  0
  8  9  2  0  0  0  0
  9 10  1  0  0  0  0
 10 11  4  0  0  0  0
 11 12  4  0  0  0  0
 12 13  4  0  0  0  0
 13 14  4  0  0  0  0
 14 15  4  0  0  0  0
 10 15  4  0  0  0  0
 13 16  1  0  0  0  0
 16 17  1  0  0  0  0
 16 18  2  0  0  0  0
 16 19  2  0  0  0  0
  1 20  1  0  0  0  0
  1 21  1  0  0  0  0
  3 22  1  0  0  0  0
  4 23  1  0  0  0  0
  6 24  1  0  0  0  0
  7 25  1  0  0  0  0
 11 26  1  0  0  0  0
 12 27  1  0  0  0  0
 14 28  1  0  0  0  0
 15 29  1  0  0  0  0
 17 30  1  0  0  0  0
M  END
>  <InChIKey>
InChI=1S/C12H11N3O3S/c13-9-1-3-10(4-2-9)14-15-11-5-7-12(8-6-11)19(16,17)18/h1-8H,13H2,(H,16,17,18)

>  <UN GHS>
Non-irritant

>  <CASRN>
104-23-4

> <Outcome>
0

>  <Index>
2530

>  <StandardizerResult>
Dearomatize (ID: Dearomatize)
Clear Stereo (ID: ClearStereo)
Wedge Clean (ID: WedgeClean)
Mesomerize (ID: Mesomerize)
Tautomerize (ID: Tautomerize)
Aromatize (ID: Aromatize)
Add Explicit Hydrogens (ID: AddExplicitH)
Neutralize (ID: Neutralize)
Clean 2D (ID: Clean2D)

> <knn Distance>
4.0

> <CpId>
2530

$$$$
2533
  Mrv1532301301811342D          

 73 72  0  0  0  0            999 V2000
    5.9941   -4.2698    0.0000 C   0  0  0  0  0  0  0  0  0  0  0  0
    6.7086   -4.6823    0.0000 C   0  0  0  0  0  0  0  0  0  0  0  0
    7.4231   -4.2698    0.0000 C   0  0  0  0  0  0  0  0  0  0  0  0
    8.1376   -4.6823    0.0000 C   0  0  0  0  0  0  0  0  0  0  0  0
    8.8520   -4.2698    0.0000 C   0  0  0  0  0  0  0  0  0  0  0  0
    9.5665   -4.6823    0.0000 C   0  0  0  0  0  0  0  0  0  0  0  0
   10.2810   -4.2698    0.0000 C   0  0  0  0  0  0  0  0  0  0  0  0
   10.9954   -4.6823    0.0000 C   0  0  0  0  0  0  0  0  0  0  0  0
   11.7099   -4.2698    0.0000 C   0  0  0  0  0  0  0  0  0  0  0  0
   12.4244   -4.6823    0.0000 C   0  0  0  0  0  0  0  0  0  0  0  0
   13.1388   -4.2698    0.0000 C   0  0  0  0  0  0  0  0  0  0  0  0
   13.8533   -4.6823    0.0000 C   0  0  0  0  0  0  0  0  0  0  0  0
   14.5678   -4.2698    0.0000 C   0  0  0  0  0  0  0  0  0  0  0  0
   15.2823   -4.6823    0.0000 C   0  0  0  0  0  0  0  0  0  0  0  0
   15.9967   -4.2698    0.0000 C   0  0  0  0  0  0  0  0  0  0  0  0
   16.7112   -4.6823    0.0000 C   0  0  0  0  0  0  0  0  0  0  0  0
   17.4257   -4.2698    0.0000 O   0  0  0  0  0  0  0  0  0  0  0  0
   18.1401   -4.6823    0.0000 P   0  0  0  0  0  0  0  0  0  0  0  0
   17.7276   -5.3967    0.0000 O   0  5  0  0  0  0  0  0  0  0  0  0
   18.5526   -3.9678    0.0000 O   0  0  0  0  0  0  0  0  0  0  0  0
   18.8546   -5.0948    0.0000 O   0  0  0  0  0  0  0  0  0  0  0  0
   19.5691   -4.6823    0.0000 C   0  0  0  0  0  0  0  0  0  0  0  0
   20.2836   -5.0948    0.0000 C   0  0  0  0  0  0  0  0  0  0  0  0
   20.9980   -4.6823    0.0000 N   0  3  0  0  0  0  0  0  0  0  0  0
   21.7125   -4.2698    0.0000 C   0  0  0  0  0  0  0  0  0  0  0  0
   21.4105   -5.3967    0.0000 C   0  0  0  0  0  0  0  0  0  0  0  0
   20.5855   -3.9678    0.0000 C   0  0  0  0  0  0  0  0  0  0  0  0
    6.4066   -3.5553    0.0000 H   0  0  0  0  0  0  0  0  0  0  0  0
    5.2797   -3.8573    0.0000 H   0  0  0  0  0  0  0  0  0  0  0  0
    5.5816   -4.9842    0.0000 H   0  0  0  0  0  0  0  0  0  0  0  0
    6.3383   -5.4195    0.0000 H   0  0  0  0  0  0  0  0  0  0  0  0
    7.0789   -5.4195    0.0000 H   0  0  0  0  0  0  0  0  0  0  0  0
    7.7933   -3.5325    0.0000 H   0  0  0  0  0  0  0  0  0  0  0  0
    7.0528   -3.5325    0.0000 H   0  0  0  0  0  0  0  0  0  0  0  0
    7.7673   -5.4195    0.0000 H   0  0  0  0  0  0  0  0  0  0  0  0
    8.5078   -5.4195    0.0000 H   0  0  0  0  0  0  0  0  0  0  0  0
    9.2223   -3.5325    0.0000 H   0  0  0  0  0  0  0  0  0  0  0  0
    8.4818   -3.5325    0.0000 H   0  0  0  0  0  0  0  0  0  0  0  0
    9.1962   -5.4195    0.0000 H   0  0  0  0  0  0  0  0  0  0  0  0
    9.9368   -5.4195    0.0000 H   0  0  0  0  0  0  0  0  0  0  0  0
   10.6512   -3.5325    0.0000 H   0  0  0  0  0  0  0  0  0  0  0  0
    9.9107   -3.5325    0.0000 H   0  0  0  0  0  0  0  0  0  0  0  0
   10.6252   -5.4195    0.0000 H   0  0  0  0  0  0  0  0  0  0  0  0
   11.3657   -5.4195    0.0000 H   0  0  0  0  0  0  0  0  0  0  0  0
   12.0802   -3.5325    0.0000 H   0  0  0  0  0  0  0  0  0  0  0  0
   11.3396   -3.5325    0.0000 H   0  0  0  0  0  0  0  0  0  0  0  0
   12.0541   -5.4195    0.0000 H   0  0  0  0  0  0  0  0  0  0  0  0
   12.7946   -5.4195    0.0000 H   0  0  0  0  0  0  0  0  0  0  0  0
   13.5091   -3.5325    0.0000 H   0  0  0  0  0  0  0  0  0  0  0  0
   12.7686   -3.5325    0.0000 H   0  0  0  0  0  0  0  0  0  0  0  0
   13.4831   -5.4195    0.0000 H   0  0  0  0  0  0  0  0  0  0  0  0
   14.2236   -5.4195    0.0000 H   0  0  0  0  0  0  0  0  0  0  0  0
   14.9380   -3.5325    0.0000 H   0  0  0  0  0  0  0  0  0  0  0  0
   14.1975   -3.5325    0.0000 H   0  0  0  0  0  0  0  0  0  0  0  0
   14.9120   -5.4195    0.0000 H   0  0  0  0  0  0  0  0  0  0  0  0
   15.6525   -5.4195    0.0000 H   0  0  0  0  0  0  0  0  0  0  0  0
   16.3670   -3.5325    0.0000 H   0  0  0  0  0  0  0  0  0  0  0  0
   15.6265   -3.5325    0.0000 H   0  0  0  0  0  0  0  0  0  0  0  0
   16.3409   -5.4195    0.0000 H   0  0  0  0  0  0  0  0  0  0  0  0
   17.0815   -5.4195    0.0000 H   0  0  0  0  0  0  0  0  0  0  0  0
   19.9393   -3.9450    0.0000 H   0  0  0  0  0  0  0  0  0  0  0  0
   19.1988   -3.9450    0.0000 H   0  0  0  0  0  0  0  0  0  0  0  0
   19.9133   -5.8320    0.0000 H   0  0  0  0  0  0  0  0  0  0  0  0
   20.6538   -5.8320    0.0000 H   0  0  0  0  0  0  0  0  0  0  0  0
   22.1250   -4.9842    0.0000 H   0  0  0  0  0  0  0  0  0  0  0  0
   22.4270   -3.8573    0.0000 H   0  0  0  0  0  0  0  0  0  0  0  0
   21.3000   -3.5553    0.0000 H   0  0  0  0  0  0  0  0  0  0  0  0
   21.1960   -6.1934    0.0000 H   0  0  0  0  0  0  0  0  0  0  0  0
   21.8225   -6.1115    0.0000 H   0  0  0  0  0  0  0  0  0  0  0  0
   22.2073   -5.6106    0.0000 H   0  0  0  0  0  0  0  0  0  0  0  0
   20.7383   -3.1571    0.0000 H   0  0  0  0  0  0  0  0  0  0  0  0
   20.0702   -3.3235    0.0000 H   0  0  0  0  0  0  0  0  0  0  0  0
   20.1605   -4.6749    0.0000 H   0  0  0  0  0  0  0  0  0  0  0  0
  1  2  1  0  0  0  0
  2  3  1  0  0  0  0
  3  4  1  0  0  0  0
  4  5  1  0  0  0  0
  5  6  1  0  0  0  0
  6  7  1  0  0  0  0
  7  8  1  0  0  0  0
  8  9  1  0  0  0  0
  9 10  1  0  0  0  0
 10 11  1  0  0  0  0
 11 12  1  0  0  0  0
 12 13  1  0  0  0  0
 13 14  1  0  0  0  0
 14 15  1  0  0  0  0
 15 16  1  0  0  0  0
 16 17  1  0  0  0  0
 17 18  1  0  0  0  0
 18 19  1  0  0  0  0
 18 20  2  0  0  0  0
 18 21  1  0  0  0  0
 21 22  1  0  0  0  0
 22 23  1  0  0  0  0
 23 24  1  0  0  0  0
 24 25  1  0  0  0  0
 24 26  1  0  0  0  0
 24 27  1  0  0  0  0
  1 28  1  0  0  0  0
  1 29  1  0  0  0  0
  1 30  1  0  0  0  0
  2 31  1  0  0  0  0
  2 32  1  0  0  0  0
  3 33  1  0  0  0  0
  3 34  1  0  0  0  0
  4 35  1  0  0  0  0
  4 36  1  0  0  0  0
  5 37  1  0  0  0  0
  5 38  1  0  0  0  0
  6 39  1  0  0  0  0
  6 40  1  0  0  0  0
  7 41  1  0  0  0  0
  7 42  1  0  0  0  0
  8 43  1  0  0  0  0
  8 44  1  0  0  0  0
  9 45  1  0  0  0  0
  9 46  1  0  0  0  0
 10 47  1  0  0  0  0
 10 48  1  0  0  0  0
 11 49  1  0  0  0  0
 11 50  1  0  0  0  0
 12 51  1  0  0  0  0
 12 52  1  0  0  0  0
 13 53  1  0  0  0  0
 13 54  1  0  0  0  0
 14 55  1  0  0  0  0
 14 56  1  0  0  0  0
 15 57  1  0  0  0  0
 15 58  1  0  0  0  0
 16 59  1  0  0  0  0
 16 60  1  0  0  0  0
 22 61  1  0  0  0  0
 22 62  1  0  0  0  0
 23 63  1  0  0  0  0
 23 64  1  0  0  0  0
 25 65  1  0  0  0  0
 25 66  1  0  0  0  0
 25 67  1  0  0  0  0
 26 68  1  0  0  0  0
 26 69  1  0  0  0  0
 26 70  1  0  0  0  0
 27 71  1  0  0  0  0
 27 72  1  0  0  0  0
 27 73  1  0  0  0  0
M  CHG  2  19  -1  24   1
M  END
>  <InChIKey>
InChI=1S/C21H46NO4P/c1-5-6-7-8-9-10-11-12-13-14-15-16-17-18-20-25-27(23,24)26-21-19-22(2,3)4/h5-21H2,1-4H3

>  <CASRN>
58066-85-6

> <Outcome>
0

>  <Index>
2533

>  <StandardizerResult>
Clear Stereo (ID: ClearStereo)
Wedge Clean (ID: WedgeClean)
Mesomerize (ID: Mesomerize)
Tautomerize (ID: Tautomerize)
Add Explicit Hydrogens (ID: AddExplicitH)
Clean 2D (ID: Clean2D)

> <knn Distance>
4.0

> <CpId>
2533

$$$$
2601
  Mrv1532301301811342D          

 37 39  0  0  0  0            999 V2000
    0.7025    1.2074    0.0000 C   0  0  0  0  0  0  0  0  0  0  0  0
   -0.0120    0.7949    0.0000 C   0  0  0  0  0  0  0  0  0  0  0  0
   -0.0120   -0.0301    0.0000 C   0  0  0  0  0  0  0  0  0  0  0  0
   -0.7264   -0.4426    0.0000 C   0  0  0  0  0  0  0  0  0  0  0  0
   -0.7264   -1.2676    0.0000 C   0  0  0  0  0  0  0  0  0  0  0  0
   -1.4409   -1.6801    0.0000 C   0  0  0  0  0  0  0  0  0  0  0  0
   -2.1554   -1.2676    0.0000 C   0  0  0  0  0  0  0  0  0  0  0  0
   -2.1554   -0.4426    0.0000 C   0  0  0  0  0  0  0  0  0  0  0  0
   -1.4409   -0.0301    0.0000 C   0  0  0  0  0  0  0  0  0  0  0  0
    0.7025   -0.4426    0.0000 C   0  0  0  0  0  0  0  0  0  0  0  0
    1.4170   -0.0301    0.0000 C   0  0  0  0  0  0  0  0  0  0  0  0
    1.4170    0.7949    0.0000 O   0  0  0  0  0  0  0  0  0  0  0  0
    2.1314   -0.4426    0.0000 C   0  0  0  0  0  0  0  0  0  0  0  0
    2.8459   -0.0301    0.0000 C   0  0  0  0  0  0  0  0  0  0  0  0
    3.5604   -0.4426    0.0000 C   0  0  0  0  0  0  0  0  0  0  0  0
    3.5604   -1.2676    0.0000 C   0  0  0  0  0  0  0  0  0  0  0  0
    2.8459   -1.6801    0.0000 C   0  0  0  0  0  0  0  0  0  0  0  0
    2.1314   -1.2676    0.0000 C   0  0  0  0  0  0  0  0  0  0  0  0
    1.4170   -1.6801    0.0000 O   0  0  0  0  0  0  0  0  0  0  0  0
    0.7025   -1.2676    0.0000 C   0  0  0  0  0  0  0  0  0  0  0  0
   -0.0120   -1.6801    0.0000 O   0  0  0  0  0  0  0  0  0  0  0  0
    1.4170    1.6199    0.0000 H   0  0  0  0  0  0  0  0  0  0  0  0
    0.7025    2.0324    0.0000 H   0  0  0  0  0  0  0  0  0  0  0  0
   -0.0120    1.6199    0.0000 H   0  0  0  0  0  0  0  0  0  0  0  0
   -0.7872    1.0770    0.0000 H   0  0  0  0  0  0  0  0  0  0  0  0
   -0.7872    0.5127    0.0000 H   0  0  0  0  0  0  0  0  0  0  0  0
    0.7025    0.3824    0.0000 H   0  0  0  0  0  0  0  0  0  0  0  0
   -0.0120   -0.8551    0.0000 H   0  0  0  0  0  0  0  0  0  0  0  0
   -1.4409   -2.5051    0.0000 H   0  0  0  0  0  0  0  0  0  0  0  0
   -2.8699   -1.6801    0.0000 H   0  0  0  0  0  0  0  0  0  0  0  0
   -2.8699   -0.0301    0.0000 H   0  0  0  0  0  0  0  0  0  0  0  0
   -1.9124    0.6469    0.0000 H   0  0  0  0  0  0  0  0  0  0  0  0
    2.2420    0.7949    0.0000 H   0  0  0  0  0  0  0  0  0  0  0  0
    2.8459    0.7949    0.0000 H   0  0  0  0  0  0  0  0  0  0  0  0
    4.2748   -0.0301    0.0000 H   0  0  0  0  0  0  0  0  0  0  0  0
    4.2748   -1.6801    0.0000 H   0  0  0  0  0  0  0  0  0  0  0  0
    2.8459   -2.5051    0.0000 H   0  0  0  0  0  0  0  0  0  0  0  0
  1  2  1  0  0  0  0
  2  3  1  0  0  0  0
  3  4  1  0  0  0  0
  4  5  4  0  0  0  0
  5  6  4  0  0  0  0
  6  7  4  0  0  0  0
  7  8  4  0  0  0  0
  8  9  4  0  0  0  0
  4  9  4  0  0  0  0
  3 10  1  0  0  0  0
 10 11  2  0  0  0  0
 11 12  1  0  0  0  0
 11 13  1  0  0  0  0
 13 14  4  0  0  0  0
 14 15  4  0  0  0  0
 15 16  4  0  0  0  0
 16 17  4  0  0  0  0
 17 18  4  0  0  0  0
 13 18  4  0  0  0  0
 18 19  1  0  0  0  0
 19 20  1  0  0  0  0
 10 20  1  0  0  0  0
 20 21  2  0  0  0  0
  1 22  1  0  0  0  0
  1 23  1  0  0  0  0
  1 24  1  0  0  0  0
  2 25  1  0  0  0  0
  2 26  1  0  0  0  0
  3 27  1  0  0  0  0
  5 28  1  0  0  0  0
  6 29  1  0  0  0  0
  7 30  1  0  0  0  0
  8 31  1  0  0  0  0
  9 32  1  0  0  0  0
 12 33  1  0  0  0  0
 14 34  1  0  0  0  0
 15 35  1  0  0  0  0
 16 36  1  0  0  0  0
 17 37  1  0  0  0  0
M  END
>  <InChIKey>
InChI=1S/C18H16O3/c1-2-13(12-8-4-3-5-9-12)16-17(19)14-10-6-7-11-15(14)21-18(16)20/h3-11,13,19H,2H2,1H3

>  <CASRN>
435-97-2

> <Outcome>
0

>  <Index>
2601

>  <StandardizerResult>
Dearomatize (ID: Dearomatize)
Clear Stereo (ID: ClearStereo)
Wedge Clean (ID: WedgeClean)
Mesomerize (ID: Mesomerize)
Tautomerize (ID: Tautomerize)
Aromatize (ID: Aromatize)
Add Explicit Hydrogens (ID: AddExplicitH)
Neutralize (ID: Neutralize)
Clean 2D (ID: Clean2D)

> <knn Distance>
4.0

> <CpId>
2601

$$$$
2606
  Mrv1532301301811342D          

 27 28  0  0  0  0            999 V2000
    1.4289   -1.6500    0.0000 N   0  0  0  0  0  0  0  0  0  0  0  0
    1.4289   -2.4750    0.0000 C   0  0  0  0  0  0  0  0  0  0  0  0
    2.1434   -2.8875    0.0000 C   0  0  0  0  0  0  0  0  0  0  0  0
    2.1434   -3.7125    0.0000 C   0  0  0  0  0  0  0  0  0  0  0  0
    1.4289   -4.1250    0.0000 C   0  0  0  0  0  0  0  0  0  0  0  0
    1.4289   -4.9500    0.0000 N   0  0  0  0  0  0  0  0  0  0  0  0
    2.1434   -5.3625    0.0000 N   0  0  0  0  0  0  0  0  0  0  0  0
    2.1434   -6.1875    0.0000 C   0  0  0  0  0  0  0  0  0  0  0  0
    2.8579   -6.6000    0.0000 C   0  0  0  0  0  0  0  0  0  0  0  0
    2.8579   -7.4250    0.0000 C   0  0  0  0  0  0  0  0  0  0  0  0
    2.1434   -7.8375    0.0000 C   0  0  0  0  0  0  0  0  0  0  0  0
    1.4289   -7.4250    0.0000 C   0  0  0  0  0  0  0  0  0  0  0  0
    1.4289   -6.6000    0.0000 C   0  0  0  0  0  0  0  0  0  0  0  0
    0.7145   -3.7125    0.0000 C   0  0  0  0  0  0  0  0  0  0  0  0
   -0.0000   -4.1250    0.0000 N   0  0  0  0  0  0  0  0  0  0  0  0
    0.7145   -2.8875    0.0000 N   0  0  0  0  0  0  0  0  0  0  0  0
    2.1434   -1.2375    0.0000 H   0  0  0  0  0  0  0  0  0  0  0  0
    0.7145   -1.2375    0.0000 H   0  0  0  0  0  0  0  0  0  0  0  0
    2.8579   -2.4750    0.0000 H   0  0  0  0  0  0  0  0  0  0  0  0
    2.8579   -4.1250    0.0000 H   0  0  0  0  0  0  0  0  0  0  0  0
    3.5723   -6.1875    0.0000 H   0  0  0  0  0  0  0  0  0  0  0  0
    3.5723   -7.8375    0.0000 H   0  0  0  0  0  0  0  0  0  0  0  0
    2.1434   -8.6625    0.0000 H   0  0  0  0  0  0  0  0  0  0  0  0
    0.7145   -7.8375    0.0000 H   0  0  0  0  0  0  0  0  0  0  0  0
    0.7145   -6.1875    0.0000 H   0  0  0  0  0  0  0  0  0  0  0  0
   -0.7145   -3.7125    0.0000 H   0  0  0  0  0  0  0  0  0  0  0  0
   -0.0000   -4.9500    0.0000 H   0  0  0  0  0  0  0  0  0  0  0  0
  1  2  1  0  0  0  0
  2  3  4  0  0  0  0
  3  4  4  0  0  0  0
  4  5  4  0  0  0  0
  6  5  1  4  0  0  0
  6  7  2  0  0  0  0
  7  8  1  0  0  0  0
  8  9  4  0  0  0  0
  9 10  4  0  0  0  0
 10 11  4  0  0  0  0
 11 12  4  0  0  0  0
 12 13  4  0  0  0  0
  8 13  4  0  0  0  0
  5 14  4  0  0  0  0
 14 15  1  0  0  0  0
 14 16  4  0  0  0  0
  2 16  4  0  0  0  0
  1 17  1  0  0  0  0
  1 18  1  0  0  0  0
  3 19  1  0  0  0  0
  4 20  1  0  0  0  0
  9 21  1  0  0  0  0
 10 22  1  0  0  0  0
 11 23  1  0  0  0  0
 12 24  1  0  0  0  0
 13 25  1  0  0  0  0
 15 26  1  0  0  0  0
 15 27  1  0  0  0  0
M  END
>  <InChIKey>
InChI=1S/C11H11N5/c12-10-7-6-9(11(13)14-10)16-15-8-4-2-1-3-5-8/h1-7H,(H4,12,13,14)

>  <CASRN>
94-78-0

> <Outcome>
0

>  <Index>
2606

>  <StandardizerResult>
Dearomatize (ID: Dearomatize)
Clear Stereo (ID: ClearStereo)
Wedge Clean (ID: WedgeClean)
Mesomerize (ID: Mesomerize)
Tautomerize (ID: Tautomerize)
Aromatize (ID: Aromatize)
Add Explicit Hydrogens (ID: AddExplicitH)
Neutralize (ID: Neutralize)
Clean 2D (ID: Clean2D)

> <knn Distance>
4.0

> <CpId>
2606

$$$$
2622
  Mrv1532301301811342D          

 52 55  0  0  0  0            999 V2000
    2.2465   -2.5691    0.0000 C   0  0  0  0  0  0  0  0  0  0  0  0
    3.0587   -2.4239    0.0000 C   0  0  0  0  0  0  0  0  0  0  0  0
    3.1182   -3.2467    0.0000 O   0  0  0  0  0  0  0  0  0  0  0  0
    2.8294   -1.6314    0.0000 C   0  0  0  0  0  0  0  0  0  0  0  0
    3.5122   -1.1684    0.0000 C   0  0  0  0  0  0  0  0  0  0  0  0
    4.1635   -1.6747    0.0000 C   0  0  0  0  0  0  0  0  0  0  0  0
    4.9756   -1.5295    0.0000 C   0  0  0  0  0  0  0  0  0  0  0  0
    5.2559   -0.7536    0.0000 C   0  0  0  0  0  0  0  0  0  0  0  0
    6.0681   -0.6084    0.0000 C   0  0  0  0  0  0  0  0  0  0  0  0
    6.5999   -1.2391    0.0000 C   0  0  0  0  0  0  0  0  0  0  0  0
    7.4120   -1.0939    0.0000 C   0  0  0  0  0  0  0  0  0  0  0  0
    7.9438   -1.7246    0.0000 C   0  0  0  0  0  0  0  0  0  0  0  0
    8.7559   -1.5794    0.0000 O   0  0  0  0  0  0  0  0  0  0  0  0
    7.6635   -2.5005    0.0000 O   0  0  0  0  0  0  0  0  0  0  0  0
    6.8514   -2.6457    0.0000 C   0  0  0  0  0  0  0  0  0  0  0  0
    6.3196   -2.0150    0.0000 C   0  0  0  0  0  0  0  0  0  0  0  0
    6.0393   -2.7910    0.0000 C   0  0  0  0  0  0  0  0  0  0  0  0
    5.5075   -2.1602    0.0000 C   0  0  0  0  0  0  0  0  0  0  0  0
    5.2272   -2.9362    0.0000 C   0  0  0  0  0  0  0  0  0  0  0  0
    4.4150   -3.0814    0.0000 C   0  0  0  0  0  0  0  0  0  0  0  0
    3.8832   -2.4507    0.0000 C   0  0  0  0  0  0  0  0  0  0  0  0
    3.5234   -3.1930    0.0000 C   0  0  0  0  0  0  0  0  0  0  0  0
    2.1013   -1.7570    0.0000 H   0  0  0  0  0  0  0  0  0  0  0  0
    1.4344   -2.7143    0.0000 H   0  0  0  0  0  0  0  0  0  0  0  0
    2.3918   -3.3812    0.0000 H   0  0  0  0  0  0  0  0  0  0  0  0
    3.2475   -4.0615    0.0000 H   0  0  0  0  0  0  0  0  0  0  0  0
    2.5208   -0.8662    0.0000 H   0  0  0  0  0  0  0  0  0  0  0  0
    2.3917   -2.3307    0.0000 H   0  0  0  0  0  0  0  0  0  0  0  0
    3.9230   -0.4529    0.0000 H   0  0  0  0  0  0  0  0  0  0  0  0
    3.1488   -0.4278    0.0000 H   0  0  0  0  0  0  0  0  0  0  0  0
    4.6953   -2.3055    0.0000 H   0  0  0  0  0  0  0  0  0  0  0  0
    4.4438   -0.8988    0.0000 H   0  0  0  0  0  0  0  0  0  0  0  0
    5.3973    0.0592    0.0000 H   0  0  0  0  0  0  0  0  0  0  0  0
    4.8417   -0.0401    0.0000 H   0  0  0  0  0  0  0  0  0  0  0  0
    6.8325   -0.2982    0.0000 H   0  0  0  0  0  0  0  0  0  0  0  0
    6.4401    0.1279    0.0000 H   0  0  0  0  0  0  0  0  0  0  0  0
    7.1317   -1.8698    0.0000 H   0  0  0  0  0  0  0  0  0  0  0  0
    8.0107   -0.5263    0.0000 H   0  0  0  0  0  0  0  0  0  0  0  0
    7.3143   -0.2747    0.0000 H   0  0  0  0  0  0  0  0  0  0  0  0
    6.7101   -3.4585    0.0000 H   0  0  0  0  0  0  0  0  0  0  0  0
    7.2656   -3.3592    0.0000 H   0  0  0  0  0  0  0  0  0  0  0  0
    5.4203   -3.3364    0.0000 H   0  0  0  0  0  0  0  0  0  0  0  0
    5.7931   -3.5784    0.0000 H   0  0  0  0  0  0  0  0  0  0  0  0
    6.2373   -3.5918    0.0000 H   0  0  0  0  0  0  0  0  0  0  0  0
    5.7878   -1.3843    0.0000 H   0  0  0  0  0  0  0  0  0  0  0  0
    4.6473   -3.5230    0.0000 H   0  0  0  0  0  0  0  0  0  0  0  0
    5.0918   -3.7500    0.0000 H   0  0  0  0  0  0  0  0  0  0  0  0
    3.8217   -3.6545    0.0000 H   0  0  0  0  0  0  0  0  0  0  0  0
    4.2842   -3.8959    0.0000 H   0  0  0  0  0  0  0  0  0  0  0  0
    3.6329   -4.0107    0.0000 H   0  0  0  0  0  0  0  0  0  0  0  0
    2.7797   -2.8358    0.0000 H   0  0  0  0  0  0  0  0  0  0  0  0
    2.8910   -3.7229    0.0000 H   0  0  0  0  0  0  0  0  0  0  0  0
  1  2  1  0  0  0  0
  2  3  1  0  0  0  0
  2  4  1  0  0  0  0
  4  5  1  0  0  0  0
  5  6  1  0  0  0  0
  6  7  1  0  0  0  0
  7  8  1  0  0  0  0
  8  9  1  0  0  0  0
  9 10  1  0  0  0  0
 10 11  1  0  0  0  0
 11 12  1  0  0  0  0
 12 13  2  0  0  0  0
 12 14  1  0  0  0  0
 14 15  1  0  0  0  0
 15 16  1  0  0  0  0
 10 16  1  0  0  0  0
 16 17  1  0  0  0  0
 16 18  1  0  0  0  0
  7 18  1  0  0  0  0
 18 19  1  0  0  0  0
 19 20  1  0  0  0  0
 20 21  1  0  0  0  0
  2 21  1  0  0  0  0
  6 21  1  0  0  0  0
 21 22  1  0  0  0  0
  1 23  1  0  0  0  0
  1 24  1  0  0  0  0
  1 25  1  0  0  0  0
  3 26  1  0  0  0  0
  4 27  1  0  0  0  0
  4 28  1  0  0  0  0
  5 29  1  0  0  0  0
  5 30  1  0  0  0  0
  6 31  1  0  0  0  0
  7 32  1  0  0  0  0
  8 33  1  0  0  0  0
  8 34  1  0  0  0  0
  9 35  1  0  0  0  0
  9 36  1  0  0  0  0
 10 37  1  0  0  0  0
 11 38  1  0  0  0  0
 11 39  1  0  0  0  0
 15 40  1  0  0  0  0
 15 41  1  0  0  0  0
 17 42  1  0  0  0  0
 17 43  1  0  0  0  0
 17 44  1  0  0  0  0
 18 45  1  0  0  0  0
 19 46  1  0  0  0  0
 19 47  1  0  0  0  0
 20 48  1  0  0  0  0
 20 49  1  0  0  0  0
 22 50  1  0  0  0  0
 22 51  1  0  0  0  0
 22 52  1  0  0  0  0
M  END
>  <InChIKey>
InChI=1S/C19H30O3/c1-17-11-22-16(20)10-12(17)4-5-13-14(17)6-8-18(2)15(13)7-9-19(18,3)21/h12-15,21H,4-11H2,1-3H3

>  <CASRN>
53-39-4

> <Outcome>
0

>  <Index>
2622

>  <StandardizerResult>
Clear Stereo (ID: ClearStereo)
Wedge Clean (ID: WedgeClean)
Mesomerize (ID: Mesomerize)
Tautomerize (ID: Tautomerize)
Add Explicit Hydrogens (ID: AddExplicitH)
Neutralize (ID: Neutralize)
Clean 2D (ID: Clean2D)

> <knn Distance>
4.0

> <CpId>
2622

$$$$
2623
  Mrv1532301301811342D          

 44 47  0  0  0  0            999 V2000
    3.7983    3.3235    0.0000 C   0  0  0  0  0  0  0  0  0  0  0  0
    3.7983    2.4985    0.0000 N   0  0  0  0  0  0  0  0  0  0  0  0
    3.0838    2.0860    0.0000 C   0  0  0  0  0  0  0  0  0  0  0  0
    3.0838    1.2610    0.0000 C   0  0  0  0  0  0  0  0  0  0  0  0
    2.3694    0.8485    0.0000 C   0  0  0  0  0  0  0  0  0  0  0  0
    2.3694    0.0235    0.0000 C   0  0  0  0  0  0  0  0  0  0  0  0
    2.5069   -0.5265    0.0000 C   0  0  0  0  0  0  0  0  0  0  0  0
    2.5069   -1.0765    0.0000 C   0  0  0  0  0  0  0  0  0  0  0  0
    2.3694   -1.6265    0.0000 C   0  0  0  0  0  0  0  0  0  0  0  0
    3.0838   -1.2140    0.0000 C   0  0  0  0  0  0  0  0  0  0  0  0
    3.7983   -1.6265    0.0000 C   0  0  0  0  0  0  0  0  0  0  0  0
    4.5128   -1.2140    0.0000 C   0  0  0  0  0  0  0  0  0  0  0  0
    4.5128   -0.3890    0.0000 C   0  0  0  0  0  0  0  0  0  0  0  0
    3.7983    0.0235    0.0000 C   0  0  0  0  0  0  0  0  0  0  0  0
    3.0838   -0.3890    0.0000 C   0  0  0  0  0  0  0  0  0  0  0  0
    1.6549   -1.2140    0.0000 C   0  0  0  0  0  0  0  0  0  0  0  0
    0.9404   -1.6265    0.0000 C   0  0  0  0  0  0  0  0  0  0  0  0
    0.2259   -1.2140    0.0000 C   0  0  0  0  0  0  0  0  0  0  0  0
    0.2259   -0.3890    0.0000 C   0  0  0  0  0  0  0  0  0  0  0  0
    0.9404    0.0235    0.0000 C   0  0  0  0  0  0  0  0  0  0  0  0
    1.6549   -0.3890    0.0000 C   0  0  0  0  0  0  0  0  0  0  0  0
    4.6233    3.3235    0.0000 H   0  0  0  0  0  0  0  0  0  0  0  0
    3.7983    4.1485    0.0000 H   0  0  0  0  0  0  0  0  0  0  0  0
    2.9733    3.3235    0.0000 H   0  0  0  0  0  0  0  0  0  0  0  0
    4.5128    2.0860    0.0000 H   0  0  0  0  0  0  0  0  0  0  0  0
    2.6305    2.7753    0.0000 H   0  0  0  0  0  0  0  0  0  0  0  0
    2.2602    2.1340    0.0000 H   0  0  0  0  0  0  0  0  0  0  0  0
    3.5372    0.5717    0.0000 H   0  0  0  0  0  0  0  0  0  0  0  0
    3.9074    1.2130    0.0000 H   0  0  0  0  0  0  0  0  0  0  0  0
    1.9160    1.5378    0.0000 H   0  0  0  0  0  0  0  0  0  0  0  0
    1.5458    0.8965    0.0000 H   0  0  0  0  0  0  0  0  0  0  0  0
    1.7525   -0.8606    0.0000 H   0  0  0  0  0  0  0  0  0  0  0  0
    2.0569   -1.2180    0.0000 H   0  0  0  0  0  0  0  0  0  0  0  0
    2.7891   -0.3013    0.0000 H   0  0  0  0  0  0  0  0  0  0  0  0
    1.8418   -0.5884    0.0000 H   0  0  0  0  0  0  0  0  0  0  0  0
    2.3694   -2.4515    0.0000 H   0  0  0  0  0  0  0  0  0  0  0  0
    3.7983   -2.4515    0.0000 H   0  0  0  0  0  0  0  0  0  0  0  0
    5.2272   -1.6265    0.0000 H   0  0  0  0  0  0  0  0  0  0  0  0
    5.2272    0.0235    0.0000 H   0  0  0  0  0  0  0  0  0  0  0  0
    4.4043    0.5833    0.0000 H   0  0  0  0  0  0  0  0  0  0  0  0
    0.9404   -2.4515    0.0000 H   0  0  0  0  0  0  0  0  0  0  0  0
   -0.4885   -1.6265    0.0000 H   0  0  0  0  0  0  0  0  0  0  0  0
   -0.4885    0.0235    0.0000 H   0  0  0  0  0  0  0  0  0  0  0  0
    0.9404    0.8485    0.0000 H   0  0  0  0  0  0  0  0  0  0  0  0
  1  2  1  0  0  0  0
  2  3  1  0  0  0  0
  3  4  1  0  0  0  0
  4  5  1  0  0  0  0
  5  6  1  0  0  0  0
  6  7  1  0  0  0  0
  7  8  1  0  0  0  0
  8  9  1  0  0  0  0
  9 10  1  0  0  0  0
 10 11  4  0  0  0  0
 11 12  4  0  0  0  0
 12 13  4  0  0  0  0
 13 14  4  0  0  0  0
 14 15  4  0  0  0  0
  6 15  1  0  0  0  0
 10 15  4  0  0  0  0
  9 16  1  0  0  0  0
 16 17  4  0  0  0  0
 17 18  4  0  0  0  0
 18 19  4  0  0  0  0
 19 20  4  0  0  0  0
 20 21  4  0  0  0  0
  6 21  1  0  0  0  0
 16 21  4  0  0  0  0
  1 22  1  0  0  0  0
  1 23  1  0  0  0  0
  1 24  1  0  0  0  0
  2 25  1  0  0  0  0
  3 26  1  0  0  0  0
  3 27  1  0  0  0  0
  4 28  1  0  0  0  0
  4 29  1  0  0  0  0
  5 30  1  0  0  0  0
  5 31  1  0  0  0  0
  7 32  1  0  0  0  0
  7 33  1  0  0  0  0
  8 34  1  0  0  0  0
  8 35  1  0  0  0  0
  9 36  1  0  0  0  0
 11 37  1  0  0  0  0
 12 38  1  0  0  0  0
 13 39  1  0  0  0  0
 14 40  1  0  0  0  0
 17 41  1  0  0  0  0
 18 42  1  0  0  0  0
 19 43  1  0  0  0  0
 20 44  1  0  0  0  0
M  END
>  <InChIKey>
InChI=1S/C20H23N/c1-21-14-6-12-20-13-11-15(16-7-2-4-9-18(16)20)17-8-3-5-10-19(17)20/h2-5,7-10,15,21H,6,11-14H2,1H3

>  <CASRN>
10262-69-8

> <Outcome>
0

>  <Index>
2623

>  <StandardizerResult>
Dearomatize (ID: Dearomatize)
Clear Stereo (ID: ClearStereo)
Wedge Clean (ID: WedgeClean)
Mesomerize (ID: Mesomerize)
Tautomerize (ID: Tautomerize)
Aromatize (ID: Aromatize)
Add Explicit Hydrogens (ID: AddExplicitH)
Neutralize (ID: Neutralize)
Clean 2D (ID: Clean2D)

> <knn Distance>
4.0

> <CpId>
2623

$$$$
2628
  Mrv1532301301811342D          

 39 41  0  0  0  0            999 V2000
   -0.7342    2.0669    0.0000 C   0  0  0  0  0  0  0  0  0  0  0  0
   -0.7342    1.2419    0.0000 C   0  0  0  0  0  0  0  0  0  0  0  0
   -1.4487    0.8294    0.0000 O   0  0  0  0  0  0  0  0  0  0  0  0
   -0.0198    0.8294    0.0000 C   0  0  0  0  0  0  0  0  0  0  0  0
   -0.0198    0.0044    0.0000 C   0  0  0  0  0  0  0  0  0  0  0  0
   -0.7342   -0.4081    0.0000 C   0  0  0  0  0  0  0  0  0  0  0  0
   -0.7342   -1.2331    0.0000 C   0  0  0  0  0  0  0  0  0  0  0  0
   -1.4487   -1.6456    0.0000 C   0  0  0  0  0  0  0  0  0  0  0  0
   -2.1632   -1.2331    0.0000 C   0  0  0  0  0  0  0  0  0  0  0  0
   -2.1632   -0.4081    0.0000 C   0  0  0  0  0  0  0  0  0  0  0  0
   -1.4487    0.0044    0.0000 C   0  0  0  0  0  0  0  0  0  0  0  0
    0.6947   -0.4081    0.0000 C   0  0  0  0  0  0  0  0  0  0  0  0
    1.4092    0.0044    0.0000 C   0  0  0  0  0  0  0  0  0  0  0  0
    1.4092    0.8294    0.0000 O   0  0  0  0  0  0  0  0  0  0  0  0
    2.1237   -0.4081    0.0000 C   0  0  0  0  0  0  0  0  0  0  0  0
    2.8381    0.0044    0.0000 C   0  0  0  0  0  0  0  0  0  0  0  0
    3.5526   -0.4081    0.0000 C   0  0  0  0  0  0  0  0  0  0  0  0
    3.5526   -1.2331    0.0000 C   0  0  0  0  0  0  0  0  0  0  0  0
    2.8381   -1.6456    0.0000 C   0  0  0  0  0  0  0  0  0  0  0  0
    2.1237   -1.2331    0.0000 C   0  0  0  0  0  0  0  0  0  0  0  0
    1.4092   -1.6456    0.0000 O   0  0  0  0  0  0  0  0  0  0  0  0
    0.6947   -1.2331    0.0000 C   0  0  0  0  0  0  0  0  0  0  0  0
   -0.0198   -1.6456    0.0000 O   0  0  0  0  0  0  0  0  0  0  0  0
    0.0908    2.0669    0.0000 H   0  0  0  0  0  0  0  0  0  0  0  0
   -0.7342    2.8919    0.0000 H   0  0  0  0  0  0  0  0  0  0  0  0
   -1.5592    2.0669    0.0000 H   0  0  0  0  0  0  0  0  0  0  0  0
    0.8039    0.8773    0.0000 H   0  0  0  0  0  0  0  0  0  0  0  0
    0.4336    1.5186    0.0000 H   0  0  0  0  0  0  0  0  0  0  0  0
   -0.7342    0.4169    0.0000 H   0  0  0  0  0  0  0  0  0  0  0  0
   -0.0198   -0.8206    0.0000 H   0  0  0  0  0  0  0  0  0  0  0  0
   -1.4487   -2.4706    0.0000 H   0  0  0  0  0  0  0  0  0  0  0  0
   -2.8776   -1.6456    0.0000 H   0  0  0  0  0  0  0  0  0  0  0  0
   -2.8776    0.0044    0.0000 H   0  0  0  0  0  0  0  0  0  0  0  0
   -1.4487   -0.8206    0.0000 H   0  0  0  0  0  0  0  0  0  0  0  0
    2.0152    1.3892    0.0000 H   0  0  0  0  0  0  0  0  0  0  0  0
    2.8381    0.8294    0.0000 H   0  0  0  0  0  0  0  0  0  0  0  0
    4.2671    0.0044    0.0000 H   0  0  0  0  0  0  0  0  0  0  0  0
    4.2671   -1.6456    0.0000 H   0  0  0  0  0  0  0  0  0  0  0  0
    2.8381   -2.4706    0.0000 H   0  0  0  0  0  0  0  0  0  0  0  0
  1  2  1  0  0  0  0
  2  3  2  0  0  0  0
  2  4  1  0  0  0  0
  4  5  1  0  0  0  0
  5  6  1  0  0  0  0
  6  7  4  0  0  0  0
  7  8  4  0  0  0  0
  8  9  4  0  0  0  0
  9 10  4  0  0  0  0
 10 11  4  0  0  0  0
  6 11  4  0  0  0  0
  5 12  1  0  0  0  0
 12 13  2  0  0  0  0
 13 14  1  0  0  0  0
 13 15  1  0  0  0  0
 15 16  4  0  0  0  0
 16 17  4  0  0  0  0
 17 18  4  0  0  0  0
 18 19  4  0  0  0  0
 19 20  4  0  0  0  0
 15 20  4  0  0  0  0
 20 21  1  0  0  0  0
 21 22  1  0  0  0  0
 12 22  1  0  0  0  0
 22 23  2  0  0  0  0
  1 24  1  0  0  0  0
  1 25  1  0  0  0  0
  1 26  1  0  0  0  0
  4 27  1  0  0  0  0
  4 28  1  0  0  0  0
  5 29  1  0  0  0  0
  7 30  1  0  0  0  0
  8 31  1  0  0  0  0
  9 32  1  0  0  0  0
 10 33  1  0  0  0  0
 11 34  1  0  0  0  0
 14 35  1  0  0  0  0
 16 36  1  0  0  0  0
 17 37  1  0  0  0  0
 18 38  1  0  0  0  0
 19 39  1  0  0  0  0
M  END
>  <InChIKey>
InChI=1S/C19H16O4/c1-12(20)11-15(13-7-3-2-4-8-13)17-18(21)14-9-5-6-10-16(14)23-19(17)22/h2-10,15,21H,11H2,1H3

>  <CASRN>
81-81-2

> <Outcome>
0

>  <Index>
2628

>  <StandardizerResult>
Dearomatize (ID: Dearomatize)
Clear Stereo (ID: ClearStereo)
Wedge Clean (ID: WedgeClean)
Mesomerize (ID: Mesomerize)
Tautomerize (ID: Tautomerize)
Aromatize (ID: Aromatize)
Add Explicit Hydrogens (ID: AddExplicitH)
Neutralize (ID: Neutralize)
Clean 2D (ID: Clean2D)

> <knn Distance>
4.0

> <CpId>
2628

$$$$
2695
  Mrv1532301301811342D          

 53 56  0  0  0  0            999 V2000
    1.7903   -3.0186    0.0000 C   0  0  0  0  0  0  0  0  0  0  0  0
    2.6075   -3.1315    0.0000 C   0  0  0  0  0  0  0  0  0  0  0  0
    2.9184   -3.8956    0.0000 O   0  0  0  0  0  0  0  0  0  0  0  0
    3.1139   -2.4801    0.0000 C   0  0  0  0  0  0  0  0  0  0  0  0
    2.8846   -1.6876    0.0000 C   0  0  0  0  0  0  0  0  0  0  0  0
    3.5674   -1.2246    0.0000 C   0  0  0  0  0  0  0  0  0  0  0  0
    4.2188   -1.7310    0.0000 C   0  0  0  0  0  0  0  0  0  0  0  0
    5.0309   -1.5858    0.0000 C   0  0  0  0  0  0  0  0  0  0  0  0
    5.3112   -0.8099    0.0000 C   0  0  0  0  0  0  0  0  0  0  0  0
    6.1233   -0.6646    0.0000 C   0  0  0  0  0  0  0  0  0  0  0  0
    6.6551   -1.2954    0.0000 C   0  0  0  0  0  0  0  0  0  0  0  0
    7.4672   -1.1501    0.0000 C   0  0  0  0  0  0  0  0  0  0  0  0
    7.9991   -1.7809    0.0000 C   0  0  0  0  0  0  0  0  0  0  0  0
    8.8112   -1.6356    0.0000 O   0  0  0  0  0  0  0  0  0  0  0  0
    7.7188   -2.5568    0.0000 C   0  0  0  0  0  0  0  0  0  0  0  0
    6.9066   -2.7020    0.0000 C   0  0  0  0  0  0  0  0  0  0  0  0
    6.3748   -2.0713    0.0000 C   0  0  0  0  0  0  0  0  0  0  0  0
    6.0945   -2.8472    0.0000 C   0  0  0  0  0  0  0  0  0  0  0  0
    5.5627   -2.2165    0.0000 C   0  0  0  0  0  0  0  0  0  0  0  0
    5.2824   -2.9924    0.0000 C   0  0  0  0  0  0  0  0  0  0  0  0
    4.4703   -3.1376    0.0000 C   0  0  0  0  0  0  0  0  0  0  0  0
    3.9385   -2.5069    0.0000 C   0  0  0  0  0  0  0  0  0  0  0  0
    3.5786   -3.2493    0.0000 C   0  0  0  0  0  0  0  0  0  0  0  0
    1.9031   -2.2014    0.0000 H   0  0  0  0  0  0  0  0  0  0  0  0
    0.9730   -2.9057    0.0000 H   0  0  0  0  0  0  0  0  0  0  0  0
    1.6774   -3.8358    0.0000 H   0  0  0  0  0  0  0  0  0  0  0  0
    2.3037   -2.3247    0.0000 H   0  0  0  0  0  0  0  0  0  0  0  0
    2.6107   -0.9094    0.0000 H   0  0  0  0  0  0  0  0  0  0  0  0
    2.1535   -1.3053    0.0000 H   0  0  0  0  0  0  0  0  0  0  0  0
    3.9782   -0.5092    0.0000 H   0  0  0  0  0  0  0  0  0  0  0  0
    3.2040   -0.4840    0.0000 H   0  0  0  0  0  0  0  0  0  0  0  0
    4.7506   -2.3617    0.0000 H   0  0  0  0  0  0  0  0  0  0  0  0
    4.4991   -0.9551    0.0000 H   0  0  0  0  0  0  0  0  0  0  0  0
    5.4525    0.0029    0.0000 H   0  0  0  0  0  0  0  0  0  0  0  0
    4.8970   -0.0964    0.0000 H   0  0  0  0  0  0  0  0  0  0  0  0
    6.8878   -0.3545    0.0000 H   0  0  0  0  0  0  0  0  0  0  0  0
    6.4953    0.0717    0.0000 H   0  0  0  0  0  0  0  0  0  0  0  0
    7.7475   -0.3742    0.0000 H   0  0  0  0  0  0  0  0  0  0  0  0
    7.9109   -3.3591    0.0000 H   0  0  0  0  0  0  0  0  0  0  0  0
    8.4771   -2.8817    0.0000 H   0  0  0  0  0  0  0  0  0  0  0  0
    6.7653   -3.5148    0.0000 H   0  0  0  0  0  0  0  0  0  0  0  0
    7.3209   -3.4155    0.0000 H   0  0  0  0  0  0  0  0  0  0  0  0
    5.4756   -3.3927    0.0000 H   0  0  0  0  0  0  0  0  0  0  0  0
    5.8483   -3.6346    0.0000 H   0  0  0  0  0  0  0  0  0  0  0  0
    6.2925   -3.6481    0.0000 H   0  0  0  0  0  0  0  0  0  0  0  0
    5.8430   -1.4406    0.0000 H   0  0  0  0  0  0  0  0  0  0  0  0
    4.7026   -3.5793    0.0000 H   0  0  0  0  0  0  0  0  0  0  0  0
    5.1470   -3.8062    0.0000 H   0  0  0  0  0  0  0  0  0  0  0  0
    3.8769   -3.7108    0.0000 H   0  0  0  0  0  0  0  0  0  0  0  0
    4.3394   -3.9522    0.0000 H   0  0  0  0  0  0  0  0  0  0  0  0
    2.8275   -2.9079    0.0000 H   0  0  0  0  0  0  0  0  0  0  0  0
    2.7661   -3.3922    0.0000 H   0  0  0  0  0  0  0  0  0  0  0  0
    3.4871   -4.0692    0.0000 H   0  0  0  0  0  0  0  0  0  0  0  0
  1  2  1  0  0  0  0
  2  3  2  0  0  0  0
  2  4  1  0  0  0  0
  4  5  1  0  0  0  0
  5  6  1  0  0  0  0
  6  7  1  0  0  0  0
  7  8  1  0  0  0  0
  8  9  1  0  0  0  0
  9 10  1  0  0  0  0
 10 11  1  0  0  0  0
 11 12  2  0  0  0  0
 12 13  1  0  0  0  0
 13 14  2  0  0  0  0
 13 15  1  0  0  0  0
 15 16  1  0  0  0  0
 16 17  1  0  0  0  0
 11 17  1  0  0  0  0
 17 18  1  0  0  0  0
 17 19  1  0  0  0  0
  8 19  1  0  0  0  0
 19 20  1  0  0  0  0
 20 21  1  0  0  0  0
 21 22  1  0  0  0  0
  4 22  1  0  0  0  0
  7 22  1  0  0  0  0
 22 23  1  0  0  0  0
  1 24  1  0  0  0  0
  1 25  1  0  0  0  0
  1 26  1  0  0  0  0
  4 27  1  0  0  0  0
  5 28  1  0  0  0  0
  5 29  1  0  0  0  0
  6 30  1  0  0  0  0
  6 31  1  0  0  0  0
  7 32  1  0  0  0  0
  8 33  1  0  0  0  0
  9 34  1  0  0  0  0
  9 35  1  0  0  0  0
 10 36  1  0  0  0  0
 10 37  1  0  0  0  0
 12 38  1  0  0  0  0
 15 39  1  0  0  0  0
 15 40  1  0  0  0  0
 16 41  1  0  0  0  0
 16 42  1  0  0  0  0
 18 43  1  0  0  0  0
 18 44  1  0  0  0  0
 18 45  1  0  0  0  0
 19 46  1  0  0  0  0
 20 47  1  0  0  0  0
 20 48  1  0  0  0  0
 21 49  1  0  0  0  0
 21 50  1  0  0  0  0
 23 51  1  0  0  0  0
 23 52  1  0  0  0  0
 23 53  1  0  0  0  0
M  END
>  <InChIKey>
InChI=1S/C21H30O2/c1-13(22)17-6-7-18-16-5-4-14-12-15(23)8-10-20(14,2)19(16)9-11-21(17,18)3/h12,16-19H,4-11H2,1-3H3

>  <CASRN>
57-83-0

> <Outcome>
0

>  <Index>
2695

>  <StandardizerResult>
Clear Stereo (ID: ClearStereo)
Wedge Clean (ID: WedgeClean)
Mesomerize (ID: Mesomerize)
Tautomerize (ID: Tautomerize)
Add Explicit Hydrogens (ID: AddExplicitH)
Neutralize (ID: Neutralize)
Clean 2D (ID: Clean2D)

> <knn Distance>
4.0

> <CpId>
2695

$$$$
2746
  Mrv1532301301811342D          

 68 71  0  0  0  0            999 V2000
    2.9185   -3.9362    0.0000 C   0  0  0  0  0  0  0  0  0  0  0  0
    2.6076   -3.1720    0.0000 C   0  0  0  0  0  0  0  0  0  0  0  0
    1.7903   -3.0592    0.0000 C   0  0  0  0  0  0  0  0  0  0  0  0
    1.2840   -3.7105    0.0000 C   0  0  0  0  0  0  0  0  0  0  0  0
    0.4667   -3.5977    0.0000 C   0  0  0  0  0  0  0  0  0  0  0  0
   -0.0396   -4.2490    0.0000 O   0  0  0  0  0  0  0  0  0  0  0  0
    0.1558   -2.8335    0.0000 O   0  0  0  0  0  0  0  0  0  0  0  0
    3.1139   -2.5207    0.0000 C   0  0  0  0  0  0  0  0  0  0  0  0
    2.8846   -1.7282    0.0000 C   0  0  0  0  0  0  0  0  0  0  0  0
    3.5675   -1.2652    0.0000 C   0  0  0  0  0  0  0  0  0  0  0  0
    4.2188   -1.7716    0.0000 C   0  0  0  0  0  0  0  0  0  0  0  0
    5.0309   -1.6264    0.0000 C   0  0  0  0  0  0  0  0  0  0  0  0
    5.3112   -0.8504    0.0000 C   0  0  0  0  0  0  0  0  0  0  0  0
    4.7794   -0.2197    0.0000 O   0  0  0  0  0  0  0  0  0  0  0  0
    6.1233   -0.7052    0.0000 C   0  0  0  0  0  0  0  0  0  0  0  0
    6.6552   -1.3359    0.0000 C   0  0  0  0  0  0  0  0  0  0  0  0
    7.4673   -1.1907    0.0000 C   0  0  0  0  0  0  0  0  0  0  0  0
    7.9991   -1.8214    0.0000 C   0  0  0  0  0  0  0  0  0  0  0  0
    8.8112   -1.6762    0.0000 O   0  0  0  0  0  0  0  0  0  0  0  0
    7.7188   -2.5974    0.0000 C   0  0  0  0  0  0  0  0  0  0  0  0
    6.9067   -2.7426    0.0000 C   0  0  0  0  0  0  0  0  0  0  0  0
    6.3749   -2.1119    0.0000 C   0  0  0  0  0  0  0  0  0  0  0  0
    6.0946   -2.8878    0.0000 C   0  0  0  0  0  0  0  0  0  0  0  0
    5.5627   -2.2571    0.0000 C   0  0  0  0  0  0  0  0  0  0  0  0
    5.2824   -3.0330    0.0000 C   0  0  0  0  0  0  0  0  0  0  0  0
    4.4703   -3.1782    0.0000 C   0  0  0  0  0  0  0  0  0  0  0  0
    3.9385   -2.5475    0.0000 C   0  0  0  0  0  0  0  0  0  0  0  0
    3.5786   -3.2899    0.0000 C   0  0  0  0  0  0  0  0  0  0  0  0
    2.0969   -4.0110    0.0000 H   0  0  0  0  0  0  0  0  0  0  0  0
    2.7507   -4.7440    0.0000 H   0  0  0  0  0  0  0  0  0  0  0  0
    3.6423   -4.3320    0.0000 H   0  0  0  0  0  0  0  0  0  0  0  0
    2.1012   -3.8234    0.0000 H   0  0  0  0  0  0  0  0  0  0  0  0
    1.8555   -2.2368    0.0000 H   0  0  0  0  0  0  0  0  0  0  0  0
    1.1695   -2.5158    0.0000 H   0  0  0  0  0  0  0  0  0  0  0  0
    1.0833   -4.5107    0.0000 H   0  0  0  0  0  0  0  0  0  0  0  0
    0.9731   -2.9463    0.0000 H   0  0  0  0  0  0  0  0  0  0  0  0
   -0.8569   -4.1361    0.0000 H   0  0  0  0  0  0  0  0  0  0  0  0
    2.3037   -2.3652    0.0000 H   0  0  0  0  0  0  0  0  0  0  0  0
    2.6108   -0.9500    0.0000 H   0  0  0  0  0  0  0  0  0  0  0  0
    2.1536   -1.3458    0.0000 H   0  0  0  0  0  0  0  0  0  0  0  0
    3.9782   -0.5498    0.0000 H   0  0  0  0  0  0  0  0  0  0  0  0
    3.2040   -0.5246    0.0000 H   0  0  0  0  0  0  0  0  0  0  0  0
    4.7506   -2.4023    0.0000 H   0  0  0  0  0  0  0  0  0  0  0  0
    4.4991   -0.9957    0.0000 H   0  0  0  0  0  0  0  0  0  0  0  0
    5.5915   -0.0745    0.0000 H   0  0  0  0  0  0  0  0  0  0  0  0
    4.5483    0.5723    0.0000 H   0  0  0  0  0  0  0  0  0  0  0  0
    6.8979   -0.4212    0.0000 H   0  0  0  0  0  0  0  0  0  0  0  0
    6.5341    0.0102    0.0000 H   0  0  0  0  0  0  0  0  0  0  0  0
    7.1870   -1.9666    0.0000 H   0  0  0  0  0  0  0  0  0  0  0  0
    8.2823   -1.0627    0.0000 H   0  0  0  0  0  0  0  0  0  0  0  0
    7.7802   -0.4274    0.0000 H   0  0  0  0  0  0  0  0  0  0  0  0
    8.5309   -2.4521    0.0000 H   0  0  0  0  0  0  0  0  0  0  0  0
    9.6225   -1.5265    0.0000 H   0  0  0  0  0  0  0  0  0  0  0  0
    7.5775   -3.4102    0.0000 H   0  0  0  0  0  0  0  0  0  0  0  0
    8.1330   -3.3108    0.0000 H   0  0  0  0  0  0  0  0  0  0  0  0
    6.3965   -3.3909    0.0000 H   0  0  0  0  0  0  0  0  0  0  0  0
    6.9566   -3.5661    0.0000 H   0  0  0  0  0  0  0  0  0  0  0  0
    5.4431   -3.3940    0.0000 H   0  0  0  0  0  0  0  0  0  0  0  0
    5.7531   -3.6388    0.0000 H   0  0  0  0  0  0  0  0  0  0  0  0
    6.1415   -3.7114    0.0000 H   0  0  0  0  0  0  0  0  0  0  0  0
    5.8430   -1.4811    0.0000 H   0  0  0  0  0  0  0  0  0  0  0  0
    4.6966   -3.6139    0.0000 H   0  0  0  0  0  0  0  0  0  0  0  0
    5.1303   -3.8438    0.0000 H   0  0  0  0  0  0  0  0  0  0  0  0
    3.8759   -3.7503    0.0000 H   0  0  0  0  0  0  0  0  0  0  0  0
    4.3367   -3.9923    0.0000 H   0  0  0  0  0  0  0  0  0  0  0  0
    2.8276   -2.9485    0.0000 H   0  0  0  0  0  0  0  0  0  0  0  0
    2.7661   -3.4328    0.0000 H   0  0  0  0  0  0  0  0  0  0  0  0
    3.4870   -4.1098    0.0000 H   0  0  0  0  0  0  0  0  0  0  0  0
  1  2  1  0  0  0  0
  2  3  1  0  0  0  0
  3  4  1  0  0  0  0
  4  5  1  0  0  0  0
  5  6  1  0  0  0  0
  5  7  2  0  0  0  0
  2  8  1  0  0  0  0
  8  9  1  0  0  0  0
  9 10  1  0  0  0  0
 10 11  1  0  0  0  0
 11 12  1  0  0  0  0
 12 13  1  0  0  0  0
 13 14  1  0  0  0  0
 13 15  1  0  0  0  0
 15 16  1  0  0  0  0
 16 17  1  0  0  0  0
 17 18  1  0  0  0  0
 18 19  1  0  0  0  0
 18 20  1  0  0  0  0
 20 21  1  0  0  0  0
 21 22  1  0  0  0  0
 16 22  1  0  0  0  0
 22 23  1  0  0  0  0
 22 24  1  0  0  0  0
 12 24  1  0  0  0  0
 24 25  1  0  0  0  0
 25 26  1  0  0  0  0
 26 27  1  0  0  0  0
  8 27  1  0  0  0  0
 11 27  1  0  0  0  0
 27 28  1  0  0  0  0
  1 29  1  0  0  0  0
  1 30  1  0  0  0  0
  1 31  1  0  0  0  0
  2 32  1  0  0  0  0
  3 33  1  0  0  0  0
  3 34  1  0  0  0  0
  4 35  1  0  0  0  0
  4 36  1  0  0  0  0
  6 37  1  0  0  0  0
  8 38  1  0  0  0  0
  9 39  1  0  0  0  0
  9 40  1  0  0  0  0
 10 41  1  0  0  0  0
 10 42  1  0  0  0  0
 11 43  1  0  0  0  0
 12 44  1  0  0  0  0
 13 45  1  0  0  0  0
 14 46  1  0  0  0  0
 15 47  1  0  0  0  0
 15 48  1  0  0  0  0
 16 49  1  0  0  0  0
 17 50  1  0  0  0  0
 17 51  1  0  0  0  0
 18 52  1  0  0  0  0
 19 53  1  0  0  0  0
 20 54  1  0  0  0  0
 20 55  1  0  0  0  0
 21 56  1  0  0  0  0
 21 57  1  0  0  0  0
 23 58  1  0  0  0  0
 23 59  1  0  0  0  0
 23 60  1  0  0  0  0
 24 61  1  0  0  0  0
 25 62  1  0  0  0  0
 25 63  1  0  0  0  0
 26 64  1  0  0  0  0
 26 65  1  0  0  0  0
 28 66  1  0  0  0  0
 28 67  1  0  0  0  0
 28 68  1  0  0  0  0
M  END
>  <InChIKey>
InChI=1S/C24H40O4/c1-14(4-7-21(27)28)17-5-6-18-22-19(9-11-24(17,18)3)23(2)10-8-16(25)12-15(23)13-20(22)26/h14-20,22,25-26H,4-13H2,1-3H3,(H,27,28)

>  <CASRN>
474-25-9 128-13-2

> <Outcome>
0

>  <Index>
2746

>  <StandardizerResult>
Clear Stereo (ID: ClearStereo)
Wedge Clean (ID: WedgeClean)
Mesomerize (ID: Mesomerize)
Tautomerize (ID: Tautomerize)
Add Explicit Hydrogens (ID: AddExplicitH)
Neutralize (ID: Neutralize)
Clean 2D (ID: Clean2D)

> <knn Distance>
4.0

> <CpId>
2746

$$$$
2748
  Mrv1532301301811342D          

 26 27  0  0  0  0            999 V2000
   -0.4816   -3.8854    0.0000 C   0  0  0  0  0  0  0  0  0  0  0  0
   -0.2266   -3.1008    0.0000 C   0  0  0  0  0  0  0  0  0  0  0  0
    0.0283   -2.3161    0.0000 C   0  0  0  0  0  0  0  0  0  0  0  0
    0.8353   -2.1446    0.0000 N   0  0  0  0  0  0  0  0  0  0  0  0
    1.0902   -1.3600    0.0000 C   0  0  0  0  0  0  0  0  0  0  0  0
    0.6053   -0.6926    0.0000 C   0  0  0  0  0  0  0  0  0  0  0  0
    1.0902   -0.0251    0.0000 C   0  0  0  0  0  0  0  0  0  0  0  0
    1.8748   -0.2801    0.0000 C   0  0  0  0  0  0  0  0  0  0  0  0
    2.5893    0.1324    0.0000 C   0  0  0  0  0  0  0  0  0  0  0  0
    3.3038   -0.2801    0.0000 C   0  0  0  0  0  0  0  0  0  0  0  0
    3.3038   -1.1051    0.0000 C   0  0  0  0  0  0  0  0  0  0  0  0
    2.5893   -1.5176    0.0000 C   0  0  0  0  0  0  0  0  0  0  0  0
    1.8748   -1.1051    0.0000 C   0  0  0  0  0  0  0  0  0  0  0  0
   -0.7365   -4.6700    0.0000 H   0  0  0  0  0  0  0  0  0  0  0  0
   -0.1898   -1.5205    0.0000 H   0  0  0  0  0  0  0  0  0  0  0  0
   -0.7402   -2.0160    0.0000 H   0  0  0  0  0  0  0  0  0  0  0  0
    1.3873   -2.7577    0.0000 H   0  0  0  0  0  0  0  0  0  0  0  0
    1.6736   -1.9434    0.0000 H   0  0  0  0  0  0  0  0  0  0  0  0
   -0.1231   -0.3052    0.0000 H   0  0  0  0  0  0  0  0  0  0  0  0
   -0.1231   -1.0799    0.0000 H   0  0  0  0  0  0  0  0  0  0  0  0
    1.2335    0.7873    0.0000 H   0  0  0  0  0  0  0  0  0  0  0  0
    0.4968    0.5480    0.0000 H   0  0  0  0  0  0  0  0  0  0  0  0
    2.5893    0.9574    0.0000 H   0  0  0  0  0  0  0  0  0  0  0  0
    4.0183    0.1324    0.0000 H   0  0  0  0  0  0  0  0  0  0  0  0
    4.0183   -1.5176    0.0000 H   0  0  0  0  0  0  0  0  0  0  0  0
    2.5893   -2.3426    0.0000 H   0  0  0  0  0  0  0  0  0  0  0  0
  1  2  3  0  0  0  0
  2  3  1  0  0  0  0
  3  4  1  0  0  0  0
  4  5  1  0  0  0  0
  5  6  1  0  0  0  0
  6  7  1  0  0  0  0
  7  8  1  0  0  0  0
  8  9  4  0  0  0  0
  9 10  4  0  0  0  0
 10 11  4  0  0  0  0
 11 12  4  0  0  0  0
 12 13  4  0  0  0  0
  5 13  1  0  0  0  0
  8 13  4  0  0  0  0
  1 14  1  0  0  0  0
  3 15  1  0  0  0  0
  3 16  1  0  0  0  0
  4 17  1  0  0  0  0
  5 18  1  0  0  0  0
  6 19  1  0  0  0  0
  6 20  1  0  0  0  0
  7 21  1  0  0  0  0
  7 22  1  0  0  0  0
  9 23  1  0  0  0  0
 10 24  1  0  0  0  0
 11 25  1  0  0  0  0
 12 26  1  0  0  0  0
M  END
>  <InChIKey>
InChI=1S/C12H13N/c1-2-9-13-12-8-7-10-5-3-4-6-11(10)12/h1,3-6,12-13H,7-9H2

>  <CASRN>
136236-51-6

> <Outcome>
0

>  <Index>
2748

>  <StandardizerResult>
Dearomatize (ID: Dearomatize)
Clear Stereo (ID: ClearStereo)
Wedge Clean (ID: WedgeClean)
Mesomerize (ID: Mesomerize)
Tautomerize (ID: Tautomerize)
Aromatize (ID: Aromatize)
Add Explicit Hydrogens (ID: AddExplicitH)
Neutralize (ID: Neutralize)
Clean 2D (ID: Clean2D)

> <knn Distance>
4.0

> <CpId>
2748

$$$$
2769
  Mrv1532301301811342D          

 27 27  0  0  0  0            999 V2000
    2.1434    3.7125    0.0000 C   0  0  0  0  0  0  0  0  0  0  0  0
    1.4289    3.3000    0.0000 N   0  0  0  0  0  0  0  0  0  0  0  0
    0.7145    3.7125    0.0000 C   0  0  0  0  0  0  0  0  0  0  0  0
    1.4289    2.4750    0.0000 C   0  0  0  0  0  0  0  0  0  0  0  0
    2.1434    2.0625    0.0000 O   0  0  0  0  0  0  0  0  0  0  0  0
    0.7145    2.0625    0.0000 N   0  0  0  0  0  0  0  0  0  0  0  0
    0.7145    1.2375    0.0000 C   0  0  0  0  0  0  0  0  0  0  0  0
    1.4289    0.8250    0.0000 C   0  0  0  0  0  0  0  0  0  0  0  0
    1.4289    0.0000    0.0000 C   0  0  0  0  0  0  0  0  0  0  0  0
    0.7145   -0.4125    0.0000 C   0  0  0  0  0  0  0  0  0  0  0  0
   -0.0000    0.0000    0.0000 C   0  0  0  0  0  0  0  0  0  0  0  0
   -0.0000    0.8250    0.0000 C   0  0  0  0  0  0  0  0  0  0  0  0
   -0.7145   -0.4125    0.0000 C   0  0  0  0  0  0  0  0  0  0  0  0
   -1.4289   -0.8250    0.0000 F   0  0  0  0  0  0  0  0  0  0  0  0
   -1.1270    0.3020    0.0000 F   0  0  0  0  0  0  0  0  0  0  0  0
   -0.3020   -1.1270    0.0000 F   0  0  0  0  0  0  0  0  0  0  0  0
    2.5559    2.9980    0.0000 H   0  0  0  0  0  0  0  0  0  0  0  0
    2.8579    4.1250    0.0000 H   0  0  0  0  0  0  0  0  0  0  0  0
    1.7309    4.4270    0.0000 H   0  0  0  0  0  0  0  0  0  0  0  0
    1.1270    4.4270    0.0000 H   0  0  0  0  0  0  0  0  0  0  0  0
   -0.0000    4.1250    0.0000 H   0  0  0  0  0  0  0  0  0  0  0  0
    0.3020    2.9980    0.0000 H   0  0  0  0  0  0  0  0  0  0  0  0
   -0.0000    2.4750    0.0000 H   0  0  0  0  0  0  0  0  0  0  0  0
    2.1434    1.2375    0.0000 H   0  0  0  0  0  0  0  0  0  0  0  0
    2.1434   -0.4125    0.0000 H   0  0  0  0  0  0  0  0  0  0  0  0
    0.7145   -1.2375    0.0000 H   0  0  0  0  0  0  0  0  0  0  0  0
   -0.7145    1.2375    0.0000 H   0  0  0  0  0  0  0  0  0  0  0  0
  1  2  1  0  0  0  0
  2  3  1  0  0  0  0
  2  4  1  0  0  0  0
  4  5  2  0  0  0  0
  4  6  1  0  0  0  0
  6  7  1  0  0  0  0
  7  8  4  0  0  0  0
  8  9  4  0  0  0  0
  9 10  4  0  0  0  0
 10 11  4  0  0  0  0
 11 12  4  0  0  0  0
  7 12  4  0  0  0  0
 11 13  1  0  0  0  0
 13 14  1  0  0  0  0
 13 15  1  0  0  0  0
 13 16  1  0  0  0  0
  1 17  1  0  0  0  0
  1 18  1  0  0  0  0
  1 19  1  0  0  0  0
  3 20  1  0  0  0  0
  3 21  1  0  0  0  0
  3 22  1  0  0  0  0
  6 23  1  0  0  0  0
  8 24  1  0  0  0  0
  9 25  1  0  0  0  0
 10 26  1  0  0  0  0
 12 27  1  0  0  0  0
M  END
>  <InChIKey>
InChI=1S/C10H11F3N2O/c1-15(2)9(16)14-8-5-3-4-7(6-8)10(11,12)13/h3-6H,1-2H3,(H,14,16)

>  <CASRN>
2164-17-2

> <Outcome>
0

>  <Index>
2769

>  <StandardizerResult>
Dearomatize (ID: Dearomatize)
Clear Stereo (ID: ClearStereo)
Wedge Clean (ID: WedgeClean)
Mesomerize (ID: Mesomerize)
Tautomerize (ID: Tautomerize)
Aromatize (ID: Aromatize)
Add Explicit Hydrogens (ID: AddExplicitH)
Neutralize (ID: Neutralize)
Clean 2D (ID: Clean2D)

> <knn Distance>
4.0

> <CpId>
2769

$$$$
2857
  Mrv1532301301811342D          

 33 33  0  0  0  0            999 V2000
    0.6593   -3.6968    0.0000 C   0  0  0  0  0  0  0  0  0  0  0  0
    1.3737   -4.1093    0.0000 C   0  0  0  0  0  0  0  0  0  0  0  0
    1.3737   -4.9343    0.0000 C   0  0  0  0  0  0  0  0  0  0  0  0
    2.0882   -3.6968    0.0000 N   0  0  0  0  0  0  0  0  0  0  0  0
    2.8027   -4.1093    0.0000 C   0  0  0  0  0  0  0  0  0  0  0  0
    2.8027   -4.9343    0.0000 N   0  0  0  0  0  0  0  0  0  0  0  0
    3.5172   -3.6968    0.0000 N   0  0  0  0  0  0  0  0  0  0  0  0
    4.2316   -4.1093    0.0000 C   0  0  0  0  0  0  0  0  0  0  0  0
    4.2316   -4.9343    0.0000 N   0  0  0  0  0  0  0  0  0  0  0  0
    4.9461   -3.6968    0.0000 N   0  0  0  0  0  0  0  0  0  0  0  0
    5.6606   -4.1093    0.0000 C   0  0  0  0  0  0  0  0  0  0  0  0
    6.3750   -3.6968    0.0000 C   0  0  0  0  0  0  0  0  0  0  0  0
    7.0895   -4.1093    0.0000 C   0  0  0  0  0  0  0  0  0  0  0  0
    7.0895   -4.9343    0.0000 C   0  0  0  0  0  0  0  0  0  0  0  0
    7.8040   -5.3468    0.0000 Cl  0  0  0  0  0  0  0  0  0  0  0  0
    6.3750   -5.3468    0.0000 C   0  0  0  0  0  0  0  0  0  0  0  0
    5.6606   -4.9343    0.0000 C   0  0  0  0  0  0  0  0  0  0  0  0
    1.0718   -2.9824    0.0000 H   0  0  0  0  0  0  0  0  0  0  0  0
   -0.0552   -3.2843    0.0000 H   0  0  0  0  0  0  0  0  0  0  0  0
    0.2468   -4.4113    0.0000 H   0  0  0  0  0  0  0  0  0  0  0  0
    0.6593   -4.5218    0.0000 H   0  0  0  0  0  0  0  0  0  0  0  0
    0.7904   -5.5177    0.0000 H   0  0  0  0  0  0  0  0  0  0  0  0
    1.7862   -5.6488    0.0000 H   0  0  0  0  0  0  0  0  0  0  0  0
    2.1706   -4.7208    0.0000 H   0  0  0  0  0  0  0  0  0  0  0  0
    2.0882   -2.8718    0.0000 H   0  0  0  0  0  0  0  0  0  0  0  0
    3.2837   -5.6046    0.0000 H   0  0  0  0  0  0  0  0  0  0  0  0
    3.5172   -2.8718    0.0000 H   0  0  0  0  0  0  0  0  0  0  0  0
    3.5172   -5.3468    0.0000 H   0  0  0  0  0  0  0  0  0  0  0  0
    4.9461   -2.8718    0.0000 H   0  0  0  0  0  0  0  0  0  0  0  0
    6.3750   -2.8718    0.0000 H   0  0  0  0  0  0  0  0  0  0  0  0
    7.8040   -3.6968    0.0000 H   0  0  0  0  0  0  0  0  0  0  0  0
    6.3750   -6.1718    0.0000 H   0  0  0  0  0  0  0  0  0  0  0  0
    4.9461   -5.3468    0.0000 H   0  0  0  0  0  0  0  0  0  0  0  0
  1  2  1  0  0  0  0
  2  3  1  0  0  0  0
  2  4  1  0  0  0  0
  4  5  1  0  0  0  0
  5  6  2  0  0  0  0
  5  7  1  0  0  0  0
  7  8  1  0  0  0  0
  8  9  2  0  0  0  0
  8 10  1  0  0  0  0
 10 11  1  0  0  0  0
 11 12  4  0  0  0  0
 12 13  4  0  0  0  0
 13 14  4  0  0  0  0
 14 15  1  0  0  0  0
 14 16  4  0  0  0  0
 16 17  4  0  0  0  0
 11 17  4  0  0  0  0
  1 18  1  0  0  0  0
  1 19  1  0  0  0  0
  1 20  1  0  0  0  0
  2 21  1  0  0  0  0
  3 22  1  0  0  0  0
  3 23  1  0  0  0  0
  3 24  1  0  0  0  0
  4 25  1  0  0  0  0
  6 26  1  0  0  0  0
  7 27  1  0  0  0  0
  9 28  1  0  0  0  0
 10 29  1  0  0  0  0
 12 30  1  0  0  0  0
 13 31  1  0  0  0  0
 16 32  1  0  0  0  0
 17 33  1  0  0  0  0
M  END
>  <InChIKey>
InChI=1S/C11H16ClN5/c1-7(2)15-10(13)17-11(14)16-9-5-3-8(12)4-6-9/h3-7H,1-2H3,(H5,13,14,15,16,17)

>  <CASRN>
500-92-5

> <Outcome>
0

>  <Index>
2857

>  <StandardizerResult>
Dearomatize (ID: Dearomatize)
Clear Stereo (ID: ClearStereo)
Wedge Clean (ID: WedgeClean)
Mesomerize (ID: Mesomerize)
Tautomerize (ID: Tautomerize)
Aromatize (ID: Aromatize)
Add Explicit Hydrogens (ID: AddExplicitH)
Neutralize (ID: Neutralize)
Clean 2D (ID: Clean2D)

> <knn Distance>
4.0

> <CpId>
2857

$$$$
2892
  Mrv1532301301811342D          

 64 64  0  0  0  0            999 V2000
   -3.9936    6.0008    0.0000 C   0  0  0  0  0  0  0  0  0  0  0  0
   -3.2090    6.2558    0.0000 C   0  0  0  0  0  0  0  0  0  0  0  0
   -2.5959    5.7038    0.0000 C   0  0  0  0  0  0  0  0  0  0  0  0
   -1.8113    5.9587    0.0000 C   0  0  0  0  0  0  0  0  0  0  0  0
   -1.1982    5.4067    0.0000 C   0  0  0  0  0  0  0  0  0  0  0  0
   -1.7502    4.7936    0.0000 O   0  0  0  0  0  0  0  0  0  0  0  0
   -0.5851    4.8546    0.0000 C   0  0  0  0  0  0  0  0  0  0  0  0
    0.1995    5.1096    0.0000 C   0  0  0  0  0  0  0  0  0  0  0  0
    0.8126    4.5575    0.0000 C   0  0  0  0  0  0  0  0  0  0  0  0
    1.5973    4.8125    0.0000 C   0  0  0  0  0  0  0  0  0  0  0  0
    1.8522    5.5971    0.0000 C   0  0  0  0  0  0  0  0  0  0  0  0
    1.3673    6.2645    0.0000 O   0  0  0  0  0  0  0  0  0  0  0  0
    2.6772    5.5971    0.0000 C   0  0  0  0  0  0  0  0  0  0  0  0
    2.9321    4.8125    0.0000 C   0  0  0  0  0  0  0  0  0  0  0  0
    3.7168    4.5575    0.0000 O   0  0  0  0  0  0  0  0  0  0  0  0
    2.2647    4.3275    0.0000 C   0  0  0  0  0  0  0  0  0  0  0  0
    2.2647    3.5025    0.0000 C   0  0  0  0  0  0  0  0  0  0  0  0
    2.9792    3.0900    0.0000 C   0  0  0  0  0  0  0  0  0  0  0  0
    2.9792    2.2650    0.0000 C   0  0  0  0  0  0  0  0  0  0  0  0
    3.6936    1.8525    0.0000 C   0  0  0  0  0  0  0  0  0  0  0  0
    4.4081    2.2650    0.0000 C   0  0  0  0  0  0  0  0  0  0  0  0
    5.1226    1.8525    0.0000 C   0  0  0  0  0  0  0  0  0  0  0  0
    5.8370    2.2650    0.0000 C   0  0  0  0  0  0  0  0  0  0  0  0
    5.8370    3.0900    0.0000 O   0  0  0  0  0  0  0  0  0  0  0  0
    6.5515    1.8525    0.0000 O   0  0  0  0  0  0  0  0  0  0  0  0
    7.2660    2.2650    0.0000 C   0  0  0  0  0  0  0  0  0  0  0  0
   -0.6461    6.0198    0.0000 C   0  0  0  0  0  0  0  0  0  0  0  0
    0.1608    5.8482    0.0000 C   0  0  0  0  0  0  0  0  0  0  0  0
   -4.2485    6.7855    0.0000 H   0  0  0  0  0  0  0  0  0  0  0  0
   -4.7782    5.7459    0.0000 H   0  0  0  0  0  0  0  0  0  0  0  0
   -3.7387    5.2162    0.0000 H   0  0  0  0  0  0  0  0  0  0  0  0
   -2.6935    6.8999    0.0000 H   0  0  0  0  0  0  0  0  0  0  0  0
   -3.4179    7.0539    0.0000 H   0  0  0  0  0  0  0  0  0  0  0  0
   -3.1113    5.0596    0.0000 H   0  0  0  0  0  0  0  0  0  0  0  0
   -2.3870    4.9056    0.0000 H   0  0  0  0  0  0  0  0  0  0  0  0
   -1.2958    6.6028    0.0000 H   0  0  0  0  0  0  0  0  0  0  0  0
   -2.0202    6.7568    0.0000 H   0  0  0  0  0  0  0  0  0  0  0  0
   -1.4815    4.0136    0.0000 H   0  0  0  0  0  0  0  0  0  0  0  0
   -1.1005    4.2105    0.0000 H   0  0  0  0  0  0  0  0  0  0  0  0
   -0.3762    4.0565    0.0000 H   0  0  0  0  0  0  0  0  0  0  0  0
    0.9442    5.4647    0.0000 H   0  0  0  0  0  0  0  0  0  0  0  0
    0.6411    3.7506    0.0000 H   0  0  0  0  0  0  0  0  0  0  0  0
    1.4682    3.9976    0.0000 H   0  0  0  0  0  0  0  0  0  0  0  0
    2.2267    6.3322    0.0000 H   0  0  0  0  0  0  0  0  0  0  0  0
    0.9142    6.9540    0.0000 H   0  0  0  0  0  0  0  0  0  0  0  0
    3.5009    5.6439    0.0000 H   0  0  0  0  0  0  0  0  0  0  0  0
    3.2477    6.1930    0.0000 H   0  0  0  0  0  0  0  0  0  0  0  0
    2.9998    3.9530    0.0000 H   0  0  0  0  0  0  0  0  0  0  0  0
    1.6223    2.9849    0.0000 H   0  0  0  0  0  0  0  0  0  0  0  0
    2.1112    2.6920    0.0000 H   0  0  0  0  0  0  0  0  0  0  0  0
    3.8041    3.0802    0.0000 H   0  0  0  0  0  0  0  0  0  0  0  0
    2.5906    1.5373    0.0000 H   0  0  0  0  0  0  0  0  0  0  0  0
    3.3234    1.1153    0.0000 H   0  0  0  0  0  0  0  0  0  0  0  0
    4.0639    1.1153    0.0000 H   0  0  0  0  0  0  0  0  0  0  0  0
    4.7784    3.0023    0.0000 H   0  0  0  0  0  0  0  0  0  0  0  0
    4.0378    3.0023    0.0000 H   0  0  0  0  0  0  0  0  0  0  0  0
    4.7523    1.1153    0.0000 H   0  0  0  0  0  0  0  0  0  0  0  0
    5.4928    1.1153    0.0000 H   0  0  0  0  0  0  0  0  0  0  0  0
    7.6785    1.5506    0.0000 H   0  0  0  0  0  0  0  0  0  0  0  0
    7.9805    2.6775    0.0000 H   0  0  0  0  0  0  0  0  0  0  0  0
    6.8535    2.9795    0.0000 H   0  0  0  0  0  0  0  0  0  0  0  0
   -0.2722    6.7551    0.0000 H   0  0  0  0  0  0  0  0  0  0  0  0
    0.6978    6.4746    0.0000 H   0  0  0  0  0  0  0  0  0  0  0  0
    0.1245    6.6724    0.0000 H   0  0  0  0  0  0  0  0  0  0  0  0
  1  2  1  0  0  0  0
  2  3  1  0  0  0  0
  3  4  1  0  0  0  0
  4  5  1  0  0  0  0
  5  6  1  0  0  0  0
  5  7  1  0  0  0  0
  8  7  1  4  0  0  0
  8  9  2  0  0  0  0
  9 10  1  0  0  0  0
 10 11  1  0  0  0  0
 11 12  1  0  0  0  0
 11 13  1  0  0  0  0
 13 14  1  0  0  0  0
 14 15  2  0  0  0  0
 14 16  1  0  0  0  0
 10 16  1  0  0  0  0
 16 17  1  0  0  0  0
 18 17  1  4  0  0  0
 18 19  2  0  0  0  0
 19 20  1  0  0  0  0
 20 21  1  0  0  0  0
 21 22  1  0  0  0  0
 22 23  1  0  0  0  0
 23 24  2  0  0  0  0
 23 25  1  0  0  0  0
 25 26  1  0  0  0  0
  5 27  1  0  0  0  0
 27 28  2  0  0  0  0
  1 29  1  0  0  0  0
  1 30  1  0  0  0  0
  1 31  1  0  0  0  0
  2 32  1  0  0  0  0
  2 33  1  0  0  0  0
  3 34  1  0  0  0  0
  3 35  1  0  0  0  0
  4 36  1  0  0  0  0
  4 37  1  0  0  0  0
  6 38  1  0  0  0  0
  7 39  1  0  0  0  0
  7 40  1  0  0  0  0
  8 41  1  0  0  0  0
  9 42  1  0  0  0  0
 10 43  1  0  0  0  0
 11 44  1  0  0  0  0
 12 45  1  0  0  0  0
 13 46  1  0  0  0  0
 13 47  1  0  0  0  0
 16 48  1  0  0  0  0
 17 49  1  0  0  0  0
 17 50  1  0  0  0  0
 18 51  1  0  0  0  0
 19 52  1  0  0  0  0
 20 53  1  0  0  0  0
 20 54  1  0  0  0  0
 21 55  1  0  0  0  0
 21 56  1  0  0  0  0
 22 57  1  0  0  0  0
 22 58  1  0  0  0  0
 26 59  1  0  0  0  0
 26 60  1  0  0  0  0
 26 61  1  0  0  0  0
 27 62  1  0  0  0  0
 28 63  1  0  0  0  0
 28 64  1  0  0  0  0
M  END
>  <InChIKey>
InChI=1S/C23H36O5/c1-4-6-15-23(27,5-2)16-11-13-19-18(20(24)17-21(19)25)12-9-7-8-10-14-22(26)28-3/h5,7,9,11,13,18-19,21,25,27H,2,4,6,8,10,12,14-17H2,1,3H3

>  <CASRN>
73647-73-1

> <Outcome>
0

>  <Index>
2892

>  <StandardizerResult>
Clear Stereo (ID: ClearStereo)
Wedge Clean (ID: WedgeClean)
Mesomerize (ID: Mesomerize)
Tautomerize (ID: Tautomerize)
Add Explicit Hydrogens (ID: AddExplicitH)
Neutralize (ID: Neutralize)
Clean 2D (ID: Clean2D)

> <knn Distance>
4.0

> <CpId>
2892

$$$$
2957
  Mrv1532301301811342D          

 69 72  0  0  0  0            999 V2000
    3.9084    2.4565    0.0000 C   0  0  0  0  0  0  0  0  0  0  0  0
    4.3934    1.7890    0.0000 C   0  0  0  0  0  0  0  0  0  0  0  0
    4.0578    1.0353    0.0000 O   0  0  0  0  0  0  0  0  0  0  0  0
    4.5427    0.3679    0.0000 C   0  0  0  0  0  0  0  0  0  0  0  0
    4.2878   -0.4167    0.0000 O   0  0  0  0  0  0  0  0  0  0  0  0
    4.9552   -0.9016    0.0000 C   0  0  0  0  0  0  0  0  0  0  0  0
    4.9552   -1.7266    0.0000 C   0  0  0  0  0  0  0  0  0  0  0  0
    4.2408   -2.1391    0.0000 C   0  0  0  0  0  0  0  0  0  0  0  0
    4.2408   -2.9641    0.0000 O   0  0  0  0  0  0  0  0  0  0  0  0
    3.5263   -3.3766    0.0000 C   0  0  0  0  0  0  0  0  0  0  0  0
    3.5263   -4.2016    0.0000 C   0  0  0  0  0  0  0  0  0  0  0  0
    4.2408   -4.6141    0.0000 C   0  0  0  0  0  0  0  0  0  0  0  0
    4.2408   -5.4391    0.0000 C   0  0  0  0  0  0  0  0  0  0  0  0
    3.5263   -5.8516    0.0000 C   0  0  0  0  0  0  0  0  0  0  0  0
    2.8118   -5.4391    0.0000 C   0  0  0  0  0  0  0  0  0  0  0  0
    2.8118   -4.6141    0.0000 C   0  0  0  0  0  0  0  0  0  0  0  0
    5.6697   -2.1391    0.0000 O   0  0  0  0  0  0  0  0  0  0  0  0
    5.6697   -2.9641    0.0000 C   0  0  0  0  0  0  0  0  0  0  0  0
    6.3842   -3.3766    0.0000 C   0  0  0  0  0  0  0  0  0  0  0  0
    7.0986   -2.9641    0.0000 C   0  0  0  0  0  0  0  0  0  0  0  0
    7.8131   -3.3766    0.0000 C   0  0  0  0  0  0  0  0  0  0  0  0
    7.8131   -4.2016    0.0000 C   0  0  0  0  0  0  0  0  0  0  0  0
    7.0986   -4.6141    0.0000 C   0  0  0  0  0  0  0  0  0  0  0  0
    6.3842   -4.2016    0.0000 C   0  0  0  0  0  0  0  0  0  0  0  0
    5.6227   -0.4167    0.0000 C   0  0  0  0  0  0  0  0  0  0  0  0
    6.4073   -0.6717    0.0000 O   0  0  0  0  0  0  0  0  0  0  0  0
    7.0204   -0.1196    0.0000 C   0  0  0  0  0  0  0  0  0  0  0  0
    7.8050   -0.3746    0.0000 C   0  0  0  0  0  0  0  0  0  0  0  0
    8.4181    0.1775    0.0000 C   0  0  0  0  0  0  0  0  0  0  0  0
    9.2027   -0.0775    0.0000 C   0  0  0  0  0  0  0  0  0  0  0  0
    9.3742   -0.8844    0.0000 C   0  0  0  0  0  0  0  0  0  0  0  0
    8.7612   -1.4365    0.0000 C   0  0  0  0  0  0  0  0  0  0  0  0
    7.9765   -1.1815    0.0000 C   0  0  0  0  0  0  0  0  0  0  0  0
    5.3677    0.3679    0.0000 C   0  0  0  0  0  0  0  0  0  0  0  0
    5.8526    1.0353    0.0000 O   0  0  0  0  0  0  0  0  0  0  0  0
    4.5759    2.9414    0.0000 H   0  0  0  0  0  0  0  0  0  0  0  0
    3.4235    3.1239    0.0000 H   0  0  0  0  0  0  0  0  0  0  0  0
    3.2410    1.9715    0.0000 H   0  0  0  0  0  0  0  0  0  0  0  0
    5.1653    1.4979    0.0000 H   0  0  0  0  0  0  0  0  0  0  0  0
    5.0879    2.2343    0.0000 H   0  0  0  0  0  0  0  0  0  0  0  0
    4.9173    1.1030    0.0000 H   0  0  0  0  0  0  0  0  0  0  0  0
    5.6903   -1.2762    0.0000 H   0  0  0  0  0  0  0  0  0  0  0  0
    4.2408   -1.3141    0.0000 H   0  0  0  0  0  0  0  0  0  0  0  0
    3.4655   -1.8570    0.0000 H   0  0  0  0  0  0  0  0  0  0  0  0
    3.4655   -2.4213    0.0000 H   0  0  0  0  0  0  0  0  0  0  0  0
    2.7950   -2.9948    0.0000 H   0  0  0  0  0  0  0  0  0  0  0  0
    2.8207   -3.8042    0.0000 H   0  0  0  0  0  0  0  0  0  0  0  0
    4.9552   -4.2016    0.0000 H   0  0  0  0  0  0  0  0  0  0  0  0
    4.9552   -5.8516    0.0000 H   0  0  0  0  0  0  0  0  0  0  0  0
    3.5263   -6.6766    0.0000 H   0  0  0  0  0  0  0  0  0  0  0  0
    2.0973   -5.8516    0.0000 H   0  0  0  0  0  0  0  0  0  0  0  0
    1.9868   -4.6096    0.0000 H   0  0  0  0  0  0  0  0  0  0  0  0
    4.8461   -3.0121    0.0000 H   0  0  0  0  0  0  0  0  0  0  0  0
    5.2164   -3.6534    0.0000 H   0  0  0  0  0  0  0  0  0  0  0  0
    7.0986   -2.1391    0.0000 H   0  0  0  0  0  0  0  0  0  0  0  0
    8.5276   -2.9641    0.0000 H   0  0  0  0  0  0  0  0  0  0  0  0
    8.5276   -4.6141    0.0000 H   0  0  0  0  0  0  0  0  0  0  0  0
    7.0986   -5.4391    0.0000 H   0  0  0  0  0  0  0  0  0  0  0  0
    5.6697   -4.6141    0.0000 H   0  0  0  0  0  0  0  0  0  0  0  0
    6.2060    0.1666    0.0000 H   0  0  0  0  0  0  0  0  0  0  0  0
    7.6379    0.4275    0.0000 H   0  0  0  0  0  0  0  0  0  0  0  0
    6.8617    0.6900    0.0000 H   0  0  0  0  0  0  0  0  0  0  0  0
    8.6715    0.9626    0.0000 H   0  0  0  0  0  0  0  0  0  0  0  0
    9.8158    0.4746    0.0000 H   0  0  0  0  0  0  0  0  0  0  0  0
   10.1589   -1.1394    0.0000 H   0  0  0  0  0  0  0  0  0  0  0  0
    8.9327   -2.2434    0.0000 H   0  0  0  0  0  0  0  0  0  0  0  0
    7.3634   -1.7336    0.0000 H   0  0  0  0  0  0  0  0  0  0  0  0
    4.8828   -0.2995    0.0000 H   0  0  0  0  0  0  0  0  0  0  0  0
    6.4929    1.5557    0.0000 H   0  0  0  0  0  0  0  0  0  0  0  0
  1  2  1  0  0  0  0
  2  3  1  0  0  0  0
  3  4  1  0  0  0  0
  4  5  1  0  0  0  0
  5  6  1  0  0  0  0
  6  7  1  0  0  0  0
  7  8  1  0  0  0  0
  8  9  1  0  0  0  0
  9 10  1  0  0  0  0
 10 11  1  0  0  0  0
 11 12  4  0  0  0  0
 12 13  4  0  0  0  0
 13 14  4  0  0  0  0
 14 15  4  0  0  0  0
 15 16  4  0  0  0  0
 11 16  4  0  0  0  0
  7 17  1  0  0  0  0
 17 18  1  0  0  0  0
 18 19  1  0  0  0  0
 19 20  4  0  0  0  0
 20 21  4  0  0  0  0
 21 22  4  0  0  0  0
 22 23  4  0  0  0  0
 23 24  4  0  0  0  0
 19 24  4  0  0  0  0
  6 25  1  0  0  0  0
 25 26  1  0  0  0  0
 26 27  1  0  0  0  0
 27 28  1  0  0  0  0
 28 29  4  0  0  0  0
 29 30  4  0  0  0  0
 30 31  4  0  0  0  0
 31 32  4  0  0  0  0
 32 33  4  0  0  0  0
 28 33  4  0  0  0  0
 25 34  1  0  0  0  0
  4 34  1  0  0  0  0
 34 35  1  0  0  0  0
  1 36  1  0  0  0  0
  1 37  1  0  0  0  0
  1 38  1  0  0  0  0
  2 39  1  0  0  0  0
  2 40  1  0  0  0  0
  4 41  1  0  0  0  0
  6 42  1  0  0  0  0
  7 43  1  0  0  0  0
  8 44  1  0  0  0  0
  8 45  1  0  0  0  0
 10 46  1  0  0  0  0
 10 47  1  0  0  0  0
 12 48  1  0  0  0  0
 13 49  1  0  0  0  0
 14 50  1  0  0  0  0
 15 51  1  0  0  0  0
 16 52  1  0  0  0  0
 18 53  1  0  0  0  0
 18 54  1  0  0  0  0
 20 55  1  0  0  0  0
 21 56  1  0  0  0  0
 22 57  1  0  0  0  0
 23 58  1  0  0  0  0
 24 59  1  0  0  0  0
 25 60  1  0  0  0  0
 27 61  1  0  0  0  0
 27 62  1  0  0  0  0
 29 63  1  0  0  0  0
 30 64  1  0  0  0  0
 31 65  1  0  0  0  0
 32 66  1  0  0  0  0
 33 67  1  0  0  0  0
 34 68  1  0  0  0  0
 35 69  1  0  0  0  0
M  END
>  <InChIKey>
InChI=1S/C29H34O6/c1-2-32-29-26(30)28(34-20-24-16-10-5-11-17-24)27(35-29)25(33-19-23-14-8-4-9-15-23)21-31-18-22-12-6-3-7-13-22/h3-17,25-30H,2,18-21H2,1H3

>  <CASRN>
10310-32-4

> <Outcome>
0

>  <Index>
2957

>  <StandardizerResult>
Dearomatize (ID: Dearomatize)
Clear Stereo (ID: ClearStereo)
Wedge Clean (ID: WedgeClean)
Mesomerize (ID: Mesomerize)
Tautomerize (ID: Tautomerize)
Aromatize (ID: Aromatize)
Add Explicit Hydrogens (ID: AddExplicitH)
Neutralize (ID: Neutralize)
Clean 2D (ID: Clean2D)

> <knn Distance>
4.0

> <CpId>
2957

$$$$
2990
  Mrv1532301301811342D          

 27 26  0  0  0  0            999 V2000
    2.6222    0.7246    0.0000 C   0  0  0  0  0  0  0  0  0  0  0  0
    1.9077    0.3121    0.0000 O   0  0  0  0  0  0  0  0  0  0  0  0
    1.1933    0.7246    0.0000 Si  0  0  0  0  0  0  0  0  0  0  0  0
    0.4788    1.1371    0.0000 C   0  0  0  0  0  0  0  0  0  0  0  0
   -0.2357    0.7246    0.0000 C   0  0  0  0  0  0  0  0  0  0  0  0
   -0.9501    1.1371    0.0000 C   0  0  0  0  0  0  0  0  0  0  0  0
   -1.6646    0.7246    0.0000 S   0  0  0  0  0  0  0  0  0  0  0  0
    1.6058    1.4391    0.0000 O   0  0  0  0  0  0  0  0  0  0  0  0
    1.1933    2.1536    0.0000 C   0  0  0  0  0  0  0  0  0  0  0  0
    0.7808    0.0102    0.0000 O   0  0  0  0  0  0  0  0  0  0  0  0
   -0.0442    0.0102    0.0000 C   0  0  0  0  0  0  0  0  0  0  0  0
    3.0347    0.0102    0.0000 H   0  0  0  0  0  0  0  0  0  0  0  0
    3.3367    1.1371    0.0000 H   0  0  0  0  0  0  0  0  0  0  0  0
    2.2097    1.4391    0.0000 H   0  0  0  0  0  0  0  0  0  0  0  0
    0.8491    1.8744    0.0000 H   0  0  0  0  0  0  0  0  0  0  0  0
    0.1085    1.8744    0.0000 H   0  0  0  0  0  0  0  0  0  0  0  0
   -0.8902    0.2224    0.0000 H   0  0  0  0  0  0  0  0  0  0  0  0
    0.5265    0.4089    0.0000 H   0  0  0  0  0  0  0  0  0  0  0  0
   -0.5799    1.8744    0.0000 H   0  0  0  0  0  0  0  0  0  0  0  0
   -1.3204    1.8744    0.0000 H   0  0  0  0  0  0  0  0  0  0  0  0
   -2.4893    0.7460    0.0000 H   0  0  0  0  0  0  0  0  0  0  0  0
    2.0063    2.2934    0.0000 H   0  0  0  0  0  0  0  0  0  0  0  0
    1.3433    2.9648    0.0000 H   0  0  0  0  0  0  0  0  0  0  0  0
    0.4840    2.5750    0.0000 H   0  0  0  0  0  0  0  0  0  0  0  0
   -0.7246   -0.4564    0.0000 H   0  0  0  0  0  0  0  0  0  0  0  0
   -0.1454   -0.8086    0.0000 H   0  0  0  0  0  0  0  0  0  0  0  0
    0.5022   -0.6079    0.0000 H   0  0  0  0  0  0  0  0  0  0  0  0
  1  2  1  0  0  0  0
  2  3  1  0  0  0  0
  3  4  1  0  0  0  0
  4  5  1  0  0  0  0
  5  6  1  0  0  0  0
  6  7  1  0  0  0  0
  3  8  1  0  0  0  0
  8  9  1  0  0  0  0
  3 10  1  0  0  0  0
 10 11  1  0  0  0  0
  1 12  1  0  0  0  0
  1 13  1  0  0  0  0
  1 14  1  0  0  0  0
  4 15  1  0  0  0  0
  4 16  1  0  0  0  0
  5 17  1  0  0  0  0
  5 18  1  0  0  0  0
  6 19  1  0  0  0  0
  6 20  1  0  0  0  0
  7 21  1  0  0  0  0
  9 22  1  0  0  0  0
  9 23  1  0  0  0  0
  9 24  1  0  0  0  0
 11 25  1  0  0  0  0
 11 26  1  0  0  0  0
 11 27  1  0  0  0  0
M  END
>  <InChIKey>
InChI=1S/C6H16O3SSi/c1-7-11(8-2,9-3)6-4-5-10/h10H,4-6H2,1-3H3

>  <UN GHS>
Non-irritant

>  <CASRN>
4420-74-0

> <Outcome>
0

>  <Index>
2990

>  <StandardizerResult>
Clear Stereo (ID: ClearStereo)
Wedge Clean (ID: WedgeClean)
Mesomerize (ID: Mesomerize)
Tautomerize (ID: Tautomerize)
Add Explicit Hydrogens (ID: AddExplicitH)
Neutralize (ID: Neutralize)
Clean 2D (ID: Clean2D)

> <knn Distance>
4.0

> <CpId>
2990

$$$$
2993
  Mrv1532301301811342D          

 22 22  0  0  0  0            999 V2000
   -0.7145    3.7125    0.0000 C   0  0  0  0  0  0  0  0  0  0  0  0
   -0.0000    3.3000    0.0000 N   0  0  0  0  0  0  0  0  0  0  0  0
   -0.0000    2.4750    0.0000 C   0  0  0  0  0  0  0  0  0  0  0  0
    0.7145    2.0625    0.0000 C   0  0  0  0  0  0  0  0  0  0  0  0
    0.7145    1.2375    0.0000 C   0  0  0  0  0  0  0  0  0  0  0  0
    1.4289    0.8250    0.0000 C   0  0  0  0  0  0  0  0  0  0  0  0
    1.4289   -0.0000    0.0000 C   0  0  0  0  0  0  0  0  0  0  0  0
    0.7145   -0.4125    0.0000 C   0  0  0  0  0  0  0  0  0  0  0  0
   -0.0000   -0.0000    0.0000 C   0  0  0  0  0  0  0  0  0  0  0  0
   -0.0000    0.8250    0.0000 N   0  0  0  0  0  0  0  0  0  0  0  0
   -0.3020    4.4270    0.0000 H   0  0  0  0  0  0  0  0  0  0  0  0
   -1.4289    4.1250    0.0000 H   0  0  0  0  0  0  0  0  0  0  0  0
   -1.1270    2.9980    0.0000 H   0  0  0  0  0  0  0  0  0  0  0  0
    0.7145    3.7125    0.0000 H   0  0  0  0  0  0  0  0  0  0  0  0
   -0.8236    2.4270    0.0000 H   0  0  0  0  0  0  0  0  0  0  0  0
   -0.4533    1.7857    0.0000 H   0  0  0  0  0  0  0  0  0  0  0  0
    1.5381    2.1105    0.0000 H   0  0  0  0  0  0  0  0  0  0  0  0
    1.1678    2.7518    0.0000 H   0  0  0  0  0  0  0  0  0  0  0  0
    2.1434    1.2375    0.0000 H   0  0  0  0  0  0  0  0  0  0  0  0
    2.1434   -0.4125    0.0000 H   0  0  0  0  0  0  0  0  0  0  0  0
    0.7145   -1.2375    0.0000 H   0  0  0  0  0  0  0  0  0  0  0  0
   -0.7145   -0.4125    0.0000 H   0  0  0  0  0  0  0  0  0  0  0  0
  1  2  1  0  0  0  0
  2  3  1  0  0  0  0
  3  4  1  0  0  0  0
  4  5  1  0  0  0  0
  5  6  4  0  0  0  0
  6  7  4  0  0  0  0
  7  8  4  0  0  0  0
  8  9  4  0  0  0  0
  9 10  4  0  0  0  0
  5 10  4  0  0  0  0
  1 11  1  0  0  0  0
  1 12  1  0  0  0  0
  1 13  1  0  0  0  0
  2 14  1  0  0  0  0
  3 15  1  0  0  0  0
  3 16  1  0  0  0  0
  4 17  1  0  0  0  0
  4 18  1  0  0  0  0
  6 19  1  0  0  0  0
  7 20  1  0  0  0  0
  8 21  1  0  0  0  0
  9 22  1  0  0  0  0
M  END
>  <InChIKey>
InChI=1S/C8H12N2/c1-9-7-5-8-4-2-3-6-10-8/h2-4,6,9H,5,7H2,1H3

>  <CASRN>
5638-76-6

> <Outcome>
0

>  <Index>
2993

>  <StandardizerResult>
Dearomatize (ID: Dearomatize)
Clear Stereo (ID: ClearStereo)
Wedge Clean (ID: WedgeClean)
Mesomerize (ID: Mesomerize)
Tautomerize (ID: Tautomerize)
Aromatize (ID: Aromatize)
Add Explicit Hydrogens (ID: AddExplicitH)
Neutralize (ID: Neutralize)
Clean 2D (ID: Clean2D)

> <knn Distance>
4.0

> <CpId>
2993

$$$$
2997
  Mrv1532301301811342D          

 42 44  0  0  0  0            999 V2000
    1.7721   -1.8777    0.0000 C   0  0  0  0  0  0  0  0  0  0  0  0
    1.0576   -2.2902    0.0000 N   0  0  0  0  0  0  0  0  0  0  0  0
    1.0576   -3.1152    0.0000 C   0  0  0  0  0  0  0  0  0  0  0  0
    0.3432   -3.5277    0.0000 C   0  0  0  0  0  0  0  0  0  0  0  0
   -0.3713   -3.1152    0.0000 N   0  0  0  0  0  0  0  0  0  0  0  0
   -0.3713   -2.2902    0.0000 C   0  0  0  0  0  0  0  0  0  0  0  0
    0.3432   -1.8777    0.0000 C   0  0  0  0  0  0  0  0  0  0  0  0
   -1.0858   -3.5277    0.0000 C   0  0  0  0  0  0  0  0  0  0  0  0
   -1.8002   -3.1152    0.0000 C   0  0  0  0  0  0  0  0  0  0  0  0
   -2.5147   -3.5277    0.0000 C   0  0  0  0  0  0  0  0  0  0  0  0
   -3.2292   -3.1152    0.0000 C   0  0  0  0  0  0  0  0  0  0  0  0
   -3.2292   -2.2902    0.0000 C   0  0  0  0  0  0  0  0  0  0  0  0
   -2.5147   -1.8777    0.0000 C   0  0  0  0  0  0  0  0  0  0  0  0
   -1.8002   -2.2902    0.0000 C   0  0  0  0  0  0  0  0  0  0  0  0
   -1.0858   -4.3527    0.0000 C   0  0  0  0  0  0  0  0  0  0  0  0
   -0.3713   -4.7652    0.0000 C   0  0  0  0  0  0  0  0  0  0  0  0
   -0.3713   -5.5902    0.0000 C   0  0  0  0  0  0  0  0  0  0  0  0
   -1.0858   -6.0027    0.0000 C   0  0  0  0  0  0  0  0  0  0  0  0
   -1.8002   -5.5902    0.0000 C   0  0  0  0  0  0  0  0  0  0  0  0
   -1.8002   -4.7652    0.0000 C   0  0  0  0  0  0  0  0  0  0  0  0
    2.1846   -2.5922    0.0000 H   0  0  0  0  0  0  0  0  0  0  0  0
    2.4866   -1.4652    0.0000 H   0  0  0  0  0  0  0  0  0  0  0  0
    1.3596   -1.1632    0.0000 H   0  0  0  0  0  0  0  0  0  0  0  0
    1.5110   -3.8045    0.0000 H   0  0  0  0  0  0  0  0  0  0  0  0
    1.8812   -3.1632    0.0000 H   0  0  0  0  0  0  0  0  0  0  0  0
   -0.0271   -4.2650    0.0000 H   0  0  0  0  0  0  0  0  0  0  0  0
    0.7134   -4.2650    0.0000 H   0  0  0  0  0  0  0  0  0  0  0  0
   -0.8246   -1.6009    0.0000 H   0  0  0  0  0  0  0  0  0  0  0  0
   -1.1949   -2.2422    0.0000 H   0  0  0  0  0  0  0  0  0  0  0  0
    0.7134   -1.1405    0.0000 H   0  0  0  0  0  0  0  0  0  0  0  0
   -0.0271   -1.1405    0.0000 H   0  0  0  0  0  0  0  0  0  0  0  0
   -1.0858   -2.7027    0.0000 H   0  0  0  0  0  0  0  0  0  0  0  0
   -2.5147   -4.3527    0.0000 H   0  0  0  0  0  0  0  0  0  0  0  0
   -3.9437   -3.5277    0.0000 H   0  0  0  0  0  0  0  0  0  0  0  0
   -3.9437   -1.8777    0.0000 H   0  0  0  0  0  0  0  0  0  0  0  0
   -2.5147   -1.0527    0.0000 H   0  0  0  0  0  0  0  0  0  0  0  0
   -1.6184   -1.4855    0.0000 H   0  0  0  0  0  0  0  0  0  0  0  0
    0.4165   -5.0101    0.0000 H   0  0  0  0  0  0  0  0  0  0  0  0
    0.3432   -6.0027    0.0000 H   0  0  0  0  0  0  0  0  0  0  0  0
   -1.0858   -6.8277    0.0000 H   0  0  0  0  0  0  0  0  0  0  0  0
   -2.5147   -6.0027    0.0000 H   0  0  0  0  0  0  0  0  0  0  0  0
   -1.8002   -3.9402    0.0000 H   0  0  0  0  0  0  0  0  0  0  0  0
  1  2  1  0  0  0  0
  2  3  1  0  0  0  0
  3  4  1  0  0  0  0
  4  5  1  0  0  0  0
  5  6  1  0  0  0  0
  6  7  1  0  0  0  0
  2  7  1  0  0  0  0
  5  8  1  0  0  0  0
  8  9  1  0  0  0  0
  9 10  4  0  0  0  0
 10 11  4  0  0  0  0
 11 12  4  0  0  0  0
 12 13  4  0  0  0  0
 13 14  4  0  0  0  0
  9 14  4  0  0  0  0
  8 15  1  0  0  0  0
 15 16  4  0  0  0  0
 16 17  4  0  0  0  0
 17 18  4  0  0  0  0
 18 19  4  0  0  0  0
 19 20  4  0  0  0  0
 15 20  4  0  0  0  0
  1 21  1  0  0  0  0
  1 22  1  0  0  0  0
  1 23  1  0  0  0  0
  3 24  1  0  0  0  0
  3 25  1  0  0  0  0
  4 26  1  0  0  0  0
  4 27  1  0  0  0  0
  6 28  1  0  0  0  0
  6 29  1  0  0  0  0
  7 30  1  0  0  0  0
  7 31  1  0  0  0  0
  8 32  1  0  0  0  0
 10 33  1  0  0  0  0
 11 34  1  0  0  0  0
 12 35  1  0  0  0  0
 13 36  1  0  0  0  0
 14 37  1  0  0  0  0
 16 38  1  0  0  0  0
 17 39  1  0  0  0  0
 18 40  1  0  0  0  0
 19 41  1  0  0  0  0
 20 42  1  0  0  0  0
M  END
>  <InChIKey>
InChI=1S/C18H22N2/c1-19-12-14-20(15-13-19)18(16-8-4-2-5-9-16)17-10-6-3-7-11-17/h2-11,18H,12-15H2,1H3

>  <CASRN>
82-92-8

> <Outcome>
0

>  <Index>
2997

>  <StandardizerResult>
Dearomatize (ID: Dearomatize)
Clear Stereo (ID: ClearStereo)
Wedge Clean (ID: WedgeClean)
Mesomerize (ID: Mesomerize)
Tautomerize (ID: Tautomerize)
Aromatize (ID: Aromatize)
Add Explicit Hydrogens (ID: AddExplicitH)
Neutralize (ID: Neutralize)
Clean 2D (ID: Clean2D)

> <knn Distance>
4.0

> <CpId>
2997

$$$$
3052
  Mrv1532301301811342D          

 48 51  0  0  0  0            999 V2000
    3.5443   -3.3469    0.0000 C   0  0  0  0  0  0  0  0  0  0  0  0
    3.9041   -2.6045    0.0000 C   0  0  0  0  0  0  0  0  0  0  0  0
    4.4360   -3.2352    0.0000 C   0  0  0  0  0  0  0  0  0  0  0  0
    5.2481   -3.0900    0.0000 C   0  0  0  0  0  0  0  0  0  0  0  0
    5.5284   -2.3141    0.0000 C   0  0  0  0  0  0  0  0  0  0  0  0
    4.9966   -1.6834    0.0000 C   0  0  0  0  0  0  0  0  0  0  0  0
    5.2769   -0.9074    0.0000 C   0  0  0  0  0  0  0  0  0  0  0  0
    6.0890   -0.7622    0.0000 C   0  0  0  0  0  0  0  0  0  0  0  0
    6.6208   -1.3929    0.0000 C   0  0  0  0  0  0  0  0  0  0  0  0
    7.4329   -1.2477    0.0000 C   0  0  0  0  0  0  0  0  0  0  0  0
    7.9647   -1.8784    0.0000 C   0  0  0  0  0  0  0  0  0  0  0  0
    8.7768   -1.7332    0.0000 O   0  0  0  0  0  0  0  0  0  0  0  0
    7.6844   -2.6544    0.0000 C   0  0  0  0  0  0  0  0  0  0  0  0
    6.8723   -2.7996    0.0000 C   0  0  0  0  0  0  0  0  0  0  0  0
    6.3405   -2.1689    0.0000 C   0  0  0  0  0  0  0  0  0  0  0  0
    4.1844   -1.8286    0.0000 C   0  0  0  0  0  0  0  0  0  0  0  0
    3.5331   -1.3222    0.0000 C   0  0  0  0  0  0  0  0  0  0  0  0
    2.8503   -1.7852    0.0000 C   0  0  0  0  0  0  0  0  0  0  0  0
    3.0796   -2.5777    0.0000 C   0  0  0  0  0  0  0  0  0  0  0  0
    2.3187   -2.8966    0.0000 O   0  0  0  0  0  0  0  0  0  0  0  0
    2.9582   -3.3937    0.0000 C   0  0  0  0  0  0  0  0  0  0  0  0
    2.8368   -4.2097    0.0000 C   0  0  0  0  0  0  0  0  0  0  0  0
    3.0163   -3.9808    0.0000 H   0  0  0  0  0  0  0  0  0  0  0  0
    3.6284   -4.1676    0.0000 H   0  0  0  0  0  0  0  0  0  0  0  0
    4.1899   -3.8605    0.0000 H   0  0  0  0  0  0  0  0  0  0  0  0
    4.9588   -3.8734    0.0000 H   0  0  0  0  0  0  0  0  0  0  0  0
    4.7163   -2.4593    0.0000 H   0  0  0  0  0  0  0  0  0  0  0  0
    5.8790   -3.6215    0.0000 H   0  0  0  0  0  0  0  0  0  0  0  0
    6.0731   -3.0903    0.0000 H   0  0  0  0  0  0  0  0  0  0  0  0
    5.8087   -1.5381    0.0000 H   0  0  0  0  0  0  0  0  0  0  0  0
    4.4647   -1.0527    0.0000 H   0  0  0  0  0  0  0  0  0  0  0  0
    5.4182   -0.0946    0.0000 H   0  0  0  0  0  0  0  0  0  0  0  0
    4.8626   -0.1940    0.0000 H   0  0  0  0  0  0  0  0  0  0  0  0
    6.8535   -0.4521    0.0000 H   0  0  0  0  0  0  0  0  0  0  0  0
    6.4610   -0.0259    0.0000 H   0  0  0  0  0  0  0  0  0  0  0  0
    7.7132   -0.4718    0.0000 H   0  0  0  0  0  0  0  0  0  0  0  0
    7.8766   -3.4567    0.0000 H   0  0  0  0  0  0  0  0  0  0  0  0
    8.4427   -2.9793    0.0000 H   0  0  0  0  0  0  0  0  0  0  0  0
    7.0867   -3.5962    0.0000 H   0  0  0  0  0  0  0  0  0  0  0  0
    7.1526   -2.0236    0.0000 H   0  0  0  0  0  0  0  0  0  0  0  0
    5.7272   -2.7206    0.0000 H   0  0  0  0  0  0  0  0  0  0  0  0
    3.3919   -2.0579    0.0000 H   0  0  0  0  0  0  0  0  0  0  0  0
    3.4879   -0.4985    0.0000 H   0  0  0  0  0  0  0  0  0  0  0  0
    2.9284   -0.7610    0.0000 H   0  0  0  0  0  0  0  0  0  0  0  0
    2.2968   -1.1734    0.0000 H   0  0  0  0  0  0  0  0  0  0  0  0
    2.0336   -1.9020    0.0000 H   0  0  0  0  0  0  0  0  0  0  0  0
    1.5009   -2.7880    0.0000 H   0  0  0  0  0  0  0  0  0  0  0  0
    2.2265   -4.7649    0.0000 H   0  0  0  0  0  0  0  0  0  0  0  0
  1  2  1  0  0  0  0
  2  3  1  0  0  0  0
  3  4  1  0  0  0  0
  4  5  1  0  0  0  0
  5  6  1  0  0  0  0
  6  7  1  0  0  0  0
  7  8  1  0  0  0  0
  8  9  1  0  0  0  0
  9 10  2  0  0  0  0
 10 11  1  0  0  0  0
 11 12  2  0  0  0  0
 11 13  1  0  0  0  0
 13 14  1  0  0  0  0
 14 15  1  0  0  0  0
  5 15  1  0  0  0  0
  9 15  1  0  0  0  0
  6 16  1  0  0  0  0
  2 16  1  0  0  0  0
 16 17  1  0  0  0  0
 17 18  1  0  0  0  0
 18 19  1  0  0  0  0
  2 19  1  0  0  0  0
 19 20  1  0  0  0  0
 19 21  1  0  0  0  0
 21 22  3  0  0  0  0
  1 23  1  0  0  0  0
  1 24  1  0  0  0  0
  1 25  1  0  0  0  0
  3 26  1  0  0  0  0
  3 27  1  0  0  0  0
  4 28  1  0  0  0  0
  4 29  1  0  0  0  0
  5 30  1  0  0  0  0
  6 31  1  0  0  0  0
  7 32  1  0  0  0  0
  7 33  1  0  0  0  0
  8 34  1  0  0  0  0
  8 35  1  0  0  0  0
 10 36  1  0  0  0  0
 13 37  1  0  0  0  0
 13 38  1  0  0  0  0
 14 39  1  0  0  0  0
 14 40  1  0  0  0  0
 15 41  1  0  0  0  0
 16 42  1  0  0  0  0
 17 43  1  0  0  0  0
 17 44  1  0  0  0  0
 18 45  1  0  0  0  0
 18 46  1  0  0  0  0
 20 47  1  0  0  0  0
 22 48  1  0  0  0  0
M  END
>  <InChIKey>
InChI=1S/C20H26O2/c1-3-20(22)11-9-18-17-6-4-13-12-14(21)5-7-15(13)16(17)8-10-19(18,20)2/h1,12,15-18,22H,4-11H2,2H3

>  <CASRN>
68-22-4

> <Outcome>
0

>  <Index>
3052

>  <StandardizerResult>
Clear Stereo (ID: ClearStereo)
Wedge Clean (ID: WedgeClean)
Mesomerize (ID: Mesomerize)
Tautomerize (ID: Tautomerize)
Add Explicit Hydrogens (ID: AddExplicitH)
Neutralize (ID: Neutralize)
Clean 2D (ID: Clean2D)

> <knn Distance>
4.0

> <CpId>
3052

$$$$
3072
  Mrv1532301301811342D          

 69 72  0  0  0  0            999 V2000
    8.3747   -2.5252    0.0000 C   0  0  0  0  0  0  0  0  0  0  0  0
    9.0891   -2.9377    0.0000 C   0  0  0  0  0  0  0  0  0  0  0  0
    9.8036   -2.5252    0.0000 C   0  0  0  0  0  0  0  0  0  0  0  0
   10.5181   -2.9377    0.0000 C   0  0  0  0  0  0  0  0  0  0  0  0
   11.2325   -2.5252    0.0000 C   0  0  0  0  0  0  0  0  0  0  0  0
   11.9470   -2.9377    0.0000 C   0  0  0  0  0  0  0  0  0  0  0  0
   12.6615   -2.5252    0.0000 C   0  0  0  0  0  0  0  0  0  0  0  0
   12.6615   -1.7002    0.0000 O   0  0  0  0  0  0  0  0  0  0  0  0
   13.3760   -2.9377    0.0000 O   0  0  0  0  0  0  0  0  0  0  0  0
   14.0904   -2.5252    0.0000 C   0  0  0  0  0  0  0  0  0  0  0  0
   14.1767   -1.7047    0.0000 C   0  0  0  0  0  0  0  0  0  0  0  0
   14.9836   -1.5332    0.0000 C   0  0  0  0  0  0  0  0  0  0  0  0
   15.3961   -2.2477    0.0000 C   0  0  0  0  0  0  0  0  0  0  0  0
   16.2031   -2.4192    0.0000 C   0  0  0  0  0  0  0  0  0  0  0  0
   16.7551   -1.8061    0.0000 C   0  0  0  0  0  0  0  0  0  0  0  0
   17.5621   -1.9776    0.0000 C   0  0  0  0  0  0  0  0  0  0  0  0
   17.8171   -2.7623    0.0000 C   0  0  0  0  0  0  0  0  0  0  0  0
   18.6240   -2.9338    0.0000 C   0  0  0  0  0  0  0  0  0  0  0  0
   18.8790   -3.7184    0.0000 C   0  0  0  0  0  0  0  0  0  0  0  0
   19.6859   -3.8899    0.0000 O   0  0  0  0  0  0  0  0  0  0  0  0
   18.3269   -4.3315    0.0000 C   0  0  0  0  0  0  0  0  0  0  0  0
   17.5200   -4.1600    0.0000 C   0  0  0  0  0  0  0  0  0  0  0  0
   17.2650   -3.3754    0.0000 C   0  0  0  0  0  0  0  0  0  0  0  0
   16.7130   -3.9885    0.0000 C   0  0  0  0  0  0  0  0  0  0  0  0
   16.4580   -3.2038    0.0000 C   0  0  0  0  0  0  0  0  0  0  0  0
   15.9060   -3.8169    0.0000 C   0  0  0  0  0  0  0  0  0  0  0  0
   15.0990   -3.6454    0.0000 C   0  0  0  0  0  0  0  0  0  0  0  0
   14.8441   -2.8608    0.0000 C   0  0  0  0  0  0  0  0  0  0  0  0
   14.2310   -3.4128    0.0000 C   0  0  0  0  0  0  0  0  0  0  0  0
    8.7872   -1.8107    0.0000 H   0  0  0  0  0  0  0  0  0  0  0  0
    7.6602   -2.1127    0.0000 H   0  0  0  0  0  0  0  0  0  0  0  0
    7.9622   -3.2397    0.0000 H   0  0  0  0  0  0  0  0  0  0  0  0
    8.7189   -3.6750    0.0000 H   0  0  0  0  0  0  0  0  0  0  0  0
    9.4594   -3.6750    0.0000 H   0  0  0  0  0  0  0  0  0  0  0  0
   10.1739   -1.7880    0.0000 H   0  0  0  0  0  0  0  0  0  0  0  0
    9.4333   -1.7880    0.0000 H   0  0  0  0  0  0  0  0  0  0  0  0
   10.1478   -3.6750    0.0000 H   0  0  0  0  0  0  0  0  0  0  0  0
   10.8883   -3.6750    0.0000 H   0  0  0  0  0  0  0  0  0  0  0  0
   11.6028   -1.7880    0.0000 H   0  0  0  0  0  0  0  0  0  0  0  0
   10.8623   -1.7880    0.0000 H   0  0  0  0  0  0  0  0  0  0  0  0
   11.5768   -3.6750    0.0000 H   0  0  0  0  0  0  0  0  0  0  0  0
   12.3173   -3.6750    0.0000 H   0  0  0  0  0  0  0  0  0  0  0  0
   13.3985   -2.0759    0.0000 H   0  0  0  0  0  0  0  0  0  0  0  0
   14.2162   -0.8807    0.0000 H   0  0  0  0  0  0  0  0  0  0  0  0
   13.6436   -1.0751    0.0000 H   0  0  0  0  0  0  0  0  0  0  0  0
   15.6337   -1.0253    0.0000 H   0  0  0  0  0  0  0  0  0  0  0  0
   14.9261   -0.7102    0.0000 H   0  0  0  0  0  0  0  0  0  0  0  0
   15.6511   -3.0323    0.0000 H   0  0  0  0  0  0  0  0  0  0  0  0
   15.9482   -1.6346    0.0000 H   0  0  0  0  0  0  0  0  0  0  0  0
   17.1923   -1.1065    0.0000 H   0  0  0  0  0  0  0  0  0  0  0  0
   16.6403   -0.9891    0.0000 H   0  0  0  0  0  0  0  0  0  0  0  0
   18.3871   -1.9784    0.0000 H   0  0  0  0  0  0  0  0  0  0  0  0
   18.1842   -1.4358    0.0000 H   0  0  0  0  0  0  0  0  0  0  0  0
   19.1761   -2.3207    0.0000 H   0  0  0  0  0  0  0  0  0  0  0  0
   18.2026   -5.1471    0.0000 H   0  0  0  0  0  0  0  0  0  0  0  0
   18.9069   -4.9183    0.0000 H   0  0  0  0  0  0  0  0  0  0  0  0
   17.0828   -4.8596    0.0000 H   0  0  0  0  0  0  0  0  0  0  0  0
   17.6348   -4.9770    0.0000 H   0  0  0  0  0  0  0  0  0  0  0  0
   15.9341   -4.2604    0.0000 H   0  0  0  0  0  0  0  0  0  0  0  0
   16.1882   -4.6250    0.0000 H   0  0  0  0  0  0  0  0  0  0  0  0
   16.5946   -4.8049    0.0000 H   0  0  0  0  0  0  0  0  0  0  0  0
   17.0101   -2.5907    0.0000 H   0  0  0  0  0  0  0  0  0  0  0  0
   15.1478   -4.1420    0.0000 H   0  0  0  0  0  0  0  0  0  0  0  0
   15.4739   -4.5197    0.0000 H   0  0  0  0  0  0  0  0  0  0  0  0
   14.3334   -3.9527    0.0000 H   0  0  0  0  0  0  0  0  0  0  0  0
   14.6709   -4.3506    0.0000 H   0  0  0  0  0  0  0  0  0  0  0  0
   13.5599   -2.9330    0.0000 H   0  0  0  0  0  0  0  0  0  0  0  0
   13.4182   -3.5542    0.0000 H   0  0  0  0  0  0  0  0  0  0  0  0
   13.7614   -4.0911    0.0000 H   0  0  0  0  0  0  0  0  0  0  0  0
  1  2  1  0  0  0  0
  2  3  1  0  0  0  0
  3  4  1  0  0  0  0
  4  5  1  0  0  0  0
  5  6  1  0  0  0  0
  6  7  1  0  0  0  0
  7  8  2  0  0  0  0
  7  9  1  0  0  0  0
  9 10  1  0  0  0  0
 10 11  1  0  0  0  0
 11 12  1  0  0  0  0
 12 13  1  0  0  0  0
 13 14  1  0  0  0  0
 14 15  1  0  0  0  0
 15 16  1  0  0  0  0
 16 17  1  0  0  0  0
 17 18  2  0  0  0  0
 18 19  1  0  0  0  0
 19 20  2  0  0  0  0
 19 21  1  0  0  0  0
 21 22  1  0  0  0  0
 22 23  1  0  0  0  0
 17 23  1  0  0  0  0
 23 24  1  0  0  0  0
 23 25  1  0  0  0  0
 14 25  1  0  0  0  0
 25 26  1  0  0  0  0
 26 27  1  0  0  0  0
 27 28  1  0  0  0  0
 10 28  1  0  0  0  0
 13 28  1  0  0  0  0
 28 29  1  0  0  0  0
  1 30  1  0  0  0  0
  1 31  1  0  0  0  0
  1 32  1  0  0  0  0
  2 33  1  0  0  0  0
  2 34  1  0  0  0  0
  3 35  1  0  0  0  0
  3 36  1  0  0  0  0
  4 37  1  0  0  0  0
  4 38  1  0  0  0  0
  5 39  1  0  0  0  0
  5 40  1  0  0  0  0
  6 41  1  0  0  0  0
  6 42  1  0  0  0  0
 10 43  1  0  0  0  0
 11 44  1  0  0  0  0
 11 45  1  0  0  0  0
 12 46  1  0  0  0  0
 12 47  1  0  0  0  0
 13 48  1  0  0  0  0
 14 49  1  0  0  0  0
 15 50  1  0  0  0  0
 15 51  1  0  0  0  0
 16 52  1  0  0  0  0
 16 53  1  0  0  0  0
 18 54  1  0  0  0  0
 21 55  1  0  0  0  0
 21 56  1  0  0  0  0
 22 57  1  0  0  0  0
 22 58  1  0  0  0  0
 24 59  1  0  0  0  0
 24 60  1  0  0  0  0
 24 61  1  0  0  0  0
 25 62  1  0  0  0  0
 26 63  1  0  0  0  0
 26 64  1  0  0  0  0
 27 65  1  0  0  0  0
 27 66  1  0  0  0  0
 29 67  1  0  0  0  0
 29 68  1  0  0  0  0
 29 69  1  0  0  0  0
M  END
>  <InChIKey>
InChI=1S/C26H40O3/c1-4-5-6-7-8-24(28)29-23-12-11-21-20-10-9-18-17-19(27)13-15-25(18,2)22(20)14-16-26(21,23)3/h17,20-23H,4-16H2,1-3H3

>  <CASRN>
315-37-7

> <Outcome>
0

>  <Index>
3072

>  <StandardizerResult>
Clear Stereo (ID: ClearStereo)
Wedge Clean (ID: WedgeClean)
Mesomerize (ID: Mesomerize)
Tautomerize (ID: Tautomerize)
Add Explicit Hydrogens (ID: AddExplicitH)
Neutralize (ID: Neutralize)
Clean 2D (ID: Clean2D)

> <knn Distance>
4.0

> <CpId>
3072

$$$$
3106
  Mrv1532301301811342D          

 20 19  0  0  0  0            999 V2000
    0.3365    2.2845    0.0000 C   0  0  0  0  0  0  0  0  0  0  0  0
    0.7490    1.5700    0.0000 C   0  0  0  0  0  0  0  0  0  0  0  0
    0.0346    1.1575    0.0000 C   0  0  0  0  0  0  0  0  0  0  0  0
    1.4635    1.9825    0.0000 S   0  0  0  0  0  0  0  0  0  0  0  0
    1.1615    0.8555    0.0000 C   0  0  0  0  0  0  0  0  0  0  0  0
    1.9865    0.8555    0.0000 N   0  0  0  0  0  0  0  0  0  0  0  0
    0.7490    0.1410    0.0000 C   0  0  0  0  0  0  0  0  0  0  0  0
    1.1615   -0.5734    0.0000 O   0  0  0  0  0  0  0  0  0  0  0  0
   -0.0760    0.1410    0.0000 O   0  0  0  0  0  0  0  0  0  0  0  0
    1.0510    2.6970    0.0000 H   0  0  0  0  0  0  0  0  0  0  0  0
   -0.0760    2.9989    0.0000 H   0  0  0  0  0  0  0  0  0  0  0  0
   -0.3779    1.8720    0.0000 H   0  0  0  0  0  0  0  0  0  0  0  0
   -0.7834    1.0498    0.0000 H   0  0  0  0  0  0  0  0  0  0  0  0
   -0.1790    0.3606    0.0000 H   0  0  0  0  0  0  0  0  0  0  0  0
    0.6891    0.6553    0.0000 H   0  0  0  0  0  0  0  0  0  0  0  0
    2.2604    1.7690    0.0000 H   0  0  0  0  0  0  0  0  0  0  0  0
    1.5740    1.5700    0.0000 H   0  0  0  0  0  0  0  0  0  0  0  0
    2.1086    0.0396    0.0000 H   0  0  0  0  0  0  0  0  0  0  0  0
    2.7330    0.5043    0.0000 H   0  0  0  0  0  0  0  0  0  0  0  0
    0.7490   -1.2879    0.0000 H   0  0  0  0  0  0  0  0  0  0  0  0
  1  2  1  0  0  0  0
  2  3  1  0  0  0  0
  2  4  1  0  0  0  0
  2  5  1  0  0  0  0
  5  6  1  0  0  0  0
  5  7  1  0  0  0  0
  7  8  1  0  0  0  0
  7  9  2  0  0  0  0
  1 10  1  0  0  0  0
  1 11  1  0  0  0  0
  1 12  1  0  0  0  0
  3 13  1  0  0  0  0
  3 14  1  0  0  0  0
  3 15  1  0  0  0  0
  4 16  1  0  0  0  0
  5 17  1  0  0  0  0
  6 18  1  0  0  0  0
  6 19  1  0  0  0  0
  8 20  1  0  0  0  0
M  END
>  <InChIKey>
InChI=1S/C5H11NO2S/c1-5(2,9)3(6)4(7)8/h3,9H,6H2,1-2H3,(H,7,8)

>  <CASRN>
52-67-5

> <Outcome>
0

>  <Index>
3106

>  <StandardizerResult>
Clear Stereo (ID: ClearStereo)
Wedge Clean (ID: WedgeClean)
Mesomerize (ID: Mesomerize)
Tautomerize (ID: Tautomerize)
Add Explicit Hydrogens (ID: AddExplicitH)
Neutralize (ID: Neutralize)
Clean 2D (ID: Clean2D)

> <knn Distance>
4.0

> <CpId>
3106

$$$$
3166
  Mrv1532301301811342D          

 34 36  0  0  0  0            999 V2000
   -0.5868    0.0132    0.0000 C   0  0  0  0  0  0  0  0  0  0  0  0
   -0.1743   -0.7013    0.0000 C   0  0  0  0  0  0  0  0  0  0  0  0
    0.6507   -0.7013    0.0000 C   0  0  0  0  0  0  0  0  0  0  0  0
    1.1356   -0.0338    0.0000 O   0  0  0  0  0  0  0  0  0  0  0  0
    1.9202   -0.2888    0.0000 C   0  0  0  0  0  0  0  0  0  0  0  0
    2.6347    0.1237    0.0000 C   0  0  0  0  0  0  0  0  0  0  0  0
    3.3492   -0.2888    0.0000 C   0  0  0  0  0  0  0  0  0  0  0  0
    3.3492   -1.1138    0.0000 C   0  0  0  0  0  0  0  0  0  0  0  0
    2.6347   -1.5263    0.0000 C   0  0  0  0  0  0  0  0  0  0  0  0
    1.9202   -1.1138    0.0000 C   0  0  0  0  0  0  0  0  0  0  0  0
    1.1356   -1.3687    0.0000 C   0  0  0  0  0  0  0  0  0  0  0  0
    0.8806   -2.1533    0.0000 C   0  0  0  0  0  0  0  0  0  0  0  0
    1.4327   -2.7664    0.0000 O   0  0  0  0  0  0  0  0  0  0  0  0
    0.0737   -2.3248    0.0000 C   0  0  0  0  0  0  0  0  0  0  0  0
   -0.1813   -3.1095    0.0000 C   0  0  0  0  0  0  0  0  0  0  0  0
   -0.9882   -3.2810    0.0000 C   0  0  0  0  0  0  0  0  0  0  0  0
   -1.2432   -4.0656    0.0000 Br  0  0  0  0  0  0  0  0  0  0  0  0
   -1.5403   -2.6679    0.0000 C   0  0  0  0  0  0  0  0  0  0  0  0
   -2.3472   -2.8394    0.0000 O   0  0  0  0  0  0  0  0  0  0  0  0
   -1.2853   -1.8833    0.0000 C   0  0  0  0  0  0  0  0  0  0  0  0
   -1.8374   -1.2702    0.0000 Br  0  0  0  0  0  0  0  0  0  0  0  0
   -0.4784   -1.7117    0.0000 C   0  0  0  0  0  0  0  0  0  0  0  0
    0.1276    0.4257    0.0000 H   0  0  0  0  0  0  0  0  0  0  0  0
   -0.9993    0.7277    0.0000 H   0  0  0  0  0  0  0  0  0  0  0  0
   -1.3013   -0.3993    0.0000 H   0  0  0  0  0  0  0  0  0  0  0  0
   -0.8636   -1.1546    0.0000 H   0  0  0  0  0  0  0  0  0  0  0  0
   -0.2223   -1.5249    0.0000 H   0  0  0  0  0  0  0  0  0  0  0  0
    2.6347    0.9487    0.0000 H   0  0  0  0  0  0  0  0  0  0  0  0
    4.0636    0.1237    0.0000 H   0  0  0  0  0  0  0  0  0  0  0  0
    4.0636   -1.5263    0.0000 H   0  0  0  0  0  0  0  0  0  0  0  0
    2.6347   -2.3513    0.0000 H   0  0  0  0  0  0  0  0  0  0  0  0
    0.3708   -3.7226    0.0000 H   0  0  0  0  0  0  0  0  0  0  0  0
   -2.8993   -2.2263    0.0000 H   0  0  0  0  0  0  0  0  0  0  0  0
   -0.7333   -2.4964    0.0000 H   0  0  0  0  0  0  0  0  0  0  0  0
  1  2  1  0  0  0  0
  2  3  1  0  0  0  0
  3  4  4  0  0  0  0
  4  5  4  0  0  0  0
  5  6  4  0  0  0  0
  6  7  4  0  0  0  0
  7  8  4  0  0  0  0
  8  9  4  0  0  0  0
  9 10  4  0  0  0  0
  5 10  4  0  0  0  0
 10 11  4  0  0  0  0
  3 11  4  0  0  0  0
 11 12  1  0  0  0  0
 12 13  2  0  0  0  0
 12 14  1  0  0  0  0
 14 15  4  0  0  0  0
 15 16  4  0  0  0  0
 16 17  1  0  0  0  0
 16 18  4  0  0  0  0
 18 19  1  0  0  0  0
 18 20  4  0  0  0  0
 20 21  1  0  0  0  0
 20 22  4  0  0  0  0
 14 22  4  0  0  0  0
  1 23  1  0  0  0  0
  1 24  1  0  0  0  0
  1 25  1  0  0  0  0
  2 26  1  0  0  0  0
  2 27  1  0  0  0  0
  6 28  1  0  0  0  0
  7 29  1  0  0  0  0
  8 30  1  0  0  0  0
  9 31  1  0  0  0  0
 15 32  1  0  0  0  0
 19 33  1  0  0  0  0
 22 34  1  0  0  0  0
M  END
>  <InChIKey>
InChI=1S/C17H12Br2O3/c1-2-13-15(10-5-3-4-6-14(10)22-13)16(20)9-7-11(18)17(21)12(19)8-9/h3-8,21H,2H2,1H3

>  <CASRN>
3562-84-3

> <Outcome>
0

>  <Index>
3166

>  <StandardizerResult>
Dearomatize (ID: Dearomatize)
Clear Stereo (ID: ClearStereo)
Wedge Clean (ID: WedgeClean)
Mesomerize (ID: Mesomerize)
Tautomerize (ID: Tautomerize)
Aromatize (ID: Aromatize)
Add Explicit Hydrogens (ID: AddExplicitH)
Neutralize (ID: Neutralize)
Clean 2D (ID: Clean2D)

> <knn Distance>
4.0

> <CpId>
3166

$$$$
3173
  Mrv1532301301811342D          

 31 31  0  0  0  0            999 V2000
    1.4491    3.3084    0.0000 C   0  0  0  0  0  0  0  0  0  0  0  0
    1.4491    2.4834    0.0000 C   0  0  0  0  0  0  0  0  0  0  0  0
    2.1636    2.0709    0.0000 C   0  0  0  0  0  0  0  0  0  0  0  0
    0.7347    2.0709    0.0000 N   0  0  0  0  0  0  0  0  0  0  0  0
    0.7347    1.2459    0.0000 C   0  0  0  0  0  0  0  0  0  0  0  0
    1.4491    0.8334    0.0000 N   0  0  0  0  0  0  0  0  0  0  0  0
    1.4491    0.0084    0.0000 C   0  0  0  0  0  0  0  0  0  0  0  0
    2.1636   -0.4041    0.0000 Cl  0  0  0  0  0  0  0  0  0  0  0  0
    0.7347   -0.4041    0.0000 N   0  0  0  0  0  0  0  0  0  0  0  0
    0.0202    0.0084    0.0000 C   0  0  0  0  0  0  0  0  0  0  0  0
   -0.6943   -0.4041    0.0000 N   0  0  0  0  0  0  0  0  0  0  0  0
   -1.4088    0.0084    0.0000 C   0  0  0  0  0  0  0  0  0  0  0  0
   -2.1232   -0.4041    0.0000 C   0  0  0  0  0  0  0  0  0  0  0  0
   -1.4088    0.8334    0.0000 C   0  0  0  0  0  0  0  0  0  0  0  0
    0.0202    0.8334    0.0000 N   0  0  0  0  0  0  0  0  0  0  0  0
    2.2741    3.3084    0.0000 H   0  0  0  0  0  0  0  0  0  0  0  0
    1.4491    4.1334    0.0000 H   0  0  0  0  0  0  0  0  0  0  0  0
    0.6241    3.3084    0.0000 H   0  0  0  0  0  0  0  0  0  0  0  0
    2.1636    2.8959    0.0000 H   0  0  0  0  0  0  0  0  0  0  0  0
    1.5802    1.4875    0.0000 H   0  0  0  0  0  0  0  0  0  0  0  0
    2.5761    1.3564    0.0000 H   0  0  0  0  0  0  0  0  0  0  0  0
    2.9605    2.2844    0.0000 H   0  0  0  0  0  0  0  0  0  0  0  0
    0.0202    2.4834    0.0000 H   0  0  0  0  0  0  0  0  0  0  0  0
   -0.6943   -1.2291    0.0000 H   0  0  0  0  0  0  0  0  0  0  0  0
   -1.4088   -0.8166    0.0000 H   0  0  0  0  0  0  0  0  0  0  0  0
   -2.3367    0.3928    0.0000 H   0  0  0  0  0  0  0  0  0  0  0  0
   -2.9482   -0.4041    0.0000 H   0  0  0  0  0  0  0  0  0  0  0  0
   -2.3367   -1.2010    0.0000 H   0  0  0  0  0  0  0  0  0  0  0  0
   -0.5838    0.8334    0.0000 H   0  0  0  0  0  0  0  0  0  0  0  0
   -1.4088    1.6584    0.0000 H   0  0  0  0  0  0  0  0  0  0  0  0
   -2.2338    0.8334    0.0000 H   0  0  0  0  0  0  0  0  0  0  0  0
  1  2  1  0  0  0  0
  2  3  1  0  0  0  0
  2  4  1  0  0  0  0
  4  5  1  0  0  0  0
  5  6  4  0  0  0  0
  6  7  4  0  0  0  0
  7  8  1  0  0  0  0
  7  9  4  0  0  0  0
  9 10  4  0  0  0  0
 10 11  1  0  0  0  0
 11 12  1  0  0  0  0
 12 13  1  0  0  0  0
 12 14  1  0  0  0  0
 10 15  4  0  0  0  0
  5 15  4  0  0  0  0
  1 16  1  0  0  0  0
  1 17  1  0  0  0  0
  1 18  1  0  0  0  0
  2 19  1  0  0  0  0
  3 20  1  0  0  0  0
  3 21  1  0  0  0  0
  3 22  1  0  0  0  0
  4 23  1  0  0  0  0
 11 24  1  0  0  0  0
 12 25  1  0  0  0  0
 13 26  1  0  0  0  0
 13 27  1  0  0  0  0
 13 28  1  0  0  0  0
 14 29  1  0  0  0  0
 14 30  1  0  0  0  0
 14 31  1  0  0  0  0
M  END
>  <InChIKey>
InChI=1S/C9H16ClN5/c1-5(2)11-8-13-7(10)14-9(15-8)12-6(3)4/h5-6H,1-4H3,(H2,11,12,13,14,15)

>  <CASRN>
139-40-2

> <Outcome>
0

>  <Index>
3173

>  <StandardizerResult>
Dearomatize (ID: Dearomatize)
Clear Stereo (ID: ClearStereo)
Wedge Clean (ID: WedgeClean)
Mesomerize (ID: Mesomerize)
Tautomerize (ID: Tautomerize)
Aromatize (ID: Aromatize)
Add Explicit Hydrogens (ID: AddExplicitH)
Neutralize (ID: Neutralize)
Clean 2D (ID: Clean2D)

> <knn Distance>
4.0

> <CpId>
3173

$$$$
3198
  Mrv1532301301811342D          

 24 24  0  0  0  0            999 V2000
    0.0893    2.4998    0.0000 O   0  0  0  0  0  0  0  0  0  0  0  0
    0.8038    2.0873    0.0000 C   0  0  0  0  0  0  0  0  0  0  0  0
    0.8038    1.2623    0.0000 C   0  0  0  0  0  0  0  0  0  0  0  0
    1.5183    0.8498    0.0000 O   0  0  0  0  0  0  0  0  0  0  0  0
    1.5183    0.0248    0.0000 C   0  0  0  0  0  0  0  0  0  0  0  0
    2.2328   -0.3877    0.0000 O   0  0  0  0  0  0  0  0  0  0  0  0
    0.8038   -0.3877    0.0000 C   0  0  0  0  0  0  0  0  0  0  0  0
    0.8038   -1.2127    0.0000 O   0  0  0  0  0  0  0  0  0  0  0  0
    0.0893    0.0248    0.0000 C   0  0  0  0  0  0  0  0  0  0  0  0
   -0.6251   -0.3877    0.0000 O   0  0  0  0  0  0  0  0  0  0  0  0
    0.0893    0.8498    0.0000 C   0  0  0  0  0  0  0  0  0  0  0  0
   -0.6251    1.2623    0.0000 O   0  0  0  0  0  0  0  0  0  0  0  0
    0.0893    3.3248    0.0000 H   0  0  0  0  0  0  0  0  0  0  0  0
    1.6274    2.1352    0.0000 H   0  0  0  0  0  0  0  0  0  0  0  0
    1.2572    2.7766    0.0000 H   0  0  0  0  0  0  0  0  0  0  0  0
    0.0893    1.6748    0.0000 H   0  0  0  0  0  0  0  0  0  0  0  0
    1.5183   -0.8002    0.0000 H   0  0  0  0  0  0  0  0  0  0  0  0
    3.0578   -0.3877    0.0000 H   0  0  0  0  0  0  0  0  0  0  0  0
    0.0893   -0.8002    0.0000 H   0  0  0  0  0  0  0  0  0  0  0  0
    0.8038   -2.0377    0.0000 H   0  0  0  0  0  0  0  0  0  0  0  0
   -0.6251    0.4373    0.0000 H   0  0  0  0  0  0  0  0  0  0  0  0
   -1.3396   -0.8002    0.0000 H   0  0  0  0  0  0  0  0  0  0  0  0
    0.8038    0.4373    0.0000 H   0  0  0  0  0  0  0  0  0  0  0  0
   -1.3396    1.6748    0.0000 H   0  0  0  0  0  0  0  0  0  0  0  0
  1  2  1  0  0  0  0
  2  3  1  0  0  0  0
  3  4  1  0  0  0  0
  4  5  1  0  0  0  0
  5  6  1  0  0  0  0
  5  7  1  0  0  0  0
  7  8  1  0  0  0  0
  7  9  1  0  0  0  0
  9 10  1  0  0  0  0
  9 11  1  0  0  0  0
  3 11  1  0  0  0  0
 11 12  1  0  0  0  0
  1 13  1  0  0  0  0
  2 14  1  0  0  0  0
  2 15  1  0  0  0  0
  3 16  1  0  0  0  0
  5 17  1  0  0  0  0
  6 18  1  0  0  0  0
  7 19  1  0  0  0  0
  8 20  1  0  0  0  0
  9 21  1  0  0  0  0
 10 22  1  0  0  0  0
 11 23  1  0  0  0  0
 12 24  1  0  0  0  0
M  END
>  <InChIKey>
InChI=1S/C6H12O6/c7-1-2-3(8)4(9)5(10)6(11)12-2/h2-11H,1H2

>  <CASRN>
50-99-7

> <Outcome>
0

>  <Index>
3198

>  <StandardizerResult>
Clear Stereo (ID: ClearStereo)
Wedge Clean (ID: WedgeClean)
Mesomerize (ID: Mesomerize)
Tautomerize (ID: Tautomerize)
Add Explicit Hydrogens (ID: AddExplicitH)
Neutralize (ID: Neutralize)
Clean 2D (ID: Clean2D)

> <knn Distance>
4.0

> <CpId>
3198

$$$$
3201
  Mrv1532301301811342D          

 54 57  0  0  0  0            999 V2000
    2.2700   -2.6110    0.0000 C   0  0  0  0  0  0  0  0  0  0  0  0
    3.0822   -2.4658    0.0000 C   0  0  0  0  0  0  0  0  0  0  0  0
    3.1417   -3.2886    0.0000 O   0  0  0  0  0  0  0  0  0  0  0  0
    2.8528   -1.6733    0.0000 C   0  0  0  0  0  0  0  0  0  0  0  0
    3.5357   -1.2103    0.0000 C   0  0  0  0  0  0  0  0  0  0  0  0
    4.1870   -1.7167    0.0000 C   0  0  0  0  0  0  0  0  0  0  0  0
    4.9991   -1.5714    0.0000 C   0  0  0  0  0  0  0  0  0  0  0  0
    5.2794   -0.7955    0.0000 C   0  0  0  0  0  0  0  0  0  0  0  0
    6.0916   -0.6503    0.0000 C   0  0  0  0  0  0  0  0  0  0  0  0
    6.6234   -1.2810    0.0000 C   0  0  0  0  0  0  0  0  0  0  0  0
    7.4355   -1.1358    0.0000 C   0  0  0  0  0  0  0  0  0  0  0  0
    7.9673   -1.7665    0.0000 C   0  0  0  0  0  0  0  0  0  0  0  0
    8.7794   -1.6213    0.0000 O   0  0  0  0  0  0  0  0  0  0  0  0
    7.6870   -2.5424    0.0000 C   0  0  0  0  0  0  0  0  0  0  0  0
    6.8749   -2.6876    0.0000 C   0  0  0  0  0  0  0  0  0  0  0  0
    6.3431   -2.0569    0.0000 C   0  0  0  0  0  0  0  0  0  0  0  0
    6.0628   -2.8329    0.0000 C   0  0  0  0  0  0  0  0  0  0  0  0
    5.5310   -2.2022    0.0000 C   0  0  0  0  0  0  0  0  0  0  0  0
    5.2507   -2.9781    0.0000 C   0  0  0  0  0  0  0  0  0  0  0  0
    4.4385   -3.1233    0.0000 C   0  0  0  0  0  0  0  0  0  0  0  0
    3.9067   -2.4926    0.0000 C   0  0  0  0  0  0  0  0  0  0  0  0
    3.5468   -3.2350    0.0000 C   0  0  0  0  0  0  0  0  0  0  0  0
    2.1248   -1.7989    0.0000 H   0  0  0  0  0  0  0  0  0  0  0  0
    1.4579   -2.7562    0.0000 H   0  0  0  0  0  0  0  0  0  0  0  0
    2.4153   -3.4231    0.0000 H   0  0  0  0  0  0  0  0  0  0  0  0
    3.2710   -4.1034    0.0000 H   0  0  0  0  0  0  0  0  0  0  0  0
    2.5443   -0.9082    0.0000 H   0  0  0  0  0  0  0  0  0  0  0  0
    2.4152   -2.3726    0.0000 H   0  0  0  0  0  0  0  0  0  0  0  0
    3.9465   -0.4948    0.0000 H   0  0  0  0  0  0  0  0  0  0  0  0
    3.1722   -0.4697    0.0000 H   0  0  0  0  0  0  0  0  0  0  0  0
    4.7188   -2.3474    0.0000 H   0  0  0  0  0  0  0  0  0  0  0  0
    4.4673   -0.9407    0.0000 H   0  0  0  0  0  0  0  0  0  0  0  0
    5.4207    0.0173    0.0000 H   0  0  0  0  0  0  0  0  0  0  0  0
    4.8652   -0.0820    0.0000 H   0  0  0  0  0  0  0  0  0  0  0  0
    6.6985   -0.0915    0.0000 H   0  0  0  0  0  0  0  0  0  0  0  0
    8.0342   -0.5682    0.0000 H   0  0  0  0  0  0  0  0  0  0  0  0
    7.3377   -0.3166    0.0000 H   0  0  0  0  0  0  0  0  0  0  0  0
    8.4991   -2.3972    0.0000 H   0  0  0  0  0  0  0  0  0  0  0  0
    9.4101   -1.0895    0.0000 H   0  0  0  0  0  0  0  0  0  0  0  0
    7.5457   -3.3552    0.0000 H   0  0  0  0  0  0  0  0  0  0  0  0
    8.1012   -3.2559    0.0000 H   0  0  0  0  0  0  0  0  0  0  0  0
    6.6287   -3.4751    0.0000 H   0  0  0  0  0  0  0  0  0  0  0  0
    7.1552   -1.9117    0.0000 H   0  0  0  0  0  0  0  0  0  0  0  0
    5.4350   -3.3681    0.0000 H   0  0  0  0  0  0  0  0  0  0  0  0
    5.7910   -3.6118    0.0000 H   0  0  0  0  0  0  0  0  0  0  0  0
    6.2213   -3.6425    0.0000 H   0  0  0  0  0  0  0  0  0  0  0  0
    5.8113   -1.4262    0.0000 H   0  0  0  0  0  0  0  0  0  0  0  0
    4.6692   -3.5634    0.0000 H   0  0  0  0  0  0  0  0  0  0  0  0
    5.1108   -3.7911    0.0000 H   0  0  0  0  0  0  0  0  0  0  0  0
    3.8449   -3.6962    0.0000 H   0  0  0  0  0  0  0  0  0  0  0  0
    4.3069   -3.9377    0.0000 H   0  0  0  0  0  0  0  0  0  0  0  0
    3.6563   -4.0527    0.0000 H   0  0  0  0  0  0  0  0  0  0  0  0
    2.8032   -2.8777    0.0000 H   0  0  0  0  0  0  0  0  0  0  0  0
    2.9145   -3.7648    0.0000 H   0  0  0  0  0  0  0  0  0  0  0  0
  1  2  1  0  0  0  0
  2  3  1  0  0  0  0
  2  4  1  0  0  0  0
  4  5  1  0  0  0  0
  5  6  1  0  0  0  0
  6  7  1  0  0  0  0
  7  8  1  0  0  0  0
  8  9  1  0  0  0  0
  9 10  2  0  0  0  0
 10 11  1  0  0  0  0
 11 12  1  0  0  0  0
 12 13  1  0  0  0  0
 12 14  1  0  0  0  0
 14 15  1  0  0  0  0
 15 16  1  0  0  0  0
 10 16  1  0  0  0  0
 16 17  1  0  0  0  0
 16 18  1  0  0  0  0
  7 18  1  0  0  0  0
 18 19  1  0  0  0  0
 19 20  1  0  0  0  0
 20 21  1  0  0  0  0
  2 21  1  0  0  0  0
  6 21  1  0  0  0  0
 21 22  1  0  0  0  0
  1 23  1  0  0  0  0
  1 24  1  0  0  0  0
  1 25  1  0  0  0  0
  3 26  1  0  0  0  0
  4 27  1  0  0  0  0
  4 28  1  0  0  0  0
  5 29  1  0  0  0  0
  5 30  1  0  0  0  0
  6 31  1  0  0  0  0
  7 32  1  0  0  0  0
  8 33  1  0  0  0  0
  8 34  1  0  0  0  0
  9 35  1  0  0  0  0
 11 36  1  0  0  0  0
 11 37  1  0  0  0  0
 12 38  1  0  0  0  0
 13 39  1  0  0  0  0
 14 40  1  0  0  0  0
 14 41  1  0  0  0  0
 15 42  1  0  0  0  0
 15 43  1  0  0  0  0
 17 44  1  0  0  0  0
 17 45  1  0  0  0  0
 17 46  1  0  0  0  0
 18 47  1  0  0  0  0
 19 48  1  0  0  0  0
 19 49  1  0  0  0  0
 20 50  1  0  0  0  0
 20 51  1  0  0  0  0
 22 52  1  0  0  0  0
 22 53  1  0  0  0  0
 22 54  1  0  0  0  0
M  END
>  <InChIKey>
InChI=1S/C20H32O2/c1-18-9-6-14(21)12-13(18)4-5-15-16(18)7-10-19(2)17(15)8-11-20(19,3)22/h4,14-17,21-22H,5-12H2,1-3H3

>  <CASRN>
521-10-8

> <Outcome>
0

>  <Index>
3201

>  <StandardizerResult>
Clear Stereo (ID: ClearStereo)
Wedge Clean (ID: WedgeClean)
Mesomerize (ID: Mesomerize)
Tautomerize (ID: Tautomerize)
Add Explicit Hydrogens (ID: AddExplicitH)
Neutralize (ID: Neutralize)
Clean 2D (ID: Clean2D)

> <knn Distance>
4.0

> <CpId>
3201

$$$$
3237
  Mrv1532301301811342D          

 35 37  0  0  0  0            999 V2000
    3.5381   -0.4052    0.0000 Cl  0  0  0  0  0  0  0  0  0  0  0  0
    3.5381   -1.2302    0.0000 C   0  0  0  0  0  0  0  0  0  0  0  0
    4.2526   -1.6427    0.0000 C   0  0  0  0  0  0  0  0  0  0  0  0
    4.2526   -2.4677    0.0000 C   0  0  0  0  0  0  0  0  0  0  0  0
    3.5381   -2.8802    0.0000 C   0  0  0  0  0  0  0  0  0  0  0  0
    2.8236   -2.4677    0.0000 C   0  0  0  0  0  0  0  0  0  0  0  0
    2.8236   -1.6427    0.0000 C   0  0  0  0  0  0  0  0  0  0  0  0
    3.5381   -3.7052    0.0000 C   0  0  0  0  0  0  0  0  0  0  0  0
    4.2526   -4.1177    0.0000 C   0  0  0  0  0  0  0  0  0  0  0  0
    4.2526   -4.9427    0.0000 C   0  0  0  0  0  0  0  0  0  0  0  0
    3.5381   -5.3552    0.0000 C   0  0  0  0  0  0  0  0  0  0  0  0
    2.8236   -4.9427    0.0000 C   0  0  0  0  0  0  0  0  0  0  0  0
    2.8236   -4.1177    0.0000 C   0  0  0  0  0  0  0  0  0  0  0  0
    2.1091   -3.7052    0.0000 N   0  0  0  0  0  0  0  0  0  0  0  0
    1.3947   -4.1177    0.0000 C   0  0  0  0  0  0  0  0  0  0  0  0
    1.3947   -4.9427    0.0000 O   0  0  0  0  0  0  0  0  0  0  0  0
    0.6802   -3.7052    0.0000 C   0  0  0  0  0  0  0  0  0  0  0  0
   -0.0343   -4.1177    0.0000 C   0  0  0  0  0  0  0  0  0  0  0  0
   -0.7487   -3.7052    0.0000 C   0  0  0  0  0  0  0  0  0  0  0  0
   -0.7487   -2.8802    0.0000 C   0  0  0  0  0  0  0  0  0  0  0  0
   -0.0343   -2.4677    0.0000 N   0  0  0  0  0  0  0  0  0  0  0  0
    0.6802   -2.8802    0.0000 C   0  0  0  0  0  0  0  0  0  0  0  0
    1.3947   -2.4677    0.0000 Cl  0  0  0  0  0  0  0  0  0  0  0  0
    4.9670   -1.2302    0.0000 H   0  0  0  0  0  0  0  0  0  0  0  0
    4.9670   -2.8802    0.0000 H   0  0  0  0  0  0  0  0  0  0  0  0
    2.1091   -2.8802    0.0000 H   0  0  0  0  0  0  0  0  0  0  0  0
    2.1091   -1.2302    0.0000 H   0  0  0  0  0  0  0  0  0  0  0  0
    4.9670   -3.7052    0.0000 H   0  0  0  0  0  0  0  0  0  0  0  0
    4.9670   -5.3552    0.0000 H   0  0  0  0  0  0  0  0  0  0  0  0
    3.5381   -6.1802    0.0000 H   0  0  0  0  0  0  0  0  0  0  0  0
    2.1091   -5.3552    0.0000 H   0  0  0  0  0  0  0  0  0  0  0  0
    2.8236   -3.2927    0.0000 H   0  0  0  0  0  0  0  0  0  0  0  0
   -0.0343   -4.9427    0.0000 H   0  0  0  0  0  0  0  0  0  0  0  0
   -1.4632   -4.1177    0.0000 H   0  0  0  0  0  0  0  0  0  0  0  0
   -1.4632   -2.4677    0.0000 H   0  0  0  0  0  0  0  0  0  0  0  0
  1  2  1  0  0  0  0
  2  3  4  0  0  0  0
  3  4  4  0  0  0  0
  4  5  4  0  0  0  0
  5  6  4  0  0  0  0
  6  7  4  0  0  0  0
  2  7  4  0  0  0  0
  5  8  1  0  0  0  0
  8  9  4  0  0  0  0
  9 10  4  0  0  0  0
 10 11  4  0  0  0  0
 11 12  4  0  0  0  0
 12 13  4  0  0  0  0
  8 13  4  0  0  0  0
 13 14  1  0  0  0  0
 14 15  1  0  0  0  0
 15 16  2  0  0  0  0
 15 17  1  0  0  0  0
 17 18  4  0  0  0  0
 18 19  4  0  0  0  0
 19 20  4  0  0  0  0
 20 21  4  0  0  0  0
 21 22  4  0  0  0  0
 17 22  4  0  0  0  0
 22 23  1  0  0  0  0
  3 24  1  0  0  0  0
  4 25  1  0  0  0  0
  6 26  1  0  0  0  0
  7 27  1  0  0  0  0
  9 28  1  0  0  0  0
 10 29  1  0  0  0  0
 11 30  1  0  0  0  0
 12 31  1  0  0  0  0
 14 32  1  0  0  0  0
 18 33  1  0  0  0  0
 19 34  1  0  0  0  0
 20 35  1  0  0  0  0
M  END
>  <InChIKey>
InChI=1S/C18H12Cl2N2O/c19-13-9-7-12(8-10-13)14-4-1-2-6-16(14)22-18(23)15-5-3-11-21-17(15)20/h1-11H,(H,22,23)

>  <CASRN>
188425-85-6

> <Outcome>
0

>  <Index>
3237

>  <StandardizerResult>
Dearomatize (ID: Dearomatize)
Clear Stereo (ID: ClearStereo)
Wedge Clean (ID: WedgeClean)
Mesomerize (ID: Mesomerize)
Tautomerize (ID: Tautomerize)
Aromatize (ID: Aromatize)
Add Explicit Hydrogens (ID: AddExplicitH)
Neutralize (ID: Neutralize)
Clean 2D (ID: Clean2D)

> <knn Distance>
4.0

> <CpId>
3237

$$$$
3335
  Mrv1532301301811342D          

 50 53  0  0  0  0            999 V2000
    2.2680   -2.5832    0.0000 C   0  0  0  0  0  0  0  0  0  0  0  0
    3.0801   -2.4380    0.0000 C   0  0  0  0  0  0  0  0  0  0  0  0
    3.1397   -3.2609    0.0000 O   0  0  0  0  0  0  0  0  0  0  0  0
    2.8508   -1.6455    0.0000 C   0  0  0  0  0  0  0  0  0  0  0  0
    3.5337   -1.1825    0.0000 C   0  0  0  0  0  0  0  0  0  0  0  0
    4.1850   -1.6889    0.0000 C   0  0  0  0  0  0  0  0  0  0  0  0
    4.9971   -1.5437    0.0000 C   0  0  0  0  0  0  0  0  0  0  0  0
    5.2774   -0.7678    0.0000 C   0  0  0  0  0  0  0  0  0  0  0  0
    6.0895   -0.6225    0.0000 C   0  0  0  0  0  0  0  0  0  0  0  0
    6.6213   -1.2533    0.0000 C   0  0  0  0  0  0  0  0  0  0  0  0
    7.4335   -1.1080    0.0000 C   0  0  0  0  0  0  0  0  0  0  0  0
    7.9653   -1.7387    0.0000 C   0  0  0  0  0  0  0  0  0  0  0  0
    8.7774   -1.5935    0.0000 O   0  0  0  0  0  0  0  0  0  0  0  0
    7.6850   -2.5147    0.0000 C   0  0  0  0  0  0  0  0  0  0  0  0
    6.8729   -2.6599    0.0000 C   0  0  0  0  0  0  0  0  0  0  0  0
    6.3411   -2.0292    0.0000 C   0  0  0  0  0  0  0  0  0  0  0  0
    6.0608   -2.8051    0.0000 C   0  0  0  0  0  0  0  0  0  0  0  0
    5.5289   -2.1744    0.0000 C   0  0  0  0  0  0  0  0  0  0  0  0
    5.2486   -2.9503    0.0000 C   0  0  0  0  0  0  0  0  0  0  0  0
    4.4365   -3.0955    0.0000 C   0  0  0  0  0  0  0  0  0  0  0  0
    3.9047   -2.4648    0.0000 C   0  0  0  0  0  0  0  0  0  0  0  0
    3.5448   -3.2072    0.0000 C   0  0  0  0  0  0  0  0  0  0  0  0
    2.1228   -1.7711    0.0000 H   0  0  0  0  0  0  0  0  0  0  0  0
    1.4559   -2.7284    0.0000 H   0  0  0  0  0  0  0  0  0  0  0  0
    2.4132   -3.3954    0.0000 H   0  0  0  0  0  0  0  0  0  0  0  0
    3.2690   -4.0757    0.0000 H   0  0  0  0  0  0  0  0  0  0  0  0
    2.5423   -0.8804    0.0000 H   0  0  0  0  0  0  0  0  0  0  0  0
    2.4132   -2.3449    0.0000 H   0  0  0  0  0  0  0  0  0  0  0  0
    3.9444   -0.4671    0.0000 H   0  0  0  0  0  0  0  0  0  0  0  0
    3.1702   -0.4419    0.0000 H   0  0  0  0  0  0  0  0  0  0  0  0
    4.7168   -2.3196    0.0000 H   0  0  0  0  0  0  0  0  0  0  0  0
    4.4653   -0.9130    0.0000 H   0  0  0  0  0  0  0  0  0  0  0  0
    5.4187    0.0450    0.0000 H   0  0  0  0  0  0  0  0  0  0  0  0
    4.8632   -0.0543    0.0000 H   0  0  0  0  0  0  0  0  0  0  0  0
    6.8540   -0.3124    0.0000 H   0  0  0  0  0  0  0  0  0  0  0  0
    6.4616    0.1138    0.0000 H   0  0  0  0  0  0  0  0  0  0  0  0
    7.7138   -0.3321    0.0000 H   0  0  0  0  0  0  0  0  0  0  0  0
    8.2168   -3.1454    0.0000 H   0  0  0  0  0  0  0  0  0  0  0  0
    7.0181   -3.4720    0.0000 H   0  0  0  0  0  0  0  0  0  0  0  0
    5.5892   -3.4820    0.0000 H   0  0  0  0  0  0  0  0  0  0  0  0
    6.2060   -3.6172    0.0000 H   0  0  0  0  0  0  0  0  0  0  0  0
    6.7377   -3.2767    0.0000 H   0  0  0  0  0  0  0  0  0  0  0  0
    5.8092   -1.3985    0.0000 H   0  0  0  0  0  0  0  0  0  0  0  0
    4.6927   -3.5599    0.0000 H   0  0  0  0  0  0  0  0  0  0  0  0
    5.1787   -3.7723    0.0000 H   0  0  0  0  0  0  0  0  0  0  0  0
    3.8470   -3.6726    0.0000 H   0  0  0  0  0  0  0  0  0  0  0  0
    4.3165   -3.9118    0.0000 H   0  0  0  0  0  0  0  0  0  0  0  0
    3.6551   -4.0248    0.0000 H   0  0  0  0  0  0  0  0  0  0  0  0
    2.8012   -2.8500    0.0000 H   0  0  0  0  0  0  0  0  0  0  0  0
    2.9125   -3.7371    0.0000 H   0  0  0  0  0  0  0  0  0  0  0  0
  1  2  1  0  0  0  0
  2  3  1  0  0  0  0
  2  4  1  0  0  0  0
  4  5  1  0  0  0  0
  5  6  1  0  0  0  0
  6  7  1  0  0  0  0
  7  8  1  0  0  0  0
  8  9  1  0  0  0  0
  9 10  1  0  0  0  0
 10 11  2  0  0  0  0
 11 12  1  0  0  0  0
 12 13  2  0  0  0  0
 12 14  1  0  0  0  0
 14 15  2  0  0  0  0
 15 16  1  0  0  0  0
 10 16  1  0  0  0  0
 16 17  1  0  0  0  0
 16 18  1  0  0  0  0
  7 18  1  0  0  0  0
 18 19  1  0  0  0  0
 19 20  1  0  0  0  0
 20 21  1  0  0  0  0
  2 21  1  0  0  0  0
  6 21  1  0  0  0  0
 21 22  1  0  0  0  0
  1 23  1  0  0  0  0
  1 24  1  0  0  0  0
  1 25  1  0  0  0  0
  3 26  1  0  0  0  0
  4 27  1  0  0  0  0
  4 28  1  0  0  0  0
  5 29  1  0  0  0  0
  5 30  1  0  0  0  0
  6 31  1  0  0  0  0
  7 32  1  0  0  0  0
  8 33  1  0  0  0  0
  8 34  1  0  0  0  0
  9 35  1  0  0  0  0
  9 36  1  0  0  0  0
 11 37  1  0  0  0  0
 14 38  1  0  0  0  0
 15 39  1  0  0  0  0
 17 40  1  0  0  0  0
 17 41  1  0  0  0  0
 17 42  1  0  0  0  0
 18 43  1  0  0  0  0
 19 44  1  0  0  0  0
 19 45  1  0  0  0  0
 20 46  1  0  0  0  0
 20 47  1  0  0  0  0
 22 48  1  0  0  0  0
 22 49  1  0  0  0  0
 22 50  1  0  0  0  0
M  END
>  <InChIKey>
InChI=1S/C20H28O2/c1-18-9-6-14(21)12-13(18)4-5-15-16(18)7-10-19(2)17(15)8-11-20(19,3)22/h6,9,12,15-17,22H,4-5,7-8,10-11H2,1-3H3

>  <CASRN>
72-63-9

> <Outcome>
0

>  <Index>
3335

>  <StandardizerResult>
Clear Stereo (ID: ClearStereo)
Wedge Clean (ID: WedgeClean)
Mesomerize (ID: Mesomerize)
Tautomerize (ID: Tautomerize)
Add Explicit Hydrogens (ID: AddExplicitH)
Neutralize (ID: Neutralize)
Clean 2D (ID: Clean2D)

> <knn Distance>
4.0

> <CpId>
3335

$$$$
3339
  Mrv1532301301811342D          

 57 60  0  0  0  0            999 V2000
    3.5221   -3.2089    0.0000 C   0  0  0  0  0  0  0  0  0  0  0  0
    3.8819   -2.4666    0.0000 C   0  0  0  0  0  0  0  0  0  0  0  0
    4.4138   -3.0973    0.0000 C   0  0  0  0  0  0  0  0  0  0  0  0
    5.2259   -2.9521    0.0000 C   0  0  0  0  0  0  0  0  0  0  0  0
    5.7577   -3.5828    0.0000 O   0  0  0  0  0  0  0  0  0  0  0  0
    5.5062   -2.1761    0.0000 C   0  0  0  0  0  0  0  0  0  0  0  0
    4.9744   -1.5454    0.0000 C   0  0  0  0  0  0  0  0  0  0  0  0
    5.2547   -0.7695    0.0000 C   0  0  0  0  0  0  0  0  0  0  0  0
    6.0668   -0.6243    0.0000 C   0  0  0  0  0  0  0  0  0  0  0  0
    6.5986   -1.2550    0.0000 C   0  0  0  0  0  0  0  0  0  0  0  0
    7.4107   -1.1098    0.0000 C   0  0  0  0  0  0  0  0  0  0  0  0
    7.9425   -1.7405    0.0000 C   0  0  0  0  0  0  0  0  0  0  0  0
    8.7547   -1.5953    0.0000 O   0  0  0  0  0  0  0  0  0  0  0  0
    7.6622   -2.5164    0.0000 C   0  0  0  0  0  0  0  0  0  0  0  0
    6.8501   -2.6616    0.0000 C   0  0  0  0  0  0  0  0  0  0  0  0
    6.3183   -2.0309    0.0000 C   0  0  0  0  0  0  0  0  0  0  0  0
    6.0380   -2.8068    0.0000 C   0  0  0  0  0  0  0  0  0  0  0  0
    4.1622   -1.6906    0.0000 C   0  0  0  0  0  0  0  0  0  0  0  0
    3.5109   -1.1843    0.0000 C   0  0  0  0  0  0  0  0  0  0  0  0
    2.8281   -1.6473    0.0000 C   0  0  0  0  0  0  0  0  0  0  0  0
    3.0574   -2.4398    0.0000 C   0  0  0  0  0  0  0  0  0  0  0  0
    2.5510   -3.0911    0.0000 C   0  0  0  0  0  0  0  0  0  0  0  0
    2.8619   -3.8553    0.0000 O   0  0  0  0  0  0  0  0  0  0  0  0
    1.7338   -2.9782    0.0000 C   0  0  0  0  0  0  0  0  0  0  0  0
    1.2274   -3.6296    0.0000 O   0  0  0  0  0  0  0  0  0  0  0  0
    3.5505   -4.0335    0.0000 H   0  0  0  0  0  0  0  0  0  0  0  0
    4.1499   -3.7441    0.0000 H   0  0  0  0  0  0  0  0  0  0  0  0
    2.7036   -3.1051    0.0000 H   0  0  0  0  0  0  0  0  0  0  0  0
    4.9327   -3.7387    0.0000 H   0  0  0  0  0  0  0  0  0  0  0  0
    4.6941   -2.3214    0.0000 H   0  0  0  0  0  0  0  0  0  0  0  0
    5.7865   -1.4002    0.0000 H   0  0  0  0  0  0  0  0  0  0  0  0
    4.4425   -0.9147    0.0000 H   0  0  0  0  0  0  0  0  0  0  0  0
    5.3960    0.0433    0.0000 H   0  0  0  0  0  0  0  0  0  0  0  0
    4.8404   -0.0560    0.0000 H   0  0  0  0  0  0  0  0  0  0  0  0
    6.8313   -0.3141    0.0000 H   0  0  0  0  0  0  0  0  0  0  0  0
    6.4388    0.1120    0.0000 H   0  0  0  0  0  0  0  0  0  0  0  0
    7.1304   -1.8857    0.0000 H   0  0  0  0  0  0  0  0  0  0  0  0
    8.0094   -0.5422    0.0000 H   0  0  0  0  0  0  0  0  0  0  0  0
    7.3130   -0.2906    0.0000 H   0  0  0  0  0  0  0  0  0  0  0  0
    8.4744   -2.3712    0.0000 H   0  0  0  0  0  0  0  0  0  0  0  0
    9.3854   -1.0635    0.0000 H   0  0  0  0  0  0  0  0  0  0  0  0
    7.5209   -3.3292    0.0000 H   0  0  0  0  0  0  0  0  0  0  0  0
    8.0765   -3.2299    0.0000 H   0  0  0  0  0  0  0  0  0  0  0  0
    6.3400   -3.3100    0.0000 H   0  0  0  0  0  0  0  0  0  0  0  0
    6.9001   -3.4851    0.0000 H   0  0  0  0  0  0  0  0  0  0  0  0
    6.1178   -3.6280    0.0000 H   0  0  0  0  0  0  0  0  0  0  0  0
    5.4073   -3.3387    0.0000 H   0  0  0  0  0  0  0  0  0  0  0  0
    6.7890   -3.1483    0.0000 H   0  0  0  0  0  0  0  0  0  0  0  0
    3.3697   -1.9200    0.0000 H   0  0  0  0  0  0  0  0  0  0  0  0
    3.4657   -0.3605    0.0000 H   0  0  0  0  0  0  0  0  0  0  0  0
    2.9062   -0.6231    0.0000 H   0  0  0  0  0  0  0  0  0  0  0  0
    2.2746   -1.0355    0.0000 H   0  0  0  0  0  0  0  0  0  0  0  0
    2.0114   -1.7641    0.0000 H   0  0  0  0  0  0  0  0  0  0  0  0
    2.2472   -2.2843    0.0000 H   0  0  0  0  0  0  0  0  0  0  0  0
    1.4108   -2.2191    0.0000 H   0  0  0  0  0  0  0  0  0  0  0  0
    0.9157   -2.8719    0.0000 H   0  0  0  0  0  0  0  0  0  0  0  0
    1.1162   -4.4470    0.0000 H   0  0  0  0  0  0  0  0  0  0  0  0
  1  2  1  0  0  0  0
  2  3  1  0  0  0  0
  3  4  1  0  0  0  0
  4  5  2  0  0  0  0
  4  6  1  0  0  0  0
  6  7  1  0  0  0  0
  7  8  1  0  0  0  0
  8  9  1  0  0  0  0
  9 10  1  0  0  0  0
 10 11  1  0  0  0  0
 11 12  1  0  0  0  0
 12 13  1  0  0  0  0
 12 14  1  0  0  0  0
 14 15  1  0  0  0  0
 15 16  1  0  0  0  0
  6 16  1  0  0  0  0
 10 16  1  0  0  0  0
 16 17  1  0  0  0  0
  7 18  1  0  0  0  0
  2 18  1  0  0  0  0
 18 19  1  0  0  0  0
 19 20  1  0  0  0  0
 20 21  1  0  0  0  0
  2 21  1  0  0  0  0
 21 22  1  0  0  0  0
 22 23  2  0  0  0  0
 22 24  1  0  0  0  0
 24 25  1  0  0  0  0
  1 26  1  0  0  0  0
  1 27  1  0  0  0  0
  1 28  1  0  0  0  0
  3 29  1  0  0  0  0
  3 30  1  0  0  0  0
  6 31  1  0  0  0  0
  7 32  1  0  0  0  0
  8 33  1  0  0  0  0
  8 34  1  0  0  0  0
  9 35  1  0  0  0  0
  9 36  1  0  0  0  0
 10 37  1  0  0  0  0
 11 38  1  0  0  0  0
 11 39  1  0  0  0  0
 12 40  1  0  0  0  0
 13 41  1  0  0  0  0
 14 42  1  0  0  0  0
 14 43  1  0  0  0  0
 15 44  1  0  0  0  0
 15 45  1  0  0  0  0
 17 46  1  0  0  0  0
 17 47  1  0  0  0  0
 17 48  1  0  0  0  0
 18 49  1  0  0  0  0
 19 50  1  0  0  0  0
 19 51  1  0  0  0  0
 20 52  1  0  0  0  0
 20 53  1  0  0  0  0
 21 54  1  0  0  0  0
 24 55  1  0  0  0  0
 24 56  1  0  0  0  0
 25 57  1  0  0  0  0
M  END
>  <InChIKey>
InChI=1S/C21H32O4/c1-20-8-7-13(23)9-12(20)3-4-14-15-5-6-16(18(25)11-22)21(15,2)10-17(24)19(14)20/h12-16,19,22-23H,3-11H2,1-2H3

>  <CASRN>
14107-37-0

> <Outcome>
0

>  <Index>
3339

>  <StandardizerResult>
Clear Stereo (ID: ClearStereo)
Wedge Clean (ID: WedgeClean)
Mesomerize (ID: Mesomerize)
Tautomerize (ID: Tautomerize)
Add Explicit Hydrogens (ID: AddExplicitH)
Neutralize (ID: Neutralize)
Clean 2D (ID: Clean2D)

> <knn Distance>
4.0

> <CpId>
3339

$$$$
3423
  Mrv1532301301811342D          

 46 49  0  0  0  0            999 V2000
    1.4293    2.4748    0.0000 C   0  0  0  0  0  0  0  0  0  0  0  0
    0.7148    2.0623    0.0000 C   0  0  0  0  0  0  0  0  0  0  0  0
    0.7148    1.2373    0.0000 O   0  0  0  0  0  0  0  0  0  0  0  0
    0.0003    0.8248    0.0000 C   0  0  0  0  0  0  0  0  0  0  0  0
   -0.7141    1.2373    0.0000 O   0  0  0  0  0  0  0  0  0  0  0  0
    0.0003   -0.0002    0.0000 C   0  0  0  0  0  0  0  0  0  0  0  0
   -0.7141   -0.4127    0.0000 C   0  0  0  0  0  0  0  0  0  0  0  0
   -1.4286   -0.0002    0.0000 C   0  0  0  0  0  0  0  0  0  0  0  0
   -1.4286    0.8248    0.0000 O   0  0  0  0  0  0  0  0  0  0  0  0
   -2.1431   -0.4127    0.0000 C   0  0  0  0  0  0  0  0  0  0  0  0
   -2.8576   -0.0002    0.0000 C   0  0  0  0  0  0  0  0  0  0  0  0
   -3.5720   -0.4127    0.0000 C   0  0  0  0  0  0  0  0  0  0  0  0
   -3.5720   -1.2377    0.0000 C   0  0  0  0  0  0  0  0  0  0  0  0
   -2.8576   -1.6502    0.0000 C   0  0  0  0  0  0  0  0  0  0  0  0
   -2.1431   -1.2377    0.0000 C   0  0  0  0  0  0  0  0  0  0  0  0
   -1.4286   -1.6502    0.0000 O   0  0  0  0  0  0  0  0  0  0  0  0
   -0.7141   -1.2377    0.0000 C   0  0  0  0  0  0  0  0  0  0  0  0
    0.0003   -1.6502    0.0000 O   0  0  0  0  0  0  0  0  0  0  0  0
    0.7148   -0.4127    0.0000 C   0  0  0  0  0  0  0  0  0  0  0  0
    1.4293   -0.0002    0.0000 C   0  0  0  0  0  0  0  0  0  0  0  0
    1.4293    0.8248    0.0000 O   0  0  0  0  0  0  0  0  0  0  0  0
    2.1437   -0.4127    0.0000 C   0  0  0  0  0  0  0  0  0  0  0  0
    2.8582   -0.0002    0.0000 C   0  0  0  0  0  0  0  0  0  0  0  0
    3.5727   -0.4127    0.0000 C   0  0  0  0  0  0  0  0  0  0  0  0
    3.5727   -1.2377    0.0000 C   0  0  0  0  0  0  0  0  0  0  0  0
    2.8582   -1.6502    0.0000 C   0  0  0  0  0  0  0  0  0  0  0  0
    2.1437   -1.2377    0.0000 C   0  0  0  0  0  0  0  0  0  0  0  0
    1.4293   -1.6502    0.0000 O   0  0  0  0  0  0  0  0  0  0  0  0
    0.7148   -1.2377    0.0000 C   0  0  0  0  0  0  0  0  0  0  0  0
    0.3792   -1.9914    0.0000 O   0  0  0  0  0  0  0  0  0  0  0  0
    1.8418    1.7603    0.0000 H   0  0  0  0  0  0  0  0  0  0  0  0
    2.1437    2.8873    0.0000 H   0  0  0  0  0  0  0  0  0  0  0  0
    1.0168    3.1893    0.0000 H   0  0  0  0  0  0  0  0  0  0  0  0
    0.2615    2.7516    0.0000 H   0  0  0  0  0  0  0  0  0  0  0  0
   -0.1088    2.1103    0.0000 H   0  0  0  0  0  0  0  0  0  0  0  0
   -0.7141    0.4123    0.0000 H   0  0  0  0  0  0  0  0  0  0  0  0
   -2.1431    1.2373    0.0000 H   0  0  0  0  0  0  0  0  0  0  0  0
   -2.8576    0.8248    0.0000 H   0  0  0  0  0  0  0  0  0  0  0  0
   -4.2865   -0.0002    0.0000 H   0  0  0  0  0  0  0  0  0  0  0  0
   -4.2865   -1.6502    0.0000 H   0  0  0  0  0  0  0  0  0  0  0  0
   -2.8576   -2.4752    0.0000 H   0  0  0  0  0  0  0  0  0  0  0  0
    2.1437    1.2373    0.0000 H   0  0  0  0  0  0  0  0  0  0  0  0
    2.8582    0.8248    0.0000 H   0  0  0  0  0  0  0  0  0  0  0  0
    4.2872   -0.0002    0.0000 H   0  0  0  0  0  0  0  0  0  0  0  0
    4.2872   -1.6502    0.0000 H   0  0  0  0  0  0  0  0  0  0  0  0
    2.8582   -2.4752    0.0000 H   0  0  0  0  0  0  0  0  0  0  0  0
  1  2  1  0  0  0  0
  2  3  1  0  0  0  0
  3  4  1  0  0  0  0
  4  5  2  0  0  0  0
  4  6  1  0  0  0  0
  6  7  1  0  0  0  0
  7  8  2  0  0  0  0
  8  9  1  0  0  0  0
  8 10  1  0  0  0  0
 10 11  4  0  0  0  0
 11 12  4  0  0  0  0
 12 13  4  0  0  0  0
 13 14  4  0  0  0  0
 14 15  4  0  0  0  0
 10 15  4  0  0  0  0
 15 16  1  0  0  0  0
 16 17  1  0  0  0  0
  7 17  1  0  0  0  0
 17 18  2  0  0  0  0
  6 19  1  0  0  0  0
 19 20  2  0  0  0  0
 20 21  1  0  0  0  0
 20 22  1  0  0  0  0
 22 23  4  0  0  0  0
 23 24  4  0  0  0  0
 24 25  4  0  0  0  0
 25 26  4  0  0  0  0
 26 27  4  0  0  0  0
 22 27  4  0  0  0  0
 27 28  1  0  0  0  0
 28 29  1  0  0  0  0
 19 29  1  0  0  0  0
 29 30  2  0  0  0  0
  1 31  1  0  0  0  0
  1 32  1  0  0  0  0
  1 33  1  0  0  0  0
  2 34  1  0  0  0  0
  2 35  1  0  0  0  0
  6 36  1  0  0  0  0
  9 37  1  0  0  0  0
 11 38  1  0  0  0  0
 12 39  1  0  0  0  0
 13 40  1  0  0  0  0
 14 41  1  0  0  0  0
 21 42  1  0  0  0  0
 23 43  1  0  0  0  0
 24 44  1  0  0  0  0
 25 45  1  0  0  0  0
 26 46  1  0  0  0  0
M  END
>  <InChIKey>
InChI=1S/C22H16O8/c1-2-28-20(25)15(16-18(23)11-7-3-5-9-13(11)29-21(16)26)17-19(24)12-8-4-6-10-14(12)30-22(17)27/h3-10,15,23-24H,2H2,1H3

>  <CASRN>
548-00-5

> <Outcome>
0

>  <Index>
3423

>  <StandardizerResult>
Dearomatize (ID: Dearomatize)
Clear Stereo (ID: ClearStereo)
Wedge Clean (ID: WedgeClean)
Mesomerize (ID: Mesomerize)
Tautomerize (ID: Tautomerize)
Aromatize (ID: Aromatize)
Add Explicit Hydrogens (ID: AddExplicitH)
Neutralize (ID: Neutralize)
Clean 2D (ID: Clean2D)

> <knn Distance>
4.0

> <CpId>
3423

$$$$
3546
  Mrv1532301301811342D          

 40 41  0  0  0  0            999 V2000
   -2.8396   -1.6215    0.0000 C   0  0  0  0  0  0  0  0  0  0  0  0
   -2.1252   -1.2090    0.0000 N   0  0  0  0  0  0  0  0  0  0  0  0
   -2.1252   -0.3840    0.0000 C   0  0  0  0  0  0  0  0  0  0  0  0
   -1.4107   -1.6215    0.0000 C   0  0  0  0  0  0  0  0  0  0  0  0
   -0.6962   -1.2090    0.0000 C   0  0  0  0  0  0  0  0  0  0  0  0
    0.0182   -1.6215    0.0000 O   0  0  0  0  0  0  0  0  0  0  0  0
    0.7327   -1.2090    0.0000 C   0  0  0  0  0  0  0  0  0  0  0  0
    1.4472   -1.6215    0.0000 C   0  0  0  0  0  0  0  0  0  0  0  0
    2.1617   -1.2090    0.0000 C   0  0  0  0  0  0  0  0  0  0  0  0
    2.8761   -1.6215    0.0000 C   0  0  0  0  0  0  0  0  0  0  0  0
    2.8761   -2.4465    0.0000 C   0  0  0  0  0  0  0  0  0  0  0  0
    2.1617   -2.8590    0.0000 C   0  0  0  0  0  0  0  0  0  0  0  0
    1.4472   -2.4465    0.0000 C   0  0  0  0  0  0  0  0  0  0  0  0
    0.7327   -0.3840    0.0000 C   0  0  0  0  0  0  0  0  0  0  0  0
    0.0182    0.0285    0.0000 C   0  0  0  0  0  0  0  0  0  0  0  0
    0.0182    0.8535    0.0000 C   0  0  0  0  0  0  0  0  0  0  0  0
    0.7327    1.2660    0.0000 C   0  0  0  0  0  0  0  0  0  0  0  0
    1.4472    0.8535    0.0000 C   0  0  0  0  0  0  0  0  0  0  0  0
    1.4472    0.0285    0.0000 C   0  0  0  0  0  0  0  0  0  0  0  0
   -3.2521   -0.9071    0.0000 H   0  0  0  0  0  0  0  0  0  0  0  0
   -3.5541   -2.0340    0.0000 H   0  0  0  0  0  0  0  0  0  0  0  0
   -2.4271   -2.3360    0.0000 H   0  0  0  0  0  0  0  0  0  0  0  0
   -1.3002   -0.3840    0.0000 H   0  0  0  0  0  0  0  0  0  0  0  0
   -2.1252    0.4410    0.0000 H   0  0  0  0  0  0  0  0  0  0  0  0
   -2.9502   -0.3840    0.0000 H   0  0  0  0  0  0  0  0  0  0  0  0
   -1.7810   -2.3588    0.0000 H   0  0  0  0  0  0  0  0  0  0  0  0
   -1.0404   -2.3588    0.0000 H   0  0  0  0  0  0  0  0  0  0  0  0
   -0.3260   -0.4718    0.0000 H   0  0  0  0  0  0  0  0  0  0  0  0
   -1.0665   -0.4718    0.0000 H   0  0  0  0  0  0  0  0  0  0  0  0
    0.7327   -2.0340    0.0000 H   0  0  0  0  0  0  0  0  0  0  0  0
    2.1617   -0.3840    0.0000 H   0  0  0  0  0  0  0  0  0  0  0  0
    3.5906   -1.2090    0.0000 H   0  0  0  0  0  0  0  0  0  0  0  0
    3.5906   -2.8590    0.0000 H   0  0  0  0  0  0  0  0  0  0  0  0
    2.1617   -3.6840    0.0000 H   0  0  0  0  0  0  0  0  0  0  0  0
    1.0347   -3.1610    0.0000 H   0  0  0  0  0  0  0  0  0  0  0  0
   -0.7696    0.2733    0.0000 H   0  0  0  0  0  0  0  0  0  0  0  0
   -0.6962    1.2660    0.0000 H   0  0  0  0  0  0  0  0  0  0  0  0
    0.7327    2.0910    0.0000 H   0  0  0  0  0  0  0  0  0  0  0  0
    2.1617    1.2660    0.0000 H   0  0  0  0  0  0  0  0  0  0  0  0
    1.4472   -0.7965    0.0000 H   0  0  0  0  0  0  0  0  0  0  0  0
  1  2  1  0  0  0  0
  2  3  1  0  0  0  0
  2  4  1  0  0  0  0
  4  5  1  0  0  0  0
  5  6  1  0  0  0  0
  6  7  1  0  0  0  0
  7  8  1  0  0  0  0
  8  9  4  0  0  0  0
  9 10  4  0  0  0  0
 10 11  4  0  0  0  0
 11 12  4  0  0  0  0
 12 13  4  0  0  0  0
  8 13  4  0  0  0  0
  7 14  1  0  0  0  0
 14 15  4  0  0  0  0
 15 16  4  0  0  0  0
 16 17  4  0  0  0  0
 17 18  4  0  0  0  0
 18 19  4  0  0  0  0
 14 19  4  0  0  0  0
  1 20  1  0  0  0  0
  1 21  1  0  0  0  0
  1 22  1  0  0  0  0
  3 23  1  0  0  0  0
  3 24  1  0  0  0  0
  3 25  1  0  0  0  0
  4 26  1  0  0  0  0
  4 27  1  0  0  0  0
  5 28  1  0  0  0  0
  5 29  1  0  0  0  0
  7 30  1  0  0  0  0
  9 31  1  0  0  0  0
 10 32  1  0  0  0  0
 11 33  1  0  0  0  0
 12 34  1  0  0  0  0
 13 35  1  0  0  0  0
 15 36  1  0  0  0  0
 16 37  1  0  0  0  0
 17 38  1  0  0  0  0
 18 39  1  0  0  0  0
 19 40  1  0  0  0  0
M  END
>  <InChIKey>
InChI=1S/C17H21NO/c1-18(2)13-14-19-17(15-9-5-3-6-10-15)16-11-7-4-8-12-16/h3-12,17H,13-14H2,1-2H3

>  <CASRN>
58-73-1

> <Outcome>
0

>  <Index>
3546

>  <StandardizerResult>
Dearomatize (ID: Dearomatize)
Clear Stereo (ID: ClearStereo)
Wedge Clean (ID: WedgeClean)
Mesomerize (ID: Mesomerize)
Tautomerize (ID: Tautomerize)
Aromatize (ID: Aromatize)
Add Explicit Hydrogens (ID: AddExplicitH)
Neutralize (ID: Neutralize)
Clean 2D (ID: Clean2D)

> <knn Distance>
4.0

> <CpId>
3546

$$$$
170
  Mrv1532301301811342D          

 43 43  0  0  0  0            999 V2000
   -0.0110   -2.4064    0.0000 C   0  0  0  0  0  0  0  0  0  0  0  0
    0.7035   -2.8189    0.0000 C   0  0  0  0  0  0  0  0  0  0  0  0
    1.4180   -2.4064    0.0000 C   0  0  0  0  0  0  0  0  0  0  0  0
    2.1324   -2.8189    0.0000 C   0  0  0  0  0  0  0  0  0  0  0  0
    2.8469   -2.4064    0.0000 N   0  0  0  0  0  0  0  0  0  0  0  0
    3.5614   -2.8189    0.0000 C   0  0  0  0  0  0  0  0  0  0  0  0
    4.2759   -2.4064    0.0000 C   0  0  0  0  0  0  0  0  0  0  0  0
    4.9903   -2.8189    0.0000 C   0  0  0  0  0  0  0  0  0  0  0  0
    5.2725   -2.0437    0.0000 C   0  0  0  0  0  0  0  0  0  0  0  0
    5.8028   -2.9622    0.0000 C   0  0  0  0  0  0  0  0  0  0  0  0
    4.9903   -3.6439    0.0000 N   0  0  0  0  0  0  0  0  0  0  0  0
    4.2759   -4.0564    0.0000 C   0  0  0  0  0  0  0  0  0  0  0  0
    4.8062   -4.6884    0.0000 C   0  0  0  0  0  0  0  0  0  0  0  0
    3.7456   -4.6884    0.0000 C   0  0  0  0  0  0  0  0  0  0  0  0
    3.5614   -3.6439    0.0000 C   0  0  0  0  0  0  0  0  0  0  0  0
    0.4015   -1.6920    0.0000 H   0  0  0  0  0  0  0  0  0  0  0  0
   -0.7254   -1.9939    0.0000 H   0  0  0  0  0  0  0  0  0  0  0  0
   -0.4235   -3.1209    0.0000 H   0  0  0  0  0  0  0  0  0  0  0  0
    0.3332   -3.5562    0.0000 H   0  0  0  0  0  0  0  0  0  0  0  0
    1.0738   -3.5562    0.0000 H   0  0  0  0  0  0  0  0  0  0  0  0
    1.7882   -1.6692    0.0000 H   0  0  0  0  0  0  0  0  0  0  0  0
    1.0477   -1.6692    0.0000 H   0  0  0  0  0  0  0  0  0  0  0  0
    1.7622   -3.5562    0.0000 H   0  0  0  0  0  0  0  0  0  0  0  0
    2.5027   -3.5562    0.0000 H   0  0  0  0  0  0  0  0  0  0  0  0
    2.8469   -1.5814    0.0000 H   0  0  0  0  0  0  0  0  0  0  0  0
    2.8469   -3.2314    0.0000 H   0  0  0  0  0  0  0  0  0  0  0  0
    4.6461   -1.6692    0.0000 H   0  0  0  0  0  0  0  0  0  0  0  0
    3.9056   -1.6692    0.0000 H   0  0  0  0  0  0  0  0  0  0  0  0
    5.8536   -2.6293    0.0000 H   0  0  0  0  0  0  0  0  0  0  0  0
    6.0499   -1.7675    0.0000 H   0  0  0  0  0  0  0  0  0  0  0  0
    5.3538   -1.2227    0.0000 H   0  0  0  0  0  0  0  0  0  0  0  0
    5.3635   -3.6605    0.0000 H   0  0  0  0  0  0  0  0  0  0  0  0
    6.2837   -3.6325    0.0000 H   0  0  0  0  0  0  0  0  0  0  0  0
    6.6050   -2.7698    0.0000 H   0  0  0  0  0  0  0  0  0  0  0  0
    5.1861   -4.4454    0.0000 H   0  0  0  0  0  0  0  0  0  0  0  0
    4.0118   -4.9110    0.0000 H   0  0  0  0  0  0  0  0  0  0  0  0
    4.6814   -5.5039    0.0000 H   0  0  0  0  0  0  0  0  0  0  0  0
    5.4977   -5.1383    0.0000 H   0  0  0  0  0  0  0  0  0  0  0  0
    3.3643   -3.9568    0.0000 H   0  0  0  0  0  0  0  0  0  0  0  0
    2.9238   -4.7610    0.0000 H   0  0  0  0  0  0  0  0  0  0  0  0
    3.4985   -5.4756    0.0000 H   0  0  0  0  0  0  0  0  0  0  0  0
    4.2759   -3.2314    0.0000 H   0  0  0  0  0  0  0  0  0  0  0  0
    2.7605   -3.8421    0.0000 H   0  0  0  0  0  0  0  0  0  0  0  0
  1  2  1  0  0  0  0
  2  3  1  0  0  0  0
  3  4  1  0  0  0  0
  4  5  1  0  0  0  0
  5  6  1  0  0  0  0
  6  7  1  0  0  0  0
  7  8  1  0  0  0  0
  8  9  1  0  0  0  0
  8 10  1  0  0  0  0
  8 11  1  0  0  0  0
 11 12  1  0  0  0  0
 12 13  1  0  0  0  0
 12 14  1  0  0  0  0
 12 15  1  0  0  0  0
  6 15  1  0  0  0  0
  1 16  1  0  0  0  0
  1 17  1  0  0  0  0
  1 18  1  0  0  0  0
  2 19  1  0  0  0  0
  2 20  1  0  0  0  0
  3 21  1  0  0  0  0
  3 22  1  0  0  0  0
  4 23  1  0  0  0  0
  4 24  1  0  0  0  0
  5 25  1  0  0  0  0
  6 26  1  0  0  0  0
  7 27  1  0  0  0  0
  7 28  1  0  0  0  0
  9 29  1  0  0  0  0
  9 30  1  0  0  0  0
  9 31  1  0  0  0  0
 10 32  1  0  0  0  0
 10 33  1  0  0  0  0
 10 34  1  0  0  0  0
 11 35  1  0  0  0  0
 13 36  1  0  0  0  0
 13 37  1  0  0  0  0
 13 38  1  0  0  0  0
 14 39  1  0  0  0  0
 14 40  1  0  0  0  0
 14 41  1  0  0  0  0
 15 42  1  0  0  0  0
 15 43  1  0  0  0  0
M  END
>  <InChIKey>
FDAKZQLBIFPGSV-UHFFFAOYSA-N

>  <UN GHS>
Non-irritant

>  <CASRN>
36177-92-1

> <Outcome>
0

>  <Index>
170

>  <StandardizerResult>
Clear Stereo (ID: ClearStereo)
Wedge Clean (ID: WedgeClean)
Mesomerize (ID: Mesomerize)
Tautomerize (ID: Tautomerize)
Add Explicit Hydrogens (ID: AddExplicitH)
Neutralize (ID: Neutralize)
Clean 2D (ID: Clean2D)

> <knn Distance>
4.12310552597046

> <CpId>
170

$$$$
206
  Mrv1532301301811342D          

 66 68  0  0  0  0            999 V2000
   -1.4808   -2.3990    0.0000 O   0  0  0  0  0  0  0  0  0  0  0  0
   -2.1953   -2.8115    0.0000 C   0  0  0  0  0  0  0  0  0  0  0  0
   -2.1953   -3.6365    0.0000 C   0  0  0  0  0  0  0  0  0  0  0  0
   -2.9097   -4.0490    0.0000 O   0  0  0  0  0  0  0  0  0  0  0  0
   -2.9097   -4.8740    0.0000 C   0  0  0  0  0  0  0  0  0  0  0  0
   -3.6242   -5.2865    0.0000 O   0  0  0  0  0  0  0  0  0  0  0  0
   -4.3387   -4.8740    0.0000 C   0  0  0  0  0  0  0  0  0  0  0  0
   -4.3387   -4.0490    0.0000 C   0  0  0  0  0  0  0  0  0  0  0  0
   -3.6242   -3.6365    0.0000 O   0  0  0  0  0  0  0  0  0  0  0  0
   -5.0532   -3.6365    0.0000 C   0  0  0  0  0  0  0  0  0  0  0  0
   -5.0532   -2.8115    0.0000 O   0  0  0  0  0  0  0  0  0  0  0  0
   -5.7676   -4.0490    0.0000 C   0  0  0  0  0  0  0  0  0  0  0  0
   -6.4821   -3.6365    0.0000 O   0  0  0  0  0  0  0  0  0  0  0  0
   -7.1966   -4.0490    0.0000 C   0  0  0  0  0  0  0  0  0  0  0  0
   -7.1966   -4.8740    0.0000 C   0  0  0  0  0  0  0  0  0  0  0  0
   -6.4821   -5.2865    0.0000 O   0  0  0  0  0  0  0  0  0  0  0  0
   -7.9110   -5.2865    0.0000 C   0  0  0  0  0  0  0  0  0  0  0  0
   -7.9110   -6.1115    0.0000 O   0  0  0  0  0  0  0  0  0  0  0  0
   -8.6255   -4.8740    0.0000 C   0  0  0  0  0  0  0  0  0  0  0  0
   -9.3400   -5.2865    0.0000 O   0  0  0  0  0  0  0  0  0  0  0  0
   -8.6255   -4.0490    0.0000 O   0  0  0  0  0  0  0  0  0  0  0  0
   -7.9110   -3.6365    0.0000 C   0  0  0  0  0  0  0  0  0  0  0  0
   -7.9110   -2.8115    0.0000 C   0  0  0  0  0  0  0  0  0  0  0  0
   -7.1966   -2.3990    0.0000 O   0  0  0  0  0  0  0  0  0  0  0  0
   -5.7676   -4.8740    0.0000 O   0  0  0  0  0  0  0  0  0  0  0  0
   -5.0532   -5.2865    0.0000 C   0  0  0  0  0  0  0  0  0  0  0  0
   -5.0532   -6.1115    0.0000 C   0  0  0  0  0  0  0  0  0  0  0  0
   -4.3387   -6.5240    0.0000 O   0  0  0  0  0  0  0  0  0  0  0  0
   -2.1953   -5.2865    0.0000 C   0  0  0  0  0  0  0  0  0  0  0  0
   -2.1953   -6.1115    0.0000 O   0  0  0  0  0  0  0  0  0  0  0  0
   -1.4808   -4.8740    0.0000 C   0  0  0  0  0  0  0  0  0  0  0  0
   -0.7663   -5.2865    0.0000 O   0  0  0  0  0  0  0  0  0  0  0  0
   -1.4808   -4.0490    0.0000 C   0  0  0  0  0  0  0  0  0  0  0  0
   -0.7663   -3.6365    0.0000 O   0  0  0  0  0  0  0  0  0  0  0  0
   -0.7663   -2.8115    0.0000 H   0  0  0  0  0  0  0  0  0  0  0  0
   -2.6486   -2.1222    0.0000 H   0  0  0  0  0  0  0  0  0  0  0  0
   -3.0189   -2.7635    0.0000 H   0  0  0  0  0  0  0  0  0  0  0  0
   -1.4808   -3.2240    0.0000 H   0  0  0  0  0  0  0  0  0  0  0  0
   -2.9097   -5.6990    0.0000 H   0  0  0  0  0  0  0  0  0  0  0  0
   -4.3387   -5.6990    0.0000 H   0  0  0  0  0  0  0  0  0  0  0  0
   -3.6242   -4.4615    0.0000 H   0  0  0  0  0  0  0  0  0  0  0  0
   -3.6242   -2.8115    0.0000 H   0  0  0  0  0  0  0  0  0  0  0  0
   -5.7676   -3.2240    0.0000 H   0  0  0  0  0  0  0  0  0  0  0  0
   -4.6407   -2.0970    0.0000 H   0  0  0  0  0  0  0  0  0  0  0  0
   -6.4821   -4.4615    0.0000 H   0  0  0  0  0  0  0  0  0  0  0  0
   -7.1966   -3.2240    0.0000 H   0  0  0  0  0  0  0  0  0  0  0  0
   -7.1966   -5.6990    0.0000 H   0  0  0  0  0  0  0  0  0  0  0  0
   -6.0696   -6.0010    0.0000 H   0  0  0  0  0  0  0  0  0  0  0  0
   -8.6255   -5.6990    0.0000 H   0  0  0  0  0  0  0  0  0  0  0  0
   -7.9110   -6.9365    0.0000 H   0  0  0  0  0  0  0  0  0  0  0  0
   -9.3400   -4.4615    0.0000 H   0  0  0  0  0  0  0  0  0  0  0  0
  -10.0545   -5.6990    0.0000 H   0  0  0  0  0  0  0  0  0  0  0  0
   -7.9110   -4.4615    0.0000 H   0  0  0  0  0  0  0  0  0  0  0  0
   -8.3644   -2.1222    0.0000 H   0  0  0  0  0  0  0  0  0  0  0  0
   -8.7346   -2.7635    0.0000 H   0  0  0  0  0  0  0  0  0  0  0  0
   -6.7841   -1.6845    0.0000 H   0  0  0  0  0  0  0  0  0  0  0  0
   -5.7676   -5.6990    0.0000 H   0  0  0  0  0  0  0  0  0  0  0  0
   -5.6851   -6.6418    0.0000 H   0  0  0  0  0  0  0  0  0  0  0  0
   -5.1964   -6.9240    0.0000 H   0  0  0  0  0  0  0  0  0  0  0  0
   -3.6429   -6.9673    0.0000 H   0  0  0  0  0  0  0  0  0  0  0  0
   -1.4808   -5.6990    0.0000 H   0  0  0  0  0  0  0  0  0  0  0  0
   -2.1953   -6.9365    0.0000 H   0  0  0  0  0  0  0  0  0  0  0  0
   -0.7663   -4.4615    0.0000 H   0  0  0  0  0  0  0  0  0  0  0  0
   -0.0519   -5.6990    0.0000 H   0  0  0  0  0  0  0  0  0  0  0  0
   -2.1953   -4.4615    0.0000 H   0  0  0  0  0  0  0  0  0  0  0  0
    0.0587   -3.6365    0.0000 H   0  0  0  0  0  0  0  0  0  0  0  0
  1  2  1  0  0  0  0
  2  3  1  0  0  0  0
  3  4  1  0  0  0  0
  4  5  1  0  0  0  0
  5  6  1  0  0  0  0
  6  7  1  0  0  0  0
  7  8  1  0  0  0  0
  8  9  1  0  0  0  0
  8 10  1  0  0  0  0
 10 11  1  0  0  0  0
 10 12  1  0  0  0  0
 12 13  1  0  0  0  0
 13 14  1  0  0  0  0
 14 15  1  0  0  0  0
 15 16  1  0  0  0  0
 15 17  1  0  0  0  0
 17 18  1  0  0  0  0
 17 19  1  0  0  0  0
 19 20  1  0  0  0  0
 19 21  1  0  0  0  0
 21 22  1  0  0  0  0
 14 22  1  0  0  0  0
 22 23  1  0  0  0  0
 23 24  1  0  0  0  0
 12 25  1  0  0  0  0
 25 26  1  0  0  0  0
  7 26  1  0  0  0  0
 26 27  1  0  0  0  0
 27 28  1  0  0  0  0
  5 29  1  0  0  0  0
 29 30  1  0  0  0  0
 29 31  1  0  0  0  0
 31 32  1  0  0  0  0
 31 33  1  0  0  0  0
  3 33  1  0  0  0  0
 33 34  1  0  0  0  0
  1 35  1  0  0  0  0
  2 36  1  0  0  0  0
  2 37  1  0  0  0  0
  3 38  1  0  0  0  0
  5 39  1  0  0  0  0
  7 40  1  0  0  0  0
  8 41  1  0  0  0  0
  9 42  1  0  0  0  0
 10 43  1  0  0  0  0
 11 44  1  0  0  0  0
 12 45  1  0  0  0  0
 14 46  1  0  0  0  0
 15 47  1  0  0  0  0
 16 48  1  0  0  0  0
 17 49  1  0  0  0  0
 18 50  1  0  0  0  0
 19 51  1  0  0  0  0
 20 52  1  0  0  0  0
 22 53  1  0  0  0  0
 23 54  1  0  0  0  0
 23 55  1  0  0  0  0
 24 56  1  0  0  0  0
 26 57  1  0  0  0  0
 27 58  1  0  0  0  0
 27 59  1  0  0  0  0
 28 60  1  0  0  0  0
 29 61  1  0  0  0  0
 30 62  1  0  0  0  0
 31 63  1  0  0  0  0
 32 64  1  0  0  0  0
 33 65  1  0  0  0  0
 34 66  1  0  0  0  0
M  END
>  <InChIKey>
FYGDTMLNYKFZSV-CSHPIKHBSA-N

>  <UN GHS>
Non-irritant

>  <CASRN>
9012-54-8

> <Outcome>
0

>  <Index>
206

>  <StandardizerResult>
Clear Stereo (ID: ClearStereo)
Wedge Clean (ID: WedgeClean)
Mesomerize (ID: Mesomerize)
Tautomerize (ID: Tautomerize)
Add Explicit Hydrogens (ID: AddExplicitH)
Neutralize (ID: Neutralize)
Clean 2D (ID: Clean2D)

> <knn Distance>
4.12310552597046

> <CpId>
206

$$$$
214
  Mrv1532301301811342D          

168176  0  0  0  0            999 V2000
   14.1707    2.2438    0.0000 O   0  0  0  0  0  0  0  0  0  0  0  0
   14.8223    1.7378    0.0000 C   0  0  0  0  0  0  0  0  0  0  0  0
   15.5863    2.0492    0.0000 C   0  0  0  0  0  0  0  0  0  0  0  0
   16.2353    1.5342    0.0000 O   0  0  0  0  0  0  0  0  0  0  0  0
   17.0242    1.8191    0.0000 C   0  0  0  0  0  0  0  0  0  0  0  0
   17.4096    1.0556    0.0000 O   0  0  0  0  0  0  0  0  0  0  0  0
   17.5025    0.2031    0.0000 C   0  0  0  0  0  0  0  0  0  0  0  0
   16.8386   -0.3114    0.0000 C   0  0  0  0  0  0  0  0  0  0  0  0
   16.0782    0.0087    0.0000 C   0  0  0  0  0  0  0  0  0  0  0  0
   15.4208   -0.4898    0.0000 O   0  0  0  0  0  0  0  0  0  0  0  0
   16.9333   -1.1344    0.0000 O   0  0  0  0  0  0  0  0  0  0  0  0
   17.6926   -1.4908    0.0000 C   0  0  0  0  0  0  0  0  0  0  0  0
   17.4253   -2.3033    0.0000 O   0  0  0  0  0  0  0  0  0  0  0  0
   16.8881   -2.9717    0.0000 C   0  0  0  0  0  0  0  0  0  0  0  0
   16.0548   -2.8661    0.0000 C   0  0  0  0  0  0  0  0  0  0  0  0
   15.7435   -2.1021    0.0000 C   0  0  0  0  0  0  0  0  0  0  0  0
   14.9262   -1.9897    0.0000 O   0  0  0  0  0  0  0  0  0  0  0  0
   15.5399   -3.5150    0.0000 O   0  0  0  0  0  0  0  0  0  0  0  0
   15.8248   -4.3039    0.0000 C   0  0  0  0  0  0  0  0  0  0  0  0
   15.0612   -4.6894    0.0000 O   0  0  0  0  0  0  0  0  0  0  0  0
   14.2088   -4.7822    0.0000 C   0  0  0  0  0  0  0  0  0  0  0  0
   13.8601   -5.5484    0.0000 C   0  0  0  0  0  0  0  0  0  0  0  0
   14.3457   -6.2153    0.0000 C   0  0  0  0  0  0  0  0  0  0  0  0
   14.0110   -6.9693    0.0000 O   0  0  0  0  0  0  0  0  0  0  0  0
   13.0285   -5.6445    0.0000 O   0  0  0  0  0  0  0  0  0  0  0  0
   12.5149   -4.9723    0.0000 C   0  0  0  0  0  0  0  0  0  0  0  0
   11.7024   -4.7050    0.0000 O   0  0  0  0  0  0  0  0  0  0  0  0
   11.0340   -4.1679    0.0000 C   0  0  0  0  0  0  0  0  0  0  0  0
   10.2457   -4.4631    0.0000 C   0  0  0  0  0  0  0  0  0  0  0  0
   10.1175   -5.2781    0.0000 C   0  0  0  0  0  0  0  0  0  0  0  0
   10.7592   -5.7966    0.0000 O   0  0  0  0  0  0  0  0  0  0  0  0
    9.5897   -3.9430    0.0000 O   0  0  0  0  0  0  0  0  0  0  0  0
    9.7018   -3.1045    0.0000 C   0  0  0  0  0  0  0  0  0  0  0  0
    9.3163   -2.3410    0.0000 O   0  0  0  0  0  0  0  0  0  0  0  0
    9.2235   -1.4886    0.0000 C   0  0  0  0  0  0  0  0  0  0  0  0
    8.4573   -1.1399    0.0000 C   0  0  0  0  0  0  0  0  0  0  0  0
    7.7904   -1.6255    0.0000 C   0  0  0  0  0  0  0  0  0  0  0  0
    7.0364   -1.2907    0.0000 O   0  0  0  0  0  0  0  0  0  0  0  0
    8.3612   -0.3082    0.0000 O   0  0  0  0  0  0  0  0  0  0  0  0
    9.0333    0.2054    0.0000 C   0  0  0  0  0  0  0  0  0  0  0  0
    9.3007    1.0179    0.0000 O   0  0  0  0  0  0  0  0  0  0  0  0
    9.8378    1.6862    0.0000 C   0  0  0  0  0  0  0  0  0  0  0  0
   10.6711    1.5806    0.0000 C   0  0  0  0  0  0  0  0  0  0  0  0
   10.9824    0.8166    0.0000 C   0  0  0  0  0  0  0  0  0  0  0  0
   11.7997    0.7043    0.0000 O   0  0  0  0  0  0  0  0  0  0  0  0
   11.1861    2.2296    0.0000 O   0  0  0  0  0  0  0  0  0  0  0  0
   10.9012    3.0185    0.0000 C   0  0  0  0  0  0  0  0  0  0  0  0
   11.6647    3.4040    0.0000 O   0  0  0  0  0  0  0  0  0  0  0  0
   12.5171    3.4968    0.0000 C   0  0  0  0  0  0  0  0  0  0  0  0
   13.0317    2.8329    0.0000 C   0  0  0  0  0  0  0  0  0  0  0  0
   12.7116    2.0725    0.0000 C   0  0  0  0  0  0  0  0  0  0  0  0
   13.2101    1.4151    0.0000 O   0  0  0  0  0  0  0  0  0  0  0  0
   13.8547    2.9276    0.0000 O   0  0  0  0  0  0  0  0  0  0  0  0
   14.2111    3.6869    0.0000 C   0  0  0  0  0  0  0  0  0  0  0  0
   15.0235    3.4196    0.0000 O   0  0  0  0  0  0  0  0  0  0  0  0
   15.6919    2.8825    0.0000 C   0  0  0  0  0  0  0  0  0  0  0  0
   16.4803    3.1777    0.0000 C   0  0  0  0  0  0  0  0  0  0  0  0
   16.6085    3.9926    0.0000 O   0  0  0  0  0  0  0  0  0  0  0  0
   17.1363    2.6576    0.0000 C   0  0  0  0  0  0  0  0  0  0  0  0
   17.9013    2.9664    0.0000 O   0  0  0  0  0  0  0  0  0  0  0  0
   13.6975    4.3591    0.0000 C   0  0  0  0  0  0  0  0  0  0  0  0
   14.0200    5.1184    0.0000 O   0  0  0  0  0  0  0  0  0  0  0  0
   12.8658    4.2630    0.0000 C   0  0  0  0  0  0  0  0  0  0  0  0
   12.3802    4.9299    0.0000 O   0  0  0  0  0  0  0  0  0  0  0  0
   10.0627    3.1306    0.0000 C   0  0  0  0  0  0  0  0  0  0  0  0
    9.7538    3.8956    0.0000 O   0  0  0  0  0  0  0  0  0  0  0  0
    9.5426    2.4746    0.0000 C   0  0  0  0  0  0  0  0  0  0  0  0
    8.7276    2.6028    0.0000 O   0  0  0  0  0  0  0  0  0  0  0  0
    9.7927   -0.1510    0.0000 C   0  0  0  0  0  0  0  0  0  0  0  0
   10.4625    0.3306    0.0000 O   0  0  0  0  0  0  0  0  0  0  0  0
    9.8874   -0.9740    0.0000 C   0  0  0  0  0  0  0  0  0  0  0  0
   10.6478   -1.2941    0.0000 O   0  0  0  0  0  0  0  0  0  0  0  0
   10.4907   -2.8196    0.0000 C   0  0  0  0  0  0  0  0  0  0  0  0
   10.6238   -2.0054    0.0000 O   0  0  0  0  0  0  0  0  0  0  0  0
   11.1396   -3.3346    0.0000 C   0  0  0  0  0  0  0  0  0  0  0  0
   11.9036   -3.0232    0.0000 O   0  0  0  0  0  0  0  0  0  0  0  0
   12.8712   -4.2130    0.0000 C   0  0  0  0  0  0  0  0  0  0  0  0
   12.3897   -3.5431    0.0000 O   0  0  0  0  0  0  0  0  0  0  0  0
   13.6943   -4.1183    0.0000 C   0  0  0  0  0  0  0  0  0  0  0  0
   14.0143   -3.3579    0.0000 O   0  0  0  0  0  0  0  0  0  0  0  0
   16.6632   -4.4160    0.0000 C   0  0  0  0  0  0  0  0  0  0  0  0
   16.9721   -5.1810    0.0000 O   0  0  0  0  0  0  0  0  0  0  0  0
   17.1833   -3.7600    0.0000 C   0  0  0  0  0  0  0  0  0  0  0  0
   17.9983   -3.8882    0.0000 O   0  0  0  0  0  0  0  0  0  0  0  0
   18.3647   -0.9772    0.0000 C   0  0  0  0  0  0  0  0  0  0  0  0
   19.1241   -1.2997    0.0000 O   0  0  0  0  0  0  0  0  0  0  0  0
   18.2686   -0.1456    0.0000 C   0  0  0  0  0  0  0  0  0  0  0  0
   18.9356    0.3401    0.0000 O   0  0  0  0  0  0  0  0  0  0  0  0
   13.5249    1.7304    0.0000 H   0  0  0  0  0  0  0  0  0  0  0  0
   14.3551    1.0579    0.0000 H   0  0  0  0  0  0  0  0  0  0  0  0
   15.0887    0.9570    0.0000 H   0  0  0  0  0  0  0  0  0  0  0  0
   14.9320    2.5517    0.0000 H   0  0  0  0  0  0  0  0  0  0  0  0
   17.8377    1.9565    0.0000 H   0  0  0  0  0  0  0  0  0  0  0  0
   18.1710    0.6866    0.0000 H   0  0  0  0  0  0  0  0  0  0  0  0
   16.7312    0.5066    0.0000 H   0  0  0  0  0  0  0  0  0  0  0  0
   15.9737    0.8270    0.0000 H   0  0  0  0  0  0  0  0  0  0  0  0
   15.3175    0.3281    0.0000 H   0  0  0  0  0  0  0  0  0  0  0  0
   15.1009   -1.2503    0.0000 H   0  0  0  0  0  0  0  0  0  0  0  0
   18.3650   -1.9689    0.0000 H   0  0  0  0  0  0  0  0  0  0  0  0
   17.7027   -3.1025    0.0000 H   0  0  0  0  0  0  0  0  0  0  0  0
   16.5574   -2.2118    0.0000 H   0  0  0  0  0  0  0  0  0  0  0  0
   16.2483   -1.4495    0.0000 H   0  0  0  0  0  0  0  0  0  0  0  0
   15.4315   -1.3383    0.0000 H   0  0  0  0  0  0  0  0  0  0  0  0
   14.2458   -2.4563    0.0000 H   0  0  0  0  0  0  0  0  0  0  0  0
   15.9622   -5.1174    0.0000 H   0  0  0  0  0  0  0  0  0  0  0  0
   14.5312   -4.0228    0.0000 H   0  0  0  0  0  0  0  0  0  0  0  0
   14.6809   -5.4651    0.0000 H   0  0  0  0  0  0  0  0  0  0  0  0
   14.8308   -6.8826    0.0000 H   0  0  0  0  0  0  0  0  0  0  0  0
   15.1663   -6.1295    0.0000 H   0  0  0  0  0  0  0  0  0  0  0  0
   13.3439   -7.4548    0.0000 H   0  0  0  0  0  0  0  0  0  0  0  0
   12.0368   -5.6447    0.0000 H   0  0  0  0  0  0  0  0  0  0  0  0
   11.7990   -3.8589    0.0000 H   0  0  0  0  0  0  0  0  0  0  0  0
   10.8850   -4.9846    0.0000 H   0  0  0  0  0  0  0  0  0  0  0  0
    9.2964   -5.1975    0.0000 H   0  0  0  0  0  0  0  0  0  0  0  0
    9.5625   -5.8885    0.0000 H   0  0  0  0  0  0  0  0  0  0  0  0
   11.0565   -6.5661    0.0000 H   0  0  0  0  0  0  0  0  0  0  0  0
    8.8883   -3.2419    0.0000 H   0  0  0  0  0  0  0  0  0  0  0  0
    9.9829   -1.8110    0.0000 H   0  0  0  0  0  0  0  0  0  0  0  0
    8.5406   -1.9606    0.0000 H   0  0  0  0  0  0  0  0  0  0  0  0
    7.1231   -2.1106    0.0000 H   0  0  0  0  0  0  0  0  0  0  0  0
    7.8762   -2.4460    0.0000 H   0  0  0  0  0  0  0  0  0  0  0  0
    6.5509   -0.6237    0.0000 H   0  0  0  0  0  0  0  0  0  0  0  0
    8.3610    0.6835    0.0000 H   0  0  0  0  0  0  0  0  0  0  0  0
    9.0233    1.8171    0.0000 H   0  0  0  0  0  0  0  0  0  0  0  0
   10.1686    0.9263    0.0000 H   0  0  0  0  0  0  0  0  0  0  0  0
   11.2322    0.0304    0.0000 H   0  0  0  0  0  0  0  0  0  0  0  0
   11.4884    1.4683    0.0000 H   0  0  0  0  0  0  0  0  0  0  0  0
   12.6147    0.5757    0.0000 H   0  0  0  0  0  0  0  0  0  0  0  0
   10.7638    3.8320    0.0000 H   0  0  0  0  0  0  0  0  0  0  0  0
   12.0337    4.1653    0.0000 H   0  0  0  0  0  0  0  0  0  0  0  0
   12.2137    2.7256    0.0000 H   0  0  0  0  0  0  0  0  0  0  0  0
   11.8932    1.9681    0.0000 H   0  0  0  0  0  0  0  0  0  0  0  0
   12.3922    1.3118    0.0000 H   0  0  0  0  0  0  0  0  0  0  0  0
   13.5732    0.6743    0.0000 H   0  0  0  0  0  0  0  0  0  0  0  0
   14.6891    4.3593    0.0000 H   0  0  0  0  0  0  0  0  0  0  0  0
   15.8228    3.6970    0.0000 H   0  0  0  0  0  0  0  0  0  0  0  0
   16.3521    2.3627    0.0000 H   0  0  0  0  0  0  0  0  0  0  0  0
   17.1294    4.6323    0.0000 H   0  0  0  0  0  0  0  0  0  0  0  0
   17.2541    3.4741    0.0000 H   0  0  0  0  0  0  0  0  0  0  0  0
   18.7181    2.8508    0.0000 H   0  0  0  0  0  0  0  0  0  0  0  0
   13.2034    5.0197    0.0000 H   0  0  0  0  0  0  0  0  0  0  0  0
   14.6794    5.6142    0.0000 H   0  0  0  0  0  0  0  0  0  0  0  0
   13.3514    3.5960    0.0000 H   0  0  0  0  0  0  0  0  0  0  0  0
   11.8962    5.5980    0.0000 H   0  0  0  0  0  0  0  0  0  0  0  0
    9.2462    3.2484    0.0000 H   0  0  0  0  0  0  0  0  0  0  0  0
    9.8695    4.7124    0.0000 H   0  0  0  0  0  0  0  0  0  0  0  0
   10.3576    2.3464    0.0000 H   0  0  0  0  0  0  0  0  0  0  0  0
    7.9130    2.7329    0.0000 H   0  0  0  0  0  0  0  0  0  0  0  0
   10.5472   -0.4847    0.0000 H   0  0  0  0  0  0  0  0  0  0  0  0
    9.6621    0.5303    0.0000 H   0  0  0  0  0  0  0  0  0  0  0  0
    9.1270   -0.6539    0.0000 H   0  0  0  0  0  0  0  0  0  0  0  0
   11.4719   -1.2569    0.0000 H   0  0  0  0  0  0  0  0  0  0  0  0
   11.2602   -2.5221    0.0000 H   0  0  0  0  0  0  0  0  0  0  0  0
   11.3746   -1.6633    0.0000 H   0  0  0  0  0  0  0  0  0  0  0  0
   10.3756   -3.6459    0.0000 H   0  0  0  0  0  0  0  0  0  0  0  0
   12.4601   -2.4142    0.0000 H   0  0  0  0  0  0  0  0  0  0  0  0
   13.2050   -3.4585    0.0000 H   0  0  0  0  0  0  0  0  0  0  0  0
   12.6786   -2.7704    0.0000 H   0  0  0  0  0  0  0  0  0  0  0  0
   13.3742   -4.8787    0.0000 H   0  0  0  0  0  0  0  0  0  0  0  0
   14.8221   -3.1902    0.0000 H   0  0  0  0  0  0  0  0  0  0  0  0
   17.4798   -4.5338    0.0000 H   0  0  0  0  0  0  0  0  0  0  0  0
   16.8564   -5.9978    0.0000 H   0  0  0  0  0  0  0  0  0  0  0  0
   16.3684   -3.6318    0.0000 H   0  0  0  0  0  0  0  0  0  0  0  0
   18.8130   -4.0183    0.0000 H   0  0  0  0  0  0  0  0  0  0  0  0
   19.0254   -0.4831    0.0000 H   0  0  0  0  0  0  0  0  0  0  0  0
   19.6199   -1.9591    0.0000 H   0  0  0  0  0  0  0  0  0  0  0  0
   17.6017   -0.6312    0.0000 H   0  0  0  0  0  0  0  0  0  0  0  0
   19.6036    0.8241    0.0000 H   0  0  0  0  0  0  0  0  0  0  0  0
  1  2  1  0  0  0  0
  2  3  1  0  0  0  0
  3  4  1  0  0  0  0
  4  5  1  0  0  0  0
  5  6  1  0  0  0  0
  6  7  1  0  0  0  0
  7  8  1  0  0  0  0
  8  9  1  0  0  0  0
  9 10  1  0  0  0  0
  8 11  1  0  0  0  0
 11 12  1  0  0  0  0
 12 13  1  0  0  0  0
 13 14  1  0  0  0  0
 14 15  1  0  0  0  0
 15 16  1  0  0  0  0
 16 17  1  0  0  0  0
 15 18  1  0  0  0  0
 18 19  1  0  0  0  0
 19 20  1  0  0  0  0
 20 21  1  0  0  0  0
 21 22  1  0  0  0  0
 22 23  1  0  0  0  0
 23 24  1  0  0  0  0
 22 25  1  0  0  0  0
 25 26  1  0  0  0  0
 26 27  1  0  0  0  0
 27 28  1  0  0  0  0
 28 29  1  0  0  0  0
 29 30  1  0  0  0  0
 30 31  1  0  0  0  0
 29 32  1  0  0  0  0
 32 33  1  0  0  0  0
 33 34  1  0  0  0  0
 34 35  1  0  0  0  0
 35 36  1  0  0  0  0
 36 37  1  0  0  0  0
 37 38  1  0  0  0  0
 36 39  1  0  0  0  0
 39 40  1  0  0  0  0
 40 41  1  0  0  0  0
 41 42  1  0  0  0  0
 42 43  1  0  0  0  0
 43 44  1  0  0  0  0
 44 45  1  0  0  0  0
 43 46  1  0  0  0  0
 46 47  1  0  0  0  0
 47 48  1  0  0  0  0
 48 49  1  0  0  0  0
 49 50  1  0  0  0  0
 50 51  1  0  0  0  0
 51 52  1  0  0  0  0
 50 53  1  0  0  0  0
 53 54  1  0  0  0  0
 54 55  1  0  0  0  0
 55 56  1  0  0  0  0
  3 56  1  0  0  0  0
 56 57  1  0  0  0  0
 57 58  1  0  0  0  0
 57 59  1  0  0  0  0
  5 59  1  0  0  0  0
 59 60  1  0  0  0  0
 54 61  1  0  0  0  0
 61 62  1  0  0  0  0
 61 63  1  0  0  0  0
 49 63  1  0  0  0  0
 63 64  1  0  0  0  0
 47 65  1  0  0  0  0
 65 66  1  0  0  0  0
 65 67  1  0  0  0  0
 42 67  1  0  0  0  0
 67 68  1  0  0  0  0
 40 69  1  0  0  0  0
 69 70  1  0  0  0  0
 69 71  1  0  0  0  0
 35 71  1  0  0  0  0
 71 72  1  0  0  0  0
 33 73  1  0  0  0  0
 73 74  1  0  0  0  0
 73 75  1  0  0  0  0
 28 75  1  0  0  0  0
 75 76  1  0  0  0  0
 26 77  1  0  0  0  0
 77 78  1  0  0  0  0
 77 79  1  0  0  0  0
 21 79  1  0  0  0  0
 79 80  1  0  0  0  0
 19 81  1  0  0  0  0
 81 82  1  0  0  0  0
 81 83  1  0  0  0  0
 14 83  1  0  0  0  0
 83 84  1  0  0  0  0
 12 85  1  0  0  0  0
 85 86  1  0  0  0  0
 85 87  1  0  0  0  0
  7 87  1  0  0  0  0
 87 88  1  0  0  0  0
  1 89  1  0  0  0  0
  2 90  1  0  0  0  0
  2 91  1  0  0  0  0
  3 92  1  0  0  0  0
  5 93  1  0  0  0  0
  7 94  1  0  0  0  0
  8 95  1  0  0  0  0
  9 96  1  0  0  0  0
  9 97  1  0  0  0  0
 10 98  1  0  0  0  0
 12 99  1  0  0  0  0
 14100  1  0  0  0  0
 15101  1  0  0  0  0
 16102  1  0  0  0  0
 16103  1  0  0  0  0
 17104  1  0  0  0  0
 19105  1  0  0  0  0
 21106  1  0  0  0  0
 22107  1  0  0  0  0
 23108  1  0  0  0  0
 23109  1  0  0  0  0
 24110  1  0  0  0  0
 26111  1  0  0  0  0
 28112  1  0  0  0  0
 29113  1  0  0  0  0
 30114  1  0  0  0  0
 30115  1  0  0  0  0
 31116  1  0  0  0  0
 33117  1  0  0  0  0
 35118  1  0  0  0  0
 36119  1  0  0  0  0
 37120  1  0  0  0  0
 37121  1  0  0  0  0
 38122  1  0  0  0  0
 40123  1  0  0  0  0
 42124  1  0  0  0  0
 43125  1  0  0  0  0
 44126  1  0  0  0  0
 44127  1  0  0  0  0
 45128  1  0  0  0  0
 47129  1  0  0  0  0
 49130  1  0  0  0  0
 50131  1  0  0  0  0
 51132  1  0  0  0  0
 51133  1  0  0  0  0
 52134  1  0  0  0  0
 54135  1  0  0  0  0
 56136  1  0  0  0  0
 57137  1  0  0  0  0
 58138  1  0  0  0  0
 59139  1  0  0  0  0
 60140  1  0  0  0  0
 61141  1  0  0  0  0
 62142  1  0  0  0  0
 63143  1  0  0  0  0
 64144  1  0  0  0  0
 65145  1  0  0  0  0
 66146  1  0  0  0  0
 67147  1  0  0  0  0
 68148  1  0  0  0  0
 69149  1  0  0  0  0
 70150  1  0  0  0  0
 71151  1  0  0  0  0
 72152  1  0  0  0  0
 73153  1  0  0  0  0
 74154  1  0  0  0  0
 75155  1  0  0  0  0
 76156  1  0  0  0  0
 77157  1  0  0  0  0
 78158  1  0  0  0  0
 79159  1  0  0  0  0
 80160  1  0  0  0  0
 81161  1  0  0  0  0
 82162  1  0  0  0  0
 83163  1  0  0  0  0
 84164  1  0  0  0  0
 85165  1  0  0  0  0
 86166  1  0  0  0  0
 87167  1  0  0  0  0
 88168  1  0  0  0  0
M  END
>  <InChIKey>
GDSRMADSINPKSL-UHFFFAOYSA-N

>  <UN GHS>
Non-irritant

>  <CASRN>
17465-86-0

> <Outcome>
0

>  <Index>
214

>  <StandardizerResult>
Clear Stereo (ID: ClearStereo)
Wedge Clean (ID: WedgeClean)
Mesomerize (ID: Mesomerize)
Tautomerize (ID: Tautomerize)
Add Explicit Hydrogens (ID: AddExplicitH)
Neutralize (ID: Neutralize)
Clean 2D (ID: Clean2D)

> <knn Distance>
4.12310552597046

> <CpId>
214

$$$$
251
  Mrv1532301301811342D          

126132  0  0  0  0            999 V2000
    3.5531   -1.8205    0.0000 O   0  0  0  0  0  0  0  0  0  0  0  0
    2.8900   -2.3114    0.0000 C   0  0  0  0  0  0  0  0  0  0  0  0
    2.1333   -1.9826    0.0000 C   0  0  0  0  0  0  0  0  0  0  0  0
    2.0504   -1.1532    0.0000 O   0  0  0  0  0  0  0  0  0  0  0  0
    1.2995   -0.7915    0.0000 C   0  0  0  0  0  0  0  0  0  0  0  0
    1.7257   -0.0341    0.0000 O   0  0  0  0  0  0  0  0  0  0  0  0
    2.2878    0.6450    0.0000 C   0  0  0  0  0  0  0  0  0  0  0  0
    3.0676    0.3191    0.0000 C   0  0  0  0  0  0  0  0  0  0  0  0
    3.1612   -0.5006    0.0000 C   0  0  0  0  0  0  0  0  0  0  0  0
    3.9178   -0.8294    0.0000 O   0  0  0  0  0  0  0  0  0  0  0  0
    3.7444    0.8056    0.0000 O   0  0  0  0  0  0  0  0  0  0  0  0
    3.6822    1.6367    0.0000 C   0  0  0  0  0  0  0  0  0  0  0  0
    4.5512    1.6464    0.0000 O   0  0  0  0  0  0  0  0  0  0  0  0
    5.4204    1.4991    0.0000 C   0  0  0  0  0  0  0  0  0  0  0  0
    5.5280    0.6609    0.0000 C   0  0  0  0  0  0  0  0  0  0  0  0
    4.8650    0.1700    0.0000 C   0  0  0  0  0  0  0  0  0  0  0  0
    4.9585   -0.6497    0.0000 O   0  0  0  0  0  0  0  0  0  0  0  0
    6.2877    0.3180    0.0000 O   0  0  0  0  0  0  0  0  0  0  0  0
    6.9764    0.7875    0.0000 C   0  0  0  0  0  0  0  0  0  0  0  0
    7.4193    0.0397    0.0000 O   0  0  0  0  0  0  0  0  0  0  0  0
    7.7263   -0.7867    0.0000 C   0  0  0  0  0  0  0  0  0  0  0  0
    7.0542   -1.2990    0.0000 C   0  0  0  0  0  0  0  0  0  0  0  0
    6.2976   -0.9702    0.0000 C   0  0  0  0  0  0  0  0  0  0  0  0
    5.6345   -1.4611    0.0000 O   0  0  0  0  0  0  0  0  0  0  0  0
    7.1372   -2.1284    0.0000 O   0  0  0  0  0  0  0  0  0  0  0  0
    7.8880   -2.4901    0.0000 C   0  0  0  0  0  0  0  0  0  0  0  0
    7.4619   -3.2476    0.0000 O   0  0  0  0  0  0  0  0  0  0  0  0
    6.8997   -3.9266    0.0000 C   0  0  0  0  0  0  0  0  0  0  0  0
    6.1200   -3.6007    0.0000 C   0  0  0  0  0  0  0  0  0  0  0  0
    6.0264   -2.7811    0.0000 C   0  0  0  0  0  0  0  0  0  0  0  0
    5.2698   -2.4523    0.0000 O   0  0  0  0  0  0  0  0  0  0  0  0
    5.4432   -4.0872    0.0000 O   0  0  0  0  0  0  0  0  0  0  0  0
    5.5054   -4.9184    0.0000 C   0  0  0  0  0  0  0  0  0  0  0  0
    4.6364   -4.9281    0.0000 O   0  0  0  0  0  0  0  0  0  0  0  0
    3.7672   -4.7807    0.0000 C   0  0  0  0  0  0  0  0  0  0  0  0
    3.6595   -3.9425    0.0000 C   0  0  0  0  0  0  0  0  0  0  0  0
    4.3226   -3.4516    0.0000 C   0  0  0  0  0  0  0  0  0  0  0  0
    4.2290   -2.6320    0.0000 O   0  0  0  0  0  0  0  0  0  0  0  0
    2.8998   -3.5996    0.0000 O   0  0  0  0  0  0  0  0  0  0  0  0
    2.2112   -4.0691    0.0000 C   0  0  0  0  0  0  0  0  0  0  0  0
    1.7682   -3.3213    0.0000 O   0  0  0  0  0  0  0  0  0  0  0  0
    1.4612   -2.4949    0.0000 C   0  0  0  0  0  0  0  0  0  0  0  0
    0.6946   -2.1219    0.0000 C   0  0  0  0  0  0  0  0  0  0  0  0
    0.0224   -2.6002    0.0000 O   0  0  0  0  0  0  0  0  0  0  0  0
    0.5965   -1.3007    0.0000 C   0  0  0  0  0  0  0  0  0  0  0  0
   -0.1593   -0.9700    0.0000 O   0  0  0  0  0  0  0  0  0  0  0  0
    2.3006   -4.9325    0.0000 C   0  0  0  0  0  0  0  0  0  0  0  0
    1.6363   -5.4217    0.0000 O   0  0  0  0  0  0  0  0  0  0  0  0
    3.0609   -5.2581    0.0000 C   0  0  0  0  0  0  0  0  0  0  0  0
    3.1390   -6.0794    0.0000 O   0  0  0  0  0  0  0  0  0  0  0  0
    6.2979   -5.2726    0.0000 C   0  0  0  0  0  0  0  0  0  0  0  0
    6.3893   -6.0925    0.0000 O   0  0  0  0  0  0  0  0  0  0  0  0
    6.9600   -4.7770    0.0000 C   0  0  0  0  0  0  0  0  0  0  0  0
    7.7103   -5.1200    0.0000 O   0  0  0  0  0  0  0  0  0  0  0  0
    8.5910   -1.9809    0.0000 C   0  0  0  0  0  0  0  0  0  0  0  0
    9.3468   -2.3117    0.0000 O   0  0  0  0  0  0  0  0  0  0  0  0
    8.4929   -1.1597    0.0000 C   0  0  0  0  0  0  0  0  0  0  0  0
    9.1651   -0.6814    0.0000 O   0  0  0  0  0  0  0  0  0  0  0  0
    6.8869    1.6509    0.0000 C   0  0  0  0  0  0  0  0  0  0  0  0
    7.5513    2.1400    0.0000 O   0  0  0  0  0  0  0  0  0  0  0  0
    6.1267    1.9765    0.0000 C   0  0  0  0  0  0  0  0  0  0  0  0
    6.0486    2.7978    0.0000 O   0  0  0  0  0  0  0  0  0  0  0  0
    2.8897    1.9910    0.0000 C   0  0  0  0  0  0  0  0  0  0  0  0
    2.7982    2.8109    0.0000 O   0  0  0  0  0  0  0  0  0  0  0  0
    2.2276    1.4954    0.0000 C   0  0  0  0  0  0  0  0  0  0  0  0
    1.4772    1.8384    0.0000 O   0  0  0  0  0  0  0  0  0  0  0  0
    4.3097   -2.1493    0.0000 H   0  0  0  0  0  0  0  0  0  0  0  0
    2.6057   -3.0859    0.0000 H   0  0  0  0  0  0  0  0  0  0  0  0
    3.3415   -3.0019    0.0000 H   0  0  0  0  0  0  0  0  0  0  0  0
    2.2327   -2.8016    0.0000 H   0  0  0  0  0  0  0  0  0  0  0  0
    0.6838   -0.2425    0.0000 H   0  0  0  0  0  0  0  0  0  0  0  0
    1.5023    0.8970    0.0000 H   0  0  0  0  0  0  0  0  0  0  0  0
    2.4080   -0.1764    0.0000 H   0  0  0  0  0  0  0  0  0  0  0  0
    2.4992   -0.9930    0.0000 H   0  0  0  0  0  0  0  0  0  0  0  0
    3.2557   -1.3201    0.0000 H   0  0  0  0  0  0  0  0  0  0  0  0
    4.7375   -0.7355    0.0000 H   0  0  0  0  0  0  0  0  0  0  0  0
    3.8498    2.4445    0.0000 H   0  0  0  0  0  0  0  0  0  0  0  0
    5.2458    2.3054    0.0000 H   0  0  0  0  0  0  0  0  0  0  0  0
    4.7691    0.9844    0.0000 H   0  0  0  0  0  0  0  0  0  0  0  0
    4.0400    0.1794    0.0000 H   0  0  0  0  0  0  0  0  0  0  0  0
    5.6216   -0.1588    0.0000 H   0  0  0  0  0  0  0  0  0  0  0  0
    5.3569   -1.3721    0.0000 H   0  0  0  0  0  0  0  0  0  0  0  0
    7.7598    1.0462    0.0000 H   0  0  0  0  0  0  0  0  0  0  0  0
    8.3373   -0.2324    0.0000 H   0  0  0  0  0  0  0  0  0  0  0  0
    6.9549   -0.4800    0.0000 H   0  0  0  0  0  0  0  0  0  0  0  0
    6.2021   -0.1508    0.0000 H   0  0  0  0  0  0  0  0  0  0  0  0
    5.5406   -0.6423    0.0000 H   0  0  0  0  0  0  0  0  0  0  0  0
    5.7688   -2.2751    0.0000 H   0  0  0  0  0  0  0  0  0  0  0  0
    8.5038   -3.0391    0.0000 H   0  0  0  0  0  0  0  0  0  0  0  0
    7.6853   -4.1786    0.0000 H   0  0  0  0  0  0  0  0  0  0  0  0
    6.7796   -3.1052    0.0000 H   0  0  0  0  0  0  0  0  0  0  0  0
    6.5907   -2.1792    0.0000 H   0  0  0  0  0  0  0  0  0  0  0  0
    5.3633   -3.2719    0.0000 H   0  0  0  0  0  0  0  0  0  0  0  0
    4.5699   -2.0154    0.0000 H   0  0  0  0  0  0  0  0  0  0  0  0
    5.3378   -5.7262    0.0000 H   0  0  0  0  0  0  0  0  0  0  0  0
    3.9418   -5.5870    0.0000 H   0  0  0  0  0  0  0  0  0  0  0  0
    4.4185   -4.2660    0.0000 H   0  0  0  0  0  0  0  0  0  0  0  0
    5.0800   -3.7787    0.0000 H   0  0  0  0  0  0  0  0  0  0  0  0
    4.9851   -2.9600    0.0000 H   0  0  0  0  0  0  0  0  0  0  0  0
    3.5828   -2.1192    0.0000 H   0  0  0  0  0  0  0  0  0  0  0  0
    1.4278   -4.3278    0.0000 H   0  0  0  0  0  0  0  0  0  0  0  0
    0.8502   -3.0492    0.0000 H   0  0  0  0  0  0  0  0  0  0  0  0
    1.3668   -1.6436    0.0000 H   0  0  0  0  0  0  0  0  0  0  0  0
   -0.8010   -2.6503    0.0000 H   0  0  0  0  0  0  0  0  0  0  0  0
   -0.0659   -1.7925    0.0000 H   0  0  0  0  0  0  0  0  0  0  0  0
   -0.6491   -0.3061    0.0000 H   0  0  0  0  0  0  0  0  0  0  0  0
    2.3953   -5.7520    0.0000 H   0  0  0  0  0  0  0  0  0  0  0  0
    0.8165   -5.5139    0.0000 H   0  0  0  0  0  0  0  0  0  0  0  0
    2.9827   -4.4368    0.0000 H   0  0  0  0  0  0  0  0  0  0  0  0
    3.1948   -6.9025    0.0000 H   0  0  0  0  0  0  0  0  0  0  0  0
    7.0550   -5.6004    0.0000 H   0  0  0  0  0  0  0  0  0  0  0  0
    6.0593   -6.8486    0.0000 H   0  0  0  0  0  0  0  0  0  0  0  0
    6.2097   -4.4340    0.0000 H   0  0  0  0  0  0  0  0  0  0  0  0
    8.4511   -5.4832    0.0000 H   0  0  0  0  0  0  0  0  0  0  0  0
    9.2535   -1.4891    0.0000 H   0  0  0  0  0  0  0  0  0  0  0  0
    9.8366   -2.9755    0.0000 H   0  0  0  0  0  0  0  0  0  0  0  0
    7.8207   -1.6380    0.0000 H   0  0  0  0  0  0  0  0  0  0  0  0
    9.8500   -0.2215    0.0000 H   0  0  0  0  0  0  0  0  0  0  0  0
    6.7923    2.4704    0.0000 H   0  0  0  0  0  0  0  0  0  0  0  0
    8.3711    2.2323    0.0000 H   0  0  0  0  0  0  0  0  0  0  0  0
    6.2048    1.1552    0.0000 H   0  0  0  0  0  0  0  0  0  0  0  0
    5.9927    3.6209    0.0000 H   0  0  0  0  0  0  0  0  0  0  0  0
    2.1326    2.3188    0.0000 H   0  0  0  0  0  0  0  0  0  0  0  0
    3.1282    3.5670    0.0000 H   0  0  0  0  0  0  0  0  0  0  0  0
    2.9779    1.1524    0.0000 H   0  0  0  0  0  0  0  0  0  0  0  0
    0.7365    2.2016    0.0000 H   0  0  0  0  0  0  0  0  0  0  0  0
  1  2  1  0  0  0  0
  2  3  1  0  0  0  0
  3  4  1  0  0  0  0
  4  5  1  0  0  0  0
  5  6  1  0  0  0  0
  6  7  1  0  0  0  0
  7  8  1  0  0  0  0
  8  9  1  0  0  0  0
  9 10  1  0  0  0  0
  8 11  1  0  0  0  0
 11 12  1  0  0  0  0
 12 13  1  0  0  0  0
 13 14  1  0  0  0  0
 14 15  1  0  0  0  0
 15 16  1  0  0  0  0
 16 17  1  0  0  0  0
 15 18  1  0  0  0  0
 18 19  1  0  0  0  0
 19 20  1  0  0  0  0
 20 21  1  0  0  0  0
 21 22  1  0  0  0  0
 22 23  1  0  0  0  0
 23 24  1  0  0  0  0
 22 25  1  0  0  0  0
 25 26  1  0  0  0  0
 26 27  1  0  0  0  0
 27 28  1  0  0  0  0
 28 29  1  0  0  0  0
 29 30  1  0  0  0  0
 30 31  1  0  0  0  0
 29 32  1  0  0  0  0
 32 33  1  0  0  0  0
 33 34  1  0  0  0  0
 34 35  1  0  0  0  0
 35 36  1  0  0  0  0
 36 37  1  0  0  0  0
 37 38  1  0  0  0  0
 36 39  1  0  0  0  0
 39 40  1  0  0  0  0
 40 41  1  0  0  0  0
 41 42  1  0  0  0  0
  3 42  1  0  0  0  0
 42 43  1  0  0  0  0
 43 44  1  0  0  0  0
 43 45  1  0  0  0  0
  5 45  1  0  0  0  0
 45 46  1  0  0  0  0
 40 47  1  0  0  0  0
 47 48  1  0  0  0  0
 47 49  1  0  0  0  0
 35 49  1  0  0  0  0
 49 50  1  0  0  0  0
 33 51  1  0  0  0  0
 51 52  1  0  0  0  0
 51 53  1  0  0  0  0
 28 53  1  0  0  0  0
 53 54  1  0  0  0  0
 26 55  1  0  0  0  0
 55 56  1  0  0  0  0
 55 57  1  0  0  0  0
 21 57  1  0  0  0  0
 57 58  1  0  0  0  0
 19 59  1  0  0  0  0
 59 60  1  0  0  0  0
 59 61  1  0  0  0  0
 14 61  1  0  0  0  0
 61 62  1  0  0  0  0
 12 63  1  0  0  0  0
 63 64  1  0  0  0  0
 63 65  1  0  0  0  0
  7 65  1  0  0  0  0
 65 66  1  0  0  0  0
  1 67  1  0  0  0  0
  2 68  1  0  0  0  0
  2 69  1  0  0  0  0
  3 70  1  0  0  0  0
  5 71  1  0  0  0  0
  7 72  1  0  0  0  0
  8 73  1  0  0  0  0
  9 74  1  0  0  0  0
  9 75  1  0  0  0  0
 10 76  1  0  0  0  0
 12 77  1  0  0  0  0
 14 78  1  0  0  0  0
 15 79  1  0  0  0  0
 16 80  1  0  0  0  0
 16 81  1  0  0  0  0
 17 82  1  0  0  0  0
 19 83  1  0  0  0  0
 21 84  1  0  0  0  0
 22 85  1  0  0  0  0
 23 86  1  0  0  0  0
 23 87  1  0  0  0  0
 24 88  1  0  0  0  0
 26 89  1  0  0  0  0
 28 90  1  0  0  0  0
 29 91  1  0  0  0  0
 30 92  1  0  0  0  0
 30 93  1  0  0  0  0
 31 94  1  0  0  0  0
 33 95  1  0  0  0  0
 35 96  1  0  0  0  0
 36 97  1  0  0  0  0
 37 98  1  0  0  0  0
 37 99  1  0  0  0  0
 38100  1  0  0  0  0
 40101  1  0  0  0  0
 42102  1  0  0  0  0
 43103  1  0  0  0  0
 44104  1  0  0  0  0
 45105  1  0  0  0  0
 46106  1  0  0  0  0
 47107  1  0  0  0  0
 48108  1  0  0  0  0
 49109  1  0  0  0  0
 50110  1  0  0  0  0
 51111  1  0  0  0  0
 52112  1  0  0  0  0
 53113  1  0  0  0  0
 54114  1  0  0  0  0
 55115  1  0  0  0  0
 56116  1  0  0  0  0
 57117  1  0  0  0  0
 58118  1  0  0  0  0
 59119  1  0  0  0  0
 60120  1  0  0  0  0
 61121  1  0  0  0  0
 62122  1  0  0  0  0
 63123  1  0  0  0  0
 64124  1  0  0  0  0
 65125  1  0  0  0  0
 66126  1  0  0  0  0
M  END
>  <InChIKey>
HFHDHCJBZVLPGP-UHFFFAOYSA-N

>  <UN GHS>
Non-irritant

>  <CASRN>
10016-20-3

> <Outcome>
0

>  <Index>
251

>  <StandardizerResult>
Clear Stereo (ID: ClearStereo)
Wedge Clean (ID: WedgeClean)
Mesomerize (ID: Mesomerize)
Tautomerize (ID: Tautomerize)
Add Explicit Hydrogens (ID: AddExplicitH)
Neutralize (ID: Neutralize)
Clean 2D (ID: Clean2D)

> <knn Distance>
4.12310552597046

> <CpId>
251

$$$$
273
  Mrv1532301301811342D          

 46 46  0  0  0  0            999 V2000
   -0.5943    3.9672    0.0000 C   0  0  0  0  0  0  0  0  0  0  0  0
   -0.0640    3.3352    0.0000 C   0  0  0  0  0  0  0  0  0  0  0  0
   -0.6960    2.8049    0.0000 C   0  0  0  0  0  0  0  0  0  0  0  0
    0.5680    3.8655    0.0000 C   0  0  0  0  0  0  0  0  0  0  0  0
    0.4663    2.7032    0.0000 O   0  0  0  0  0  0  0  0  0  0  0  0
    0.1842    1.9280    0.0000 O   0  0  0  0  0  0  0  0  0  0  0  0
    0.7145    1.2960    0.0000 C   0  0  0  0  0  0  0  0  0  0  0  0
    1.4289    0.8835    0.0000 C   0  0  0  0  0  0  0  0  0  0  0  0
    1.4289    0.0585    0.0000 C   0  0  0  0  0  0  0  0  0  0  0  0
    0.7145   -0.3540    0.0000 C   0  0  0  0  0  0  0  0  0  0  0  0
   -0.0000    0.0585    0.0000 C   0  0  0  0  0  0  0  0  0  0  0  0
   -0.0000    0.8835    0.0000 C   0  0  0  0  0  0  0  0  0  0  0  0
    1.2448    1.9280    0.0000 O   0  0  0  0  0  0  0  0  0  0  0  0
    2.0572    1.7847    0.0000 O   0  0  0  0  0  0  0  0  0  0  0  0
    2.5875    2.4167    0.0000 C   0  0  0  0  0  0  0  0  0  0  0  0
    3.1178    3.0487    0.0000 C   0  0  0  0  0  0  0  0  0  0  0  0
    3.2195    1.8864    0.0000 C   0  0  0  0  0  0  0  0  0  0  0  0
    1.9555    2.9470    0.0000 C   0  0  0  0  0  0  0  0  0  0  0  0
    0.0377    4.4975    0.0000 H   0  0  0  0  0  0  0  0  0  0  0  0
   -1.1246    4.5992    0.0000 H   0  0  0  0  0  0  0  0  0  0  0  0
   -1.2263    3.4369    0.0000 H   0  0  0  0  0  0  0  0  0  0  0  0
   -1.4828    2.5568    0.0000 H   0  0  0  0  0  0  0  0  0  0  0  0
   -0.7679    1.9830    0.0000 H   0  0  0  0  0  0  0  0  0  0  0  0
    0.0358    2.4240    0.0000 H   0  0  0  0  0  0  0  0  0  0  0  0
    0.8161    3.0787    0.0000 H   0  0  0  0  0  0  0  0  0  0  0  0
    1.3899    3.7936    0.0000 H   0  0  0  0  0  0  0  0  0  0  0  0
    0.9490    4.5973    0.0000 H   0  0  0  0  0  0  0  0  0  0  0  0
    2.2525    0.9315    0.0000 H   0  0  0  0  0  0  0  0  0  0  0  0
    1.8823    1.5728    0.0000 H   0  0  0  0  0  0  0  0  0  0  0  0
    1.8823   -0.6308    0.0000 H   0  0  0  0  0  0  0  0  0  0  0  0
    2.2525    0.0105    0.0000 H   0  0  0  0  0  0  0  0  0  0  0  0
    0.3442   -1.0913    0.0000 H   0  0  0  0  0  0  0  0  0  0  0  0
    1.0847   -1.0913    0.0000 H   0  0  0  0  0  0  0  0  0  0  0  0
   -0.8236    0.0105    0.0000 H   0  0  0  0  0  0  0  0  0  0  0  0
   -0.4533   -0.6308    0.0000 H   0  0  0  0  0  0  0  0  0  0  0  0
   -0.4533    1.5728    0.0000 H   0  0  0  0  0  0  0  0  0  0  0  0
   -0.8236    0.9315    0.0000 H   0  0  0  0  0  0  0  0  0  0  0  0
    3.7498    2.5184    0.0000 H   0  0  0  0  0  0  0  0  0  0  0  0
    3.6481    3.6807    0.0000 H   0  0  0  0  0  0  0  0  0  0  0  0
    2.4858    3.5790    0.0000 H   0  0  0  0  0  0  0  0  0  0  0  0
    2.4877    1.5055    0.0000 H   0  0  0  0  0  0  0  0  0  0  0  0
    3.2914    1.0645    0.0000 H   0  0  0  0  0  0  0  0  0  0  0  0
    4.0063    1.6383    0.0000 H   0  0  0  0  0  0  0  0  0  0  0  0
    1.5746    3.6788    0.0000 H   0  0  0  0  0  0  0  0  0  0  0  0
    1.1337    2.8751    0.0000 H   0  0  0  0  0  0  0  0  0  0  0  0
    1.7075    2.1602    0.0000 H   0  0  0  0  0  0  0  0  0  0  0  0
  1  2  1  0  0  0  0
  2  3  1  0  0  0  0
  2  4  1  0  0  0  0
  2  5  1  0  0  0  0
  5  6  1  0  0  0  0
  6  7  1  0  0  0  0
  7  8  1  0  0  0  0
  8  9  1  0  0  0  0
  9 10  1  0  0  0  0
 10 11  1  0  0  0  0
 11 12  1  0  0  0  0
  7 12  1  0  0  0  0
  7 13  1  0  0  0  0
 13 14  1  0  0  0  0
 14 15  1  0  0  0  0
 15 16  1  0  0  0  0
 15 17  1  0  0  0  0
 15 18  1  0  0  0  0
  1 19  1  0  0  0  0
  1 20  1  0  0  0  0
  1 21  1  0  0  0  0
  3 22  1  0  0  0  0
  3 23  1  0  0  0  0
  3 24  1  0  0  0  0
  4 25  1  0  0  0  0
  4 26  1  0  0  0  0
  4 27  1  0  0  0  0
  8 28  1  0  0  0  0
  8 29  1  0  0  0  0
  9 30  1  0  0  0  0
  9 31  1  0  0  0  0
 10 32  1  0  0  0  0
 10 33  1  0  0  0  0
 11 34  1  0  0  0  0
 11 35  1  0  0  0  0
 12 36  1  0  0  0  0
 12 37  1  0  0  0  0
 16 38  1  0  0  0  0
 16 39  1  0  0  0  0
 16 40  1  0  0  0  0
 17 41  1  0  0  0  0
 17 42  1  0  0  0  0
 17 43  1  0  0  0  0
 18 44  1  0  0  0  0
 18 45  1  0  0  0  0
 18 46  1  0  0  0  0
M  END
>  <InChIKey>
HSLFISVKRDQEBY-UHFFFAOYSA-N

>  <UN GHS>
Non-irritant

>  <CASRN>
3006-86-8

> <Outcome>
0

>  <Index>
273

>  <StandardizerResult>
Clear Stereo (ID: ClearStereo)
Wedge Clean (ID: WedgeClean)
Mesomerize (ID: Mesomerize)
Tautomerize (ID: Tautomerize)
Add Explicit Hydrogens (ID: AddExplicitH)
Neutralize (ID: Neutralize)
Clean 2D (ID: Clean2D)

> <knn Distance>
4.12310552597046

> <CpId>
273

$$$$
312
  Mrv1532301301811342D          

 38 40  0  0  0  0            999 V2000
    2.3558    0.4097    0.0000 S   0  0  0  0  0  0  0  0  0  0  0  0
    2.7683    1.1242    0.0000 P   0  0  0  0  0  0  0  0  0  0  0  0
    3.4828    0.7117    0.0000 O   0  0  0  0  0  0  0  0  0  0  0  0
    3.4828   -0.1133    0.0000 C   0  0  0  0  0  0  0  0  0  0  0  0
    4.1973   -0.5258    0.0000 C   0  0  0  0  0  0  0  0  0  0  0  0
    4.1973   -1.3508    0.0000 C   0  0  0  0  0  0  0  0  0  0  0  0
    3.4828   -1.7633    0.0000 C   0  0  0  0  0  0  0  0  0  0  0  0
    2.7683   -1.3508    0.0000 C   0  0  0  0  0  0  0  0  0  0  0  0
    2.7683   -0.5258    0.0000 C   0  0  0  0  0  0  0  0  0  0  0  0
    2.0538    1.5367    0.0000 O   0  0  0  0  0  0  0  0  0  0  0  0
    2.0538    2.3617    0.0000 C   0  0  0  0  0  0  0  0  0  0  0  0
    1.3394    2.7742    0.0000 C   0  0  0  0  0  0  0  0  0  0  0  0
    1.3394    3.5992    0.0000 C   0  0  0  0  0  0  0  0  0  0  0  0
    2.0538    4.0117    0.0000 C   0  0  0  0  0  0  0  0  0  0  0  0
    2.7683    3.5992    0.0000 C   0  0  0  0  0  0  0  0  0  0  0  0
    2.7683    2.7742    0.0000 C   0  0  0  0  0  0  0  0  0  0  0  0
    3.1808    1.8387    0.0000 O   0  0  0  0  0  0  0  0  0  0  0  0
    4.0058    1.8387    0.0000 C   0  0  0  0  0  0  0  0  0  0  0  0
    4.4183    2.5531    0.0000 C   0  0  0  0  0  0  0  0  0  0  0  0
    5.2433    2.5531    0.0000 C   0  0  0  0  0  0  0  0  0  0  0  0
    5.6558    1.8387    0.0000 C   0  0  0  0  0  0  0  0  0  0  0  0
    5.2433    1.1242    0.0000 C   0  0  0  0  0  0  0  0  0  0  0  0
    4.4183    1.1242    0.0000 C   0  0  0  0  0  0  0  0  0  0  0  0
    4.9117   -0.1133    0.0000 H   0  0  0  0  0  0  0  0  0  0  0  0
    4.9117   -1.7633    0.0000 H   0  0  0  0  0  0  0  0  0  0  0  0
    3.4828   -2.5883    0.0000 H   0  0  0  0  0  0  0  0  0  0  0  0
    2.0538   -1.7633    0.0000 H   0  0  0  0  0  0  0  0  0  0  0  0
    2.0538   -0.1133    0.0000 H   0  0  0  0  0  0  0  0  0  0  0  0
    0.6249    2.3617    0.0000 H   0  0  0  0  0  0  0  0  0  0  0  0
    0.6249    4.0117    0.0000 H   0  0  0  0  0  0  0  0  0  0  0  0
    2.0538    4.8367    0.0000 H   0  0  0  0  0  0  0  0  0  0  0  0
    3.4828    4.0117    0.0000 H   0  0  0  0  0  0  0  0  0  0  0  0
    3.4828    2.3617    0.0000 H   0  0  0  0  0  0  0  0  0  0  0  0
    4.3352    3.3739    0.0000 H   0  0  0  0  0  0  0  0  0  0  0  0
    5.6558    3.2676    0.0000 H   0  0  0  0  0  0  0  0  0  0  0  0
    6.4808    1.8387    0.0000 H   0  0  0  0  0  0  0  0  0  0  0  0
    5.6558    0.4097    0.0000 H   0  0  0  0  0  0  0  0  0  0  0  0
    4.0058    0.4097    0.0000 H   0  0  0  0  0  0  0  0  0  0  0  0
  1  2  2  0  0  0  0
  2  3  1  0  0  0  0
  3  4  1  0  0  0  0
  4  5  4  0  0  0  0
  5  6  4  0  0  0  0
  6  7  4  0  0  0  0
  7  8  4  0  0  0  0
  8  9  4  0  0  0  0
  4  9  4  0  0  0  0
  2 10  1  0  0  0  0
 10 11  1  0  0  0  0
 11 12  4  0  0  0  0
 12 13  4  0  0  0  0
 13 14  4  0  0  0  0
 14 15  4  0  0  0  0
 15 16  4  0  0  0  0
 11 16  4  0  0  0  0
  2 17  1  0  0  0  0
 17 18  1  0  0  0  0
 18 19  4  0  0  0  0
 19 20  4  0  0  0  0
 20 21  4  0  0  0  0
 21 22  4  0  0  0  0
 22 23  4  0  0  0  0
 18 23  4  0  0  0  0
  5 24  1  0  0  0  0
  6 25  1  0  0  0  0
  7 26  1  0  0  0  0
  8 27  1  0  0  0  0
  9 28  1  0  0  0  0
 12 29  1  0  0  0  0
 13 30  1  0  0  0  0
 14 31  1  0  0  0  0
 15 32  1  0  0  0  0
 16 33  1  0  0  0  0
 19 34  1  0  0  0  0
 20 35  1  0  0  0  0
 21 36  1  0  0  0  0
 22 37  1  0  0  0  0
 23 38  1  0  0  0  0
M  END
>  <InChIKey>
IKXFIBBKEARMLL-UHFFFAOYSA-N

>  <UN GHS>
Non-irritant

>  <CASRN>
597-82-0

> <Outcome>
0

>  <Index>
312

>  <StandardizerResult>
Dearomatize (ID: Dearomatize)
Clear Stereo (ID: ClearStereo)
Wedge Clean (ID: WedgeClean)
Mesomerize (ID: Mesomerize)
Tautomerize (ID: Tautomerize)
Aromatize (ID: Aromatize)
Add Explicit Hydrogens (ID: AddExplicitH)
Neutralize (ID: Neutralize)
Clean 2D (ID: Clean2D)

> <knn Distance>
4.12310552597046

> <CpId>
312

$$$$
383
  Mrv1532301301811342D          

 41 42  0  0  0  0            999 V2000
    1.4839   -2.4710    0.0000 O   0  0  0  0  0  0  0  0  0  0  0  0
    2.1984   -2.8835    0.0000 C   0  0  0  0  0  0  0  0  0  0  0  0
    2.1984   -3.7085    0.0000 C   0  0  0  0  0  0  0  0  0  0  0  0
    2.9129   -4.1210    0.0000 O   0  0  0  0  0  0  0  0  0  0  0  0
    2.9129   -4.9460    0.0000 C   0  0  0  0  0  0  0  0  0  0  0  0
    3.6273   -5.3585    0.0000 O   0  0  0  0  0  0  0  0  0  0  0  0
    4.3418   -4.9460    0.0000 C   0  0  0  0  0  0  0  0  0  0  0  0
    5.0563   -5.3585    0.0000 C   0  0  0  0  0  0  0  0  0  0  0  0
    5.7708   -4.9460    0.0000 C   0  0  0  0  0  0  0  0  0  0  0  0
    6.4852   -5.3585    0.0000 C   0  0  0  0  0  0  0  0  0  0  0  0
    7.1997   -4.9460    0.0000 C   0  0  0  0  0  0  0  0  0  0  0  0
    7.9142   -5.3585    0.0000 C   0  0  0  0  0  0  0  0  0  0  0  0
    7.9142   -6.1835    0.0000 C   0  0  0  0  0  0  0  0  0  0  0  0
    7.1997   -6.5960    0.0000 C   0  0  0  0  0  0  0  0  0  0  0  0
    6.4852   -6.1835    0.0000 C   0  0  0  0  0  0  0  0  0  0  0  0
    2.1984   -5.3585    0.0000 C   0  0  0  0  0  0  0  0  0  0  0  0
    2.1984   -6.1835    0.0000 O   0  0  0  0  0  0  0  0  0  0  0  0
    1.4839   -4.9460    0.0000 C   0  0  0  0  0  0  0  0  0  0  0  0
    0.7695   -5.3585    0.0000 O   0  0  0  0  0  0  0  0  0  0  0  0
    1.4839   -4.1210    0.0000 C   0  0  0  0  0  0  0  0  0  0  0  0
    0.7695   -3.7085    0.0000 O   0  0  0  0  0  0  0  0  0  0  0  0
    1.4839   -1.6460    0.0000 H   0  0  0  0  0  0  0  0  0  0  0  0
    3.0220   -2.8355    0.0000 H   0  0  0  0  0  0  0  0  0  0  0  0
    2.6517   -2.1942    0.0000 H   0  0  0  0  0  0  0  0  0  0  0  0
    1.4839   -3.2960    0.0000 H   0  0  0  0  0  0  0  0  0  0  0  0
    2.9129   -5.7710    0.0000 H   0  0  0  0  0  0  0  0  0  0  0  0
    4.7121   -4.2087    0.0000 H   0  0  0  0  0  0  0  0  0  0  0  0
    3.9716   -4.2087    0.0000 H   0  0  0  0  0  0  0  0  0  0  0  0
    5.0563   -6.1835    0.0000 H   0  0  0  0  0  0  0  0  0  0  0  0
    5.7708   -4.1210    0.0000 H   0  0  0  0  0  0  0  0  0  0  0  0
    7.1997   -4.1210    0.0000 H   0  0  0  0  0  0  0  0  0  0  0  0
    8.6286   -4.9460    0.0000 H   0  0  0  0  0  0  0  0  0  0  0  0
    8.6286   -6.5960    0.0000 H   0  0  0  0  0  0  0  0  0  0  0  0
    7.1997   -7.4210    0.0000 H   0  0  0  0  0  0  0  0  0  0  0  0
    5.7708   -6.5960    0.0000 H   0  0  0  0  0  0  0  0  0  0  0  0
    1.4839   -5.7710    0.0000 H   0  0  0  0  0  0  0  0  0  0  0  0
    2.1984   -7.0085    0.0000 H   0  0  0  0  0  0  0  0  0  0  0  0
    0.7695   -4.5335    0.0000 H   0  0  0  0  0  0  0  0  0  0  0  0
    0.0550   -5.7710    0.0000 H   0  0  0  0  0  0  0  0  0  0  0  0
    2.1984   -4.5335    0.0000 H   0  0  0  0  0  0  0  0  0  0  0  0
    0.0550   -3.2960    0.0000 H   0  0  0  0  0  0  0  0  0  0  0  0
  1  2  1  0  0  0  0
  2  3  1  0  0  0  0
  3  4  1  0  0  0  0
  4  5  1  0  0  0  0
  5  6  1  0  0  0  0
  6  7  1  0  0  0  0
  8  7  1  4  0  0  0
  8  9  2  0  0  0  0
  9 10  1  0  0  0  0
 10 11  4  0  0  0  0
 11 12  4  0  0  0  0
 12 13  4  0  0  0  0
 13 14  4  0  0  0  0
 14 15  4  0  0  0  0
 10 15  4  0  0  0  0
  5 16  1  0  0  0  0
 16 17  1  0  0  0  0
 16 18  1  0  0  0  0
 18 19  1  0  0  0  0
 18 20  1  0  0  0  0
  3 20  1  0  0  0  0
 20 21  1  0  0  0  0
  1 22  1  0  0  0  0
  2 23  1  0  0  0  0
  2 24  1  0  0  0  0
  3 25  1  0  0  0  0
  5 26  1  0  0  0  0
  7 27  1  0  0  0  0
  7 28  1  0  0  0  0
  8 29  1  0  0  0  0
  9 30  1  0  0  0  0
 11 31  1  0  0  0  0
 12 32  1  0  0  0  0
 13 33  1  0  0  0  0
 14 34  1  0  0  0  0
 15 35  1  0  0  0  0
 16 36  1  0  0  0  0
 17 37  1  0  0  0  0
 18 38  1  0  0  0  0
 19 39  1  0  0  0  0
 20 40  1  0  0  0  0
 21 41  1  0  0  0  0
M  END
>  <InChIKey>
KHPCPRHQVVSZAH-UHFFFAOYSA-N

>  <UN GHS>
Non-irritant

>  <CASRN>
1950-07-09

> <Outcome>
0

>  <Index>
383

>  <StandardizerResult>
Dearomatize (ID: Dearomatize)
Clear Stereo (ID: ClearStereo)
Wedge Clean (ID: WedgeClean)
Mesomerize (ID: Mesomerize)
Tautomerize (ID: Tautomerize)
Aromatize (ID: Aromatize)
Add Explicit Hydrogens (ID: AddExplicitH)
Neutralize (ID: Neutralize)
Clean 2D (ID: Clean2D)

> <knn Distance>
4.12310552597046

> <CpId>
383

$$$$
384
  Mrv1532301301811342D          

 22 21  0  0  0  0            999 V2000
    1.7361    1.8610    0.0000 C   0  0  0  0  0  0  0  0  0  0  0  0
    2.4506    1.4485    0.0000 C   0  0  0  0  0  0  0  0  0  0  0  0
    3.1650    1.8610    0.0000 N   0  0  0  0  0  0  0  0  0  0  0  0
    3.8795    1.4485    0.0000 C   0  0  0  0  0  0  0  0  0  0  0  0
    3.8795    0.6235    0.0000 S   0  0  0  0  0  0  0  0  0  0  0  0
    4.5940    1.8610    0.0000 O   0  0  0  0  0  0  0  0  0  0  0  0
    5.3085    1.4485    0.0000 C   0  0  0  0  0  0  0  0  0  0  0  0
    6.0229    1.8610    0.0000 C   0  0  0  0  0  0  0  0  0  0  0  0
    5.3085    0.6235    0.0000 C   0  0  0  0  0  0  0  0  0  0  0  0
    2.1486    2.5754    0.0000 H   0  0  0  0  0  0  0  0  0  0  0  0
    1.0216    2.2735    0.0000 H   0  0  0  0  0  0  0  0  0  0  0  0
    1.3236    1.1465    0.0000 H   0  0  0  0  0  0  0  0  0  0  0  0
    2.0803    0.7112    0.0000 H   0  0  0  0  0  0  0  0  0  0  0  0
    2.8208    0.7112    0.0000 H   0  0  0  0  0  0  0  0  0  0  0  0
    3.1650    2.6860    0.0000 H   0  0  0  0  0  0  0  0  0  0  0  0
    5.3085    2.2735    0.0000 H   0  0  0  0  0  0  0  0  0  0  0  0
    6.2365    1.0641    0.0000 H   0  0  0  0  0  0  0  0  0  0  0  0
    6.8479    1.8610    0.0000 H   0  0  0  0  0  0  0  0  0  0  0  0
    6.2365    2.6578    0.0000 H   0  0  0  0  0  0  0  0  0  0  0  0
    4.4835    0.6235    0.0000 H   0  0  0  0  0  0  0  0  0  0  0  0
    5.3085   -0.2015    0.0000 H   0  0  0  0  0  0  0  0  0  0  0  0
    6.1335    0.6235    0.0000 H   0  0  0  0  0  0  0  0  0  0  0  0
  1  2  1  0  0  0  0
  2  3  1  0  0  0  0
  3  4  1  0  0  0  0
  4  5  2  0  0  0  0
  4  6  1  0  0  0  0
  6  7  1  0  0  0  0
  7  8  1  0  0  0  0
  7  9  1  0  0  0  0
  1 10  1  0  0  0  0
  1 11  1  0  0  0  0
  1 12  1  0  0  0  0
  2 13  1  0  0  0  0
  2 14  1  0  0  0  0
  3 15  1  0  0  0  0
  7 16  1  0  0  0  0
  8 17  1  0  0  0  0
  8 18  1  0  0  0  0
  8 19  1  0  0  0  0
  9 20  1  0  0  0  0
  9 21  1  0  0  0  0
  9 22  1  0  0  0  0
M  END
>  <InChIKey>
KIACEOHPIRTHMI-UHFFFAOYSA-N

>  <UN GHS>
Non-irritant

>  <CASRN>
141-98-0

> <Outcome>
0

>  <Index>
384

>  <StandardizerResult>
Clear Stereo (ID: ClearStereo)
Wedge Clean (ID: WedgeClean)
Mesomerize (ID: Mesomerize)
Tautomerize (ID: Tautomerize)
Add Explicit Hydrogens (ID: AddExplicitH)
Neutralize (ID: Neutralize)
Clean 2D (ID: Clean2D)

> <knn Distance>
4.12310552597046

> <CpId>
384

$$$$
408
  Mrv1532301301811342D          

 48 47  0  0  0  0            999 V2000
    5.9373    4.3071    0.0000 C   0  0  0  0  0  0  0  0  0  0  0  0
    6.6518    4.7196    0.0000 C   0  0  0  0  0  0  0  0  0  0  0  0
    6.6518    5.5446    0.0000 C   0  0  0  0  0  0  0  0  0  0  0  0
    7.3662    4.3071    0.0000 C   0  0  0  0  0  0  0  0  0  0  0  0
    8.0807    4.7196    0.0000 C   0  0  0  0  0  0  0  0  0  0  0  0
    8.7952    4.3071    0.0000 C   0  0  0  0  0  0  0  0  0  0  0  0
    9.5097    4.7196    0.0000 C   0  0  0  0  0  0  0  0  0  0  0  0
   10.2241    4.3071    0.0000 C   0  0  0  0  0  0  0  0  0  0  0  0
   10.9386    4.7196    0.0000 C   0  0  0  0  0  0  0  0  0  0  0  0
   10.9386    5.5446    0.0000 O   0  0  0  0  0  0  0  0  0  0  0  0
   11.6531    4.3071    0.0000 N   0  0  0  0  0  0  0  0  0  0  0  0
   12.3675    4.7196    0.0000 C   0  0  0  0  0  0  0  0  0  0  0  0
   13.0820    4.3071    0.0000 C   0  0  0  0  0  0  0  0  0  0  0  0
   13.7965    4.7196    0.0000 C   0  0  0  0  0  0  0  0  0  0  0  0
   14.5109    4.3071    0.0000 C   0  0  0  0  0  0  0  0  0  0  0  0
   15.2254    4.7196    0.0000 C   0  0  0  0  0  0  0  0  0  0  0  0
   15.9399    4.3071    0.0000 C   0  0  0  0  0  0  0  0  0  0  0  0
   16.6544    4.7196    0.0000 O   0  0  0  0  0  0  0  0  0  0  0  0
   15.9399    3.4821    0.0000 O   0  0  0  0  0  0  0  0  0  0  0  0
    5.5248    5.0215    0.0000 H   0  0  0  0  0  0  0  0  0  0  0  0
    5.2228    3.8946    0.0000 H   0  0  0  0  0  0  0  0  0  0  0  0
    6.3498    3.5926    0.0000 H   0  0  0  0  0  0  0  0  0  0  0  0
    5.9373    5.1321    0.0000 H   0  0  0  0  0  0  0  0  0  0  0  0
    7.4487    5.3310    0.0000 H   0  0  0  0  0  0  0  0  0  0  0  0
    7.0643    6.2590    0.0000 H   0  0  0  0  0  0  0  0  0  0  0  0
    6.0684    6.1279    0.0000 H   0  0  0  0  0  0  0  0  0  0  0  0
    6.9960    3.5698    0.0000 H   0  0  0  0  0  0  0  0  0  0  0  0
    7.7365    3.5698    0.0000 H   0  0  0  0  0  0  0  0  0  0  0  0
    8.5775    5.3782    0.0000 H   0  0  0  0  0  0  0  0  0  0  0  0
    8.0807    3.8946    0.0000 H   0  0  0  0  0  0  0  0  0  0  0  0
    8.9384    3.4946    0.0000 H   0  0  0  0  0  0  0  0  0  0  0  0
    9.4272    3.7768    0.0000 H   0  0  0  0  0  0  0  0  0  0  0  0
    9.8799    5.4568    0.0000 H   0  0  0  0  0  0  0  0  0  0  0  0
    9.1394    5.4568    0.0000 H   0  0  0  0  0  0  0  0  0  0  0  0
   10.2591    3.4828    0.0000 H   0  0  0  0  0  0  0  0  0  0  0  0
   10.9472    3.9098    0.0000 H   0  0  0  0  0  0  0  0  0  0  0  0
   12.0616    3.5903    0.0000 H   0  0  0  0  0  0  0  0  0  0  0  0
   12.7378    5.4568    0.0000 H   0  0  0  0  0  0  0  0  0  0  0  0
   11.9973    5.4568    0.0000 H   0  0  0  0  0  0  0  0  0  0  0  0
   12.7117    3.5698    0.0000 H   0  0  0  0  0  0  0  0  0  0  0  0
   13.4523    3.5698    0.0000 H   0  0  0  0  0  0  0  0  0  0  0  0
   14.1667    5.4568    0.0000 H   0  0  0  0  0  0  0  0  0  0  0  0
   13.4262    5.4568    0.0000 H   0  0  0  0  0  0  0  0  0  0  0  0
   14.1407    3.5698    0.0000 H   0  0  0  0  0  0  0  0  0  0  0  0
   14.8812    3.5698    0.0000 H   0  0  0  0  0  0  0  0  0  0  0  0
   15.5957    5.4568    0.0000 H   0  0  0  0  0  0  0  0  0  0  0  0
   14.8552    5.4568    0.0000 H   0  0  0  0  0  0  0  0  0  0  0  0
   17.3688    4.3071    0.0000 H   0  0  0  0  0  0  0  0  0  0  0  0
  1  2  1  0  0  0  0
  2  3  1  0  0  0  0
  2  4  1  0  0  0  0
  4  5  1  0  0  0  0
  5  6  1  0  0  0  0
  6  7  1  0  0  0  0
  7  8  1  0  0  0  0
  8  9  1  0  0  0  0
  9 10  2  0  0  0  0
  9 11  1  0  0  0  0
 11 12  1  0  0  0  0
 12 13  1  0  0  0  0
 13 14  1  0  0  0  0
 14 15  1  0  0  0  0
 15 16  1  0  0  0  0
 16 17  1  0  0  0  0
 17 18  1  0  0  0  0
 17 19  2  0  0  0  0
  1 20  1  0  0  0  0
  1 21  1  0  0  0  0
  1 22  1  0  0  0  0
  2 23  1  0  0  0  0
  3 24  1  0  0  0  0
  3 25  1  0  0  0  0
  3 26  1  0  0  0  0
  4 27  1  0  0  0  0
  4 28  1  0  0  0  0
  5 29  1  0  0  0  0
  5 30  1  0  0  0  0
  6 31  1  0  0  0  0
  6 32  1  0  0  0  0
  7 33  1  0  0  0  0
  7 34  1  0  0  0  0
  8 35  1  0  0  0  0
  8 36  1  0  0  0  0
 11 37  1  0  0  0  0
 12 38  1  0  0  0  0
 12 39  1  0  0  0  0
 13 40  1  0  0  0  0
 13 41  1  0  0  0  0
 14 42  1  0  0  0  0
 14 43  1  0  0  0  0
 15 44  1  0  0  0  0
 15 45  1  0  0  0  0
 16 46  1  0  0  0  0
 16 47  1  0  0  0  0
 18 48  1  0  0  0  0
M  END
>  <InChIKey>
KWAKSEGGFHCMJS-UHFFFAOYSA-N

>  <UN GHS>
Non-irritant

>  <CASRN>
85702-79-0

> <Outcome>
0

>  <Index>
408

>  <StandardizerResult>
Clear Stereo (ID: ClearStereo)
Wedge Clean (ID: WedgeClean)
Mesomerize (ID: Mesomerize)
Tautomerize (ID: Tautomerize)
Add Explicit Hydrogens (ID: AddExplicitH)
Neutralize (ID: Neutralize)
Clean 2D (ID: Clean2D)

> <knn Distance>
4.12310552597046

> <CpId>
408

$$$$
419
  Mrv1532301301811342D          

 25 26  0  0  0  0            999 V2000
    1.5395   -1.2375    0.0000 O   0  0  0  0  0  0  0  0  0  0  0  0
    0.7145   -1.2375    0.0000 S   0  0  0  0  0  0  0  0  0  0  0  0
   -0.1105   -1.2375    0.0000 O   0  0  0  0  0  0  0  0  0  0  0  0
    0.7145   -2.0625    0.0000 C   0  0  0  0  0  0  0  0  0  0  0  0
    1.4289   -2.4750    0.0000 C   0  0  0  0  0  0  0  0  0  0  0  0
    1.4289   -3.3000    0.0000 C   0  0  0  0  0  0  0  0  0  0  0  0
    0.7145   -3.7125    0.0000 C   0  0  0  0  0  0  0  0  0  0  0  0
    0.0000   -3.3000    0.0000 C   0  0  0  0  0  0  0  0  0  0  0  0
    0.0000   -2.4750    0.0000 C   0  0  0  0  0  0  0  0  0  0  0  0
    0.7145   -0.4125    0.0000 C   0  0  0  0  0  0  0  0  0  0  0  0
    0.0000    0.0000    0.0000 C   0  0  0  0  0  0  0  0  0  0  0  0
    0.0000    0.8250    0.0000 C   0  0  0  0  0  0  0  0  0  0  0  0
    0.7145    1.2375    0.0000 C   0  0  0  0  0  0  0  0  0  0  0  0
    1.4289    0.8250    0.0000 C   0  0  0  0  0  0  0  0  0  0  0  0
    1.4289    0.0000    0.0000 C   0  0  0  0  0  0  0  0  0  0  0  0
    2.1434   -2.0625    0.0000 H   0  0  0  0  0  0  0  0  0  0  0  0
    2.1434   -3.7125    0.0000 H   0  0  0  0  0  0  0  0  0  0  0  0
    0.7145   -4.5375    0.0000 H   0  0  0  0  0  0  0  0  0  0  0  0
   -0.7145   -3.7125    0.0000 H   0  0  0  0  0  0  0  0  0  0  0  0
   -0.7145   -2.0625    0.0000 H   0  0  0  0  0  0  0  0  0  0  0  0
   -0.7145   -0.4125    0.0000 H   0  0  0  0  0  0  0  0  0  0  0  0
   -0.7145    1.2375    0.0000 H   0  0  0  0  0  0  0  0  0  0  0  0
    0.7145    2.0625    0.0000 H   0  0  0  0  0  0  0  0  0  0  0  0
    2.1434    1.2375    0.0000 H   0  0  0  0  0  0  0  0  0  0  0  0
    2.1434   -0.4125    0.0000 H   0  0  0  0  0  0  0  0  0  0  0  0
  1  2  2  0  0  0  0
  2  3  2  0  0  0  0
  2  4  1  0  0  0  0
  4  5  4  0  0  0  0
  5  6  4  0  0  0  0
  6  7  4  0  0  0  0
  7  8  4  0  0  0  0
  8  9  4  0  0  0  0
  4  9  4  0  0  0  0
  2 10  1  0  0  0  0
 10 11  4  0  0  0  0
 11 12  4  0  0  0  0
 12 13  4  0  0  0  0
 13 14  4  0  0  0  0
 14 15  4  0  0  0  0
 10 15  4  0  0  0  0
  5 16  1  0  0  0  0
  6 17  1  0  0  0  0
  7 18  1  0  0  0  0
  8 19  1  0  0  0  0
  9 20  1  0  0  0  0
 11 21  1  0  0  0  0
 12 22  1  0  0  0  0
 13 23  1  0  0  0  0
 14 24  1  0  0  0  0
 15 25  1  0  0  0  0
M  END
>  <InChIKey>
KZTYYGOKRVBIMI-UHFFFAOYSA-N

>  <UN GHS>
Non-irritant

>  <CASRN>
127-63-9

> <Outcome>
0

>  <Index>
419

>  <StandardizerResult>
Dearomatize (ID: Dearomatize)
Clear Stereo (ID: ClearStereo)
Wedge Clean (ID: WedgeClean)
Mesomerize (ID: Mesomerize)
Tautomerize (ID: Tautomerize)
Aromatize (ID: Aromatize)
Add Explicit Hydrogens (ID: AddExplicitH)
Neutralize (ID: Neutralize)
Clean 2D (ID: Clean2D)

> <knn Distance>
4.12310552597046

> <CpId>
419

$$$$
421
  Mrv1532301301811342D          

 51 52  0  0  0  0            999 V2000
    3.6020   -3.7164    0.0000 C   0  0  0  0  0  0  0  0  0  0  0  0
    4.3165   -4.1289    0.0000 O   0  0  0  0  0  0  0  0  0  0  0  0
    4.3165   -4.9539    0.0000 C   0  0  0  0  0  0  0  0  0  0  0  0
    5.0309   -5.3664    0.0000 C   0  0  0  0  0  0  0  0  0  0  0  0
    5.0309   -6.1914    0.0000 C   0  0  0  0  0  0  0  0  0  0  0  0
    5.7454   -6.6039    0.0000 C   0  0  0  0  0  0  0  0  0  0  0  0
    5.7454   -7.4289    0.0000 C   0  0  0  0  0  0  0  0  0  0  0  0
    6.4599   -7.8414    0.0000 C   0  0  0  0  0  0  0  0  0  0  0  0
    7.1744   -7.4289    0.0000 O   0  0  0  0  0  0  0  0  0  0  0  0
    6.4599   -8.6664    0.0000 C   0  0  0  0  0  0  0  0  0  0  0  0
    7.1744   -9.0789    0.0000 C   0  0  0  0  0  0  0  0  0  0  0  0
    7.8888   -8.6664    0.0000 O   0  0  0  0  0  0  0  0  0  0  0  0
    7.1744   -9.9039    0.0000 C   0  0  0  0  0  0  0  0  0  0  0  0
    7.8888  -10.3164    0.0000 C   0  0  0  0  0  0  0  0  0  0  0  0
    7.8888  -11.1414    0.0000 C   0  0  0  0  0  0  0  0  0  0  0  0
    8.6033  -11.5539    0.0000 C   0  0  0  0  0  0  0  0  0  0  0  0
    8.6033  -12.3789    0.0000 C   0  0  0  0  0  0  0  0  0  0  0  0
    7.8888  -12.7914    0.0000 C   0  0  0  0  0  0  0  0  0  0  0  0
    7.8888  -13.6164    0.0000 O   0  0  0  0  0  0  0  0  0  0  0  0
    7.1744  -12.3789    0.0000 C   0  0  0  0  0  0  0  0  0  0  0  0
    6.4599  -12.7914    0.0000 O   0  0  0  0  0  0  0  0  0  0  0  0
    5.7454  -12.3789    0.0000 C   0  0  0  0  0  0  0  0  0  0  0  0
    7.1744  -11.5539    0.0000 C   0  0  0  0  0  0  0  0  0  0  0  0
    4.3165   -6.6039    0.0000 C   0  0  0  0  0  0  0  0  0  0  0  0
    3.6020   -6.1914    0.0000 C   0  0  0  0  0  0  0  0  0  0  0  0
    3.6020   -5.3664    0.0000 C   0  0  0  0  0  0  0  0  0  0  0  0
    2.8875   -4.9539    0.0000 O   0  0  0  0  0  0  0  0  0  0  0  0
    4.0145   -3.0019    0.0000 H   0  0  0  0  0  0  0  0  0  0  0  0
    2.8875   -3.3039    0.0000 H   0  0  0  0  0  0  0  0  0  0  0  0
    3.1895   -4.4309    0.0000 H   0  0  0  0  0  0  0  0  0  0  0  0
    5.7454   -4.9539    0.0000 H   0  0  0  0  0  0  0  0  0  0  0  0
    6.5690   -6.5559    0.0000 H   0  0  0  0  0  0  0  0  0  0  0  0
    6.1988   -5.9146    0.0000 H   0  0  0  0  0  0  0  0  0  0  0  0
    4.9218   -7.4769    0.0000 H   0  0  0  0  0  0  0  0  0  0  0  0
    5.2921   -8.1182    0.0000 H   0  0  0  0  0  0  0  0  0  0  0  0
    7.8888   -7.8414    0.0000 H   0  0  0  0  0  0  0  0  0  0  0  0
    5.7454   -9.0789    0.0000 H   0  0  0  0  0  0  0  0  0  0  0  0
    6.3508   -9.9519    0.0000 H   0  0  0  0  0  0  0  0  0  0  0  0
    6.7210  -10.5932    0.0000 H   0  0  0  0  0  0  0  0  0  0  0  0
    8.7124  -10.2684    0.0000 H   0  0  0  0  0  0  0  0  0  0  0  0
    8.3422   -9.6271    0.0000 H   0  0  0  0  0  0  0  0  0  0  0  0
    9.3178  -11.1414    0.0000 H   0  0  0  0  0  0  0  0  0  0  0  0
    9.3178  -12.7914    0.0000 H   0  0  0  0  0  0  0  0  0  0  0  0
    7.1744  -14.0289    0.0000 H   0  0  0  0  0  0  0  0  0  0  0  0
    6.1579  -11.6644    0.0000 H   0  0  0  0  0  0  0  0  0  0  0  0
    5.0309  -11.9664    0.0000 H   0  0  0  0  0  0  0  0  0  0  0  0
    5.3329  -13.0934    0.0000 H   0  0  0  0  0  0  0  0  0  0  0  0
    6.4599  -11.1414    0.0000 H   0  0  0  0  0  0  0  0  0  0  0  0
    4.3165   -7.4289    0.0000 H   0  0  0  0  0  0  0  0  0  0  0  0
    2.8875   -6.6039    0.0000 H   0  0  0  0  0  0  0  0  0  0  0  0
    2.0906   -5.1674    0.0000 H   0  0  0  0  0  0  0  0  0  0  0  0
  1  2  1  0  0  0  0
  2  3  1  0  0  0  0
  3  4  4  0  0  0  0
  4  5  4  0  0  0  0
  5  6  1  0  0  0  0
  6  7  1  0  0  0  0
  7  8  1  0  0  0  0
  8  9  1  0  0  0  0
  8 10  2  0  0  0  0
 10 11  1  4  0  0  0
 11 12  2  0  0  0  0
 11 13  1  0  0  0  0
 13 14  1  0  0  0  0
 14 15  1  0  0  0  0
 15 16  4  0  0  0  0
 16 17  4  0  0  0  0
 17 18  4  0  0  0  0
 18 19  1  0  0  0  0
 18 20  4  0  0  0  0
 20 21  1  0  0  0  0
 21 22  1  0  0  0  0
 20 23  4  0  0  0  0
 15 23  4  0  0  0  0
  5 24  4  0  0  0  0
 24 25  4  0  0  0  0
 25 26  4  0  0  0  0
  3 26  4  0  0  0  0
 26 27  1  0  0  0  0
  1 28  1  0  0  0  0
  1 29  1  0  0  0  0
  1 30  1  0  0  0  0
  4 31  1  0  0  0  0
  6 32  1  0  0  0  0
  6 33  1  0  0  0  0
  7 34  1  0  0  0  0
  7 35  1  0  0  0  0
  9 36  1  0  0  0  0
 10 37  1  0  0  0  0
 13 38  1  0  0  0  0
 13 39  1  0  0  0  0
 14 40  1  0  0  0  0
 14 41  1  0  0  0  0
 16 42  1  0  0  0  0
 17 43  1  0  0  0  0
 19 44  1  0  0  0  0
 22 45  1  0  0  0  0
 22 46  1  0  0  0  0
 22 47  1  0  0  0  0
 23 48  1  0  0  0  0
 24 49  1  0  0  0  0
 25 50  1  0  0  0  0
 27 51  1  0  0  0  0
M  END
>  <InChIKey>
LBTVHXHERHESKG-UHFFFAOYSA-N

>  <UN GHS>
Non-irritant

>  <CASRN>
36062-04-1

> <Outcome>
0

>  <Index>
421

>  <StandardizerResult>
Dearomatize (ID: Dearomatize)
Clear Stereo (ID: ClearStereo)
Wedge Clean (ID: WedgeClean)
Mesomerize (ID: Mesomerize)
Tautomerize (ID: Tautomerize)
Aromatize (ID: Aromatize)
Add Explicit Hydrogens (ID: AddExplicitH)
Neutralize (ID: Neutralize)
Clean 2D (ID: Clean2D)

> <knn Distance>
4.12310552597046

> <CpId>
421

$$$$
425
  Mrv1532301301811342D          

 19 18  0  0  0  0            999 V2000
    1.7171    1.3535    0.0000 N   0  0  0  0  0  0  0  0  0  0  0  0
    1.3046    0.6390    0.0000 C   0  0  0  0  0  0  0  0  0  0  0  0
    0.5901    1.0515    0.0000 C   0  0  0  0  0  0  0  0  0  0  0  0
   -0.1244    0.6390    0.0000 O   0  0  0  0  0  0  0  0  0  0  0  0
    2.0190    0.2265    0.0000 C   0  0  0  0  0  0  0  0  0  0  0  0
    2.7335    0.6390    0.0000 O   0  0  0  0  0  0  0  0  0  0  0  0
    0.8921   -0.0755    0.0000 C   0  0  0  0  0  0  0  0  0  0  0  0
    0.0671   -0.0755    0.0000 O   0  0  0  0  0  0  0  0  0  0  0  0
    2.5421    1.3535    0.0000 H   0  0  0  0  0  0  0  0  0  0  0  0
    1.3046    2.0680    0.0000 H   0  0  0  0  0  0  0  0  0  0  0  0
    0.9604    1.7888    0.0000 H   0  0  0  0  0  0  0  0  0  0  0  0
    0.2198    1.7888    0.0000 H   0  0  0  0  0  0  0  0  0  0  0  0
   -0.8866    0.9547    0.0000 H   0  0  0  0  0  0  0  0  0  0  0  0
    1.6488   -0.5107    0.0000 H   0  0  0  0  0  0  0  0  0  0  0  0
    2.3893   -0.5107    0.0000 H   0  0  0  0  0  0  0  0  0  0  0  0
    3.4957    0.3233    0.0000 H   0  0  0  0  0  0  0  0  0  0  0  0
    0.6792   -0.8725    0.0000 H   0  0  0  0  0  0  0  0  0  0  0  0
    0.4796    0.6390    0.0000 H   0  0  0  0  0  0  0  0  0  0  0  0
   -0.4352   -0.7300    0.0000 H   0  0  0  0  0  0  0  0  0  0  0  0
  1  2  1  0  0  0  0
  2  3  1  0  0  0  0
  3  4  1  0  0  0  0
  2  5  1  0  0  0  0
  5  6  1  0  0  0  0
  2  7  1  0  0  0  0
  7  8  1  0  0  0  0
  1  9  1  0  0  0  0
  1 10  1  0  0  0  0
  3 11  1  0  0  0  0
  3 12  1  0  0  0  0
  4 13  1  0  0  0  0
  5 14  1  0  0  0  0
  5 15  1  0  0  0  0
  6 16  1  0  0  0  0
  7 17  1  0  0  0  0
  7 18  1  0  0  0  0
  8 19  1  0  0  0  0
M  END
>  <InChIKey>
LENZDBCJOHFCAS-UHFFFAOYSA-N

>  <UN GHS>
Non-irritant

>  <CASRN>
77-86-1

> <Outcome>
0

>  <Index>
425

>  <StandardizerResult>
Clear Stereo (ID: ClearStereo)
Wedge Clean (ID: WedgeClean)
Mesomerize (ID: Mesomerize)
Tautomerize (ID: Tautomerize)
Add Explicit Hydrogens (ID: AddExplicitH)
Neutralize (ID: Neutralize)
Clean 2D (ID: Clean2D)

> <knn Distance>
4.12310552597046

> <CpId>
425

$$$$
604
  Mrv1532301301811342D          

 27 26  0  0  0  0            999 V2000
    2.9626    2.5524    0.0000 N   0  0  0  0  0  0  0  0  0  0  0  0
    3.6771    2.1399    0.0000 C   0  0  0  0  0  0  0  0  0  0  0  0
    4.3915    2.5524    0.0000 C   0  0  0  0  0  0  0  0  0  0  0  0
    4.3915    3.3774    0.0000 O   0  0  0  0  0  0  0  0  0  0  0  0
    5.1060    2.1399    0.0000 N   0  0  0  0  0  0  0  0  0  0  0  0
    5.8205    2.5524    0.0000 C   0  0  0  0  0  0  0  0  0  0  0  0
    6.5349    2.1399    0.0000 C   0  0  0  0  0  0  0  0  0  0  0  0
    7.2494    2.5524    0.0000 C   0  0  0  0  0  0  0  0  0  0  0  0
    7.9639    2.1399    0.0000 C   0  0  0  0  0  0  0  0  0  0  0  0
    8.6783    2.5524    0.0000 N   0  0  0  0  0  0  0  0  0  0  0  0
    7.9639    1.3149    0.0000 O   0  0  0  0  0  0  0  0  0  0  0  0
    5.8205    3.3774    0.0000 C   0  0  0  0  0  0  0  0  0  0  0  0
    6.5349    3.7899    0.0000 O   0  0  0  0  0  0  0  0  0  0  0  0
    5.1060    3.7899    0.0000 O   0  0  0  0  0  0  0  0  0  0  0  0
    2.9626    3.3774    0.0000 H   0  0  0  0  0  0  0  0  0  0  0  0
    2.2481    2.1399    0.0000 H   0  0  0  0  0  0  0  0  0  0  0  0
    3.3068    1.4027    0.0000 H   0  0  0  0  0  0  0  0  0  0  0  0
    4.0473    1.4027    0.0000 H   0  0  0  0  0  0  0  0  0  0  0  0
    5.1060    1.3149    0.0000 H   0  0  0  0  0  0  0  0  0  0  0  0
    5.8205    1.7274    0.0000 H   0  0  0  0  0  0  0  0  0  0  0  0
    6.6782    1.3275    0.0000 H   0  0  0  0  0  0  0  0  0  0  0  0
    7.1669    1.6096    0.0000 H   0  0  0  0  0  0  0  0  0  0  0  0
    7.6197    3.2897    0.0000 H   0  0  0  0  0  0  0  0  0  0  0  0
    6.8791    3.2897    0.0000 H   0  0  0  0  0  0  0  0  0  0  0  0
    9.3928    2.1399    0.0000 H   0  0  0  0  0  0  0  0  0  0  0  0
    8.6783    3.3774    0.0000 H   0  0  0  0  0  0  0  0  0  0  0  0
    6.7168    4.5946    0.0000 H   0  0  0  0  0  0  0  0  0  0  0  0
  1  2  1  0  0  0  0
  2  3  1  0  0  0  0
  3  4  2  0  0  0  0
  3  5  1  0  0  0  0
  5  6  1  0  0  0  0
  6  7  1  0  0  0  0
  7  8  1  0  0  0  0
  8  9  1  0  0  0  0
  9 10  1  0  0  0  0
  9 11  2  0  0  0  0
  6 12  1  0  0  0  0
 12 13  1  0  0  0  0
 12 14  2  0  0  0  0
  1 15  1  0  0  0  0
  1 16  1  0  0  0  0
  2 17  1  0  0  0  0
  2 18  1  0  0  0  0
  5 19  1  0  0  0  0
  6 20  1  0  0  0  0
  7 21  1  0  0  0  0
  7 22  1  0  0  0  0
  8 23  1  0  0  0  0
  8 24  1  0  0  0  0
 10 25  1  0  0  0  0
 10 26  1  0  0  0  0
 13 27  1  0  0  0  0
M  END
>  <InChIKey>
PNMUAGGSDZXTHX-BYPYZUCNSA-N

>  <UN GHS>
Non-irritant

>  <CASRN>
13115-71-4

> <Outcome>
0

>  <Index>
604

>  <StandardizerResult>
Clear Stereo (ID: ClearStereo)
Wedge Clean (ID: WedgeClean)
Mesomerize (ID: Mesomerize)
Tautomerize (ID: Tautomerize)
Add Explicit Hydrogens (ID: AddExplicitH)
Neutralize (ID: Neutralize)
Clean 2D (ID: Clean2D)

> <knn Distance>
4.12310552597046

> <CpId>
604

$$$$
749
  Mrv1532301301811342D          

 88 89  0  0  0  0            999 V2000
    0.7981    1.5722    0.0000 C   0  0  0  0  0  0  0  0  0  0  0  0
    0.0837    1.1597    0.0000 C   0  0  0  0  0  0  0  0  0  0  0  0
   -0.6308    1.5722    0.0000 O   0  0  0  0  0  0  0  0  0  0  0  0
   -1.3453    1.1597    0.0000 P   0  0  0  0  0  0  0  0  0  0  0  0
   -0.9328    0.4452    0.0000 O   0  0  0  0  0  0  0  0  0  0  0  0
   -2.0598    0.7472    0.0000 O   0  0  0  0  0  0  0  0  0  0  0  0
   -2.0598   -0.0778    0.0000 C   0  0  0  0  0  0  0  0  0  0  0  0
   -1.3453   -0.4903    0.0000 C   0  0  0  0  0  0  0  0  0  0  0  0
   -0.6308   -0.0778    0.0000 C   0  0  0  0  0  0  0  0  0  0  0  0
   -1.3453   -1.3153    0.0000 C   0  0  0  0  0  0  0  0  0  0  0  0
   -2.0598   -1.7278    0.0000 C   0  0  0  0  0  0  0  0  0  0  0  0
   -2.7742   -1.3153    0.0000 C   0  0  0  0  0  0  0  0  0  0  0  0
   -2.7742   -0.4903    0.0000 C   0  0  0  0  0  0  0  0  0  0  0  0
   -3.4887   -0.0778    0.0000 C   0  0  0  0  0  0  0  0  0  0  0  0
   -4.2032    0.3347    0.0000 C   0  0  0  0  0  0  0  0  0  0  0  0
   -3.0762    0.6366    0.0000 C   0  0  0  0  0  0  0  0  0  0  0  0
   -3.9012   -0.7923    0.0000 C   0  0  0  0  0  0  0  0  0  0  0  0
   -2.0598   -2.5528    0.0000 C   0  0  0  0  0  0  0  0  0  0  0  0
   -2.0598   -3.3778    0.0000 C   0  0  0  0  0  0  0  0  0  0  0  0
   -1.2348   -2.5528    0.0000 C   0  0  0  0  0  0  0  0  0  0  0  0
   -2.8848   -2.5528    0.0000 C   0  0  0  0  0  0  0  0  0  0  0  0
   -1.7578    1.8741    0.0000 O   0  0  0  0  0  0  0  0  0  0  0  0
   -2.5828    1.8741    0.0000 C   0  0  0  0  0  0  0  0  0  0  0  0
   -2.9953    1.1597    0.0000 C   0  0  0  0  0  0  0  0  0  0  0  0
   -2.5828    0.4452    0.0000 C   0  0  0  0  0  0  0  0  0  0  0  0
   -3.8203    1.1597    0.0000 C   0  0  0  0  0  0  0  0  0  0  0  0
   -4.2328    1.8741    0.0000 C   0  0  0  0  0  0  0  0  0  0  0  0
   -3.8203    2.5886    0.0000 C   0  0  0  0  0  0  0  0  0  0  0  0
   -2.9953    2.5886    0.0000 C   0  0  0  0  0  0  0  0  0  0  0  0
   -2.5828    3.3031    0.0000 C   0  0  0  0  0  0  0  0  0  0  0  0
   -2.1703    4.0175    0.0000 C   0  0  0  0  0  0  0  0  0  0  0  0
   -1.8683    2.8906    0.0000 C   0  0  0  0  0  0  0  0  0  0  0  0
   -3.2973    3.7156    0.0000 C   0  0  0  0  0  0  0  0  0  0  0  0
   -5.0578    1.8741    0.0000 C   0  0  0  0  0  0  0  0  0  0  0  0
   -5.8828    1.8741    0.0000 C   0  0  0  0  0  0  0  0  0  0  0  0
   -5.0578    2.6991    0.0000 C   0  0  0  0  0  0  0  0  0  0  0  0
   -5.0578    1.0491    0.0000 C   0  0  0  0  0  0  0  0  0  0  0  0
    1.2106    0.8577    0.0000 H   0  0  0  0  0  0  0  0  0  0  0  0
    1.5126    1.9847    0.0000 H   0  0  0  0  0  0  0  0  0  0  0  0
    0.3856    2.2866    0.0000 H   0  0  0  0  0  0  0  0  0  0  0  0
   -0.2866    0.4224    0.0000 H   0  0  0  0  0  0  0  0  0  0  0  0
    0.4539    0.4224    0.0000 H   0  0  0  0  0  0  0  0  0  0  0  0
   -0.7547   -0.8935    0.0000 H   0  0  0  0  0  0  0  0  0  0  0  0
   -0.0710   -0.6838    0.0000 H   0  0  0  0  0  0  0  0  0  0  0  0
    0.1921   -0.0188    0.0000 H   0  0  0  0  0  0  0  0  0  0  0  0
   -0.8988   -2.0091    0.0000 H   0  0  0  0  0  0  0  0  0  0  0  0
   -3.4887   -1.7278    0.0000 H   0  0  0  0  0  0  0  0  0  0  0  0
   -4.7480    0.9542    0.0000 H   0  0  0  0  0  0  0  0  0  0  0  0
   -4.9898    0.0859    0.0000 H   0  0  0  0  0  0  0  0  0  0  0  0
   -4.2926   -0.4855    0.0000 H   0  0  0  0  0  0  0  0  0  0  0  0
   -3.0340   -0.1873    0.0000 H   0  0  0  0  0  0  0  0  0  0  0  0
   -2.5929   -0.0320    0.0000 H   0  0  0  0  0  0  0  0  0  0  0  0
   -3.8818    0.4588    0.0000 H   0  0  0  0  0  0  0  0  0  0  0  0
   -4.6052   -1.2225    0.0000 H   0  0  0  0  0  0  0  0  0  0  0  0
   -3.7444   -1.6023    0.0000 H   0  0  0  0  0  0  0  0  0  0  0  0
   -3.0876   -0.9288    0.0000 H   0  0  0  0  0  0  0  0  0  0  0  0
   -2.8848   -3.3778    0.0000 H   0  0  0  0  0  0  0  0  0  0  0  0
   -2.0598   -4.2028    0.0000 H   0  0  0  0  0  0  0  0  0  0  0  0
   -1.2348   -3.3778    0.0000 H   0  0  0  0  0  0  0  0  0  0  0  0
   -0.6081   -3.0894    0.0000 H   0  0  0  0  0  0  0  0  0  0  0  0
   -0.4196   -2.4258    0.0000 H   0  0  0  0  0  0  0  0  0  0  0  0
   -1.6365   -1.8323    0.0000 H   0  0  0  0  0  0  0  0  0  0  0  0
   -2.5690   -1.7906    0.0000 H   0  0  0  0  0  0  0  0  0  0  0  0
   -3.4681   -1.9695    0.0000 H   0  0  0  0  0  0  0  0  0  0  0  0
   -3.6470   -2.8686    0.0000 H   0  0  0  0  0  0  0  0  0  0  0  0
   -2.1703    1.1597    0.0000 H   0  0  0  0  0  0  0  0  0  0  0  0
   -2.5828    1.2702    0.0000 H   0  0  0  0  0  0  0  0  0  0  0  0
   -3.2684   -0.0137    0.0000 H   0  0  0  0  0  0  0  0  0  0  0  0
   -3.4078    1.8741    0.0000 H   0  0  0  0  0  0  0  0  0  0  0  0
   -4.2328    3.3031    0.0000 H   0  0  0  0  0  0  0  0  0  0  0  0
   -1.4558    3.6050    0.0000 H   0  0  0  0  0  0  0  0  0  0  0  0
   -1.7578    4.7320    0.0000 H   0  0  0  0  0  0  0  0  0  0  0  0
   -2.8848    4.4300    0.0000 H   0  0  0  0  0  0  0  0  0  0  0  0
   -2.5228    2.3883    0.0000 H   0  0  0  0  0  0  0  0  0  0  0  0
   -1.6548    2.0937    0.0000 H   0  0  0  0  0  0  0  0  0  0  0  0
   -1.0504    2.7829    0.0000 H   0  0  0  0  0  0  0  0  0  0  0  0
   -3.7995    4.3701    0.0000 H   0  0  0  0  0  0  0  0  0  0  0  0
   -4.0941    3.5020    0.0000 H   0  0  0  0  0  0  0  0  0  0  0  0
   -3.4049    2.8976    0.0000 H   0  0  0  0  0  0  0  0  0  0  0  0
   -5.8828    2.6991    0.0000 H   0  0  0  0  0  0  0  0  0  0  0  0
   -6.7078    1.8741    0.0000 H   0  0  0  0  0  0  0  0  0  0  0  0
   -5.8828    1.0491    0.0000 H   0  0  0  0  0  0  0  0  0  0  0  0
   -4.2956    2.3834    0.0000 H   0  0  0  0  0  0  0  0  0  0  0  0
   -4.4744    3.2825    0.0000 H   0  0  0  0  0  0  0  0  0  0  0  0
   -5.3735    3.4613    0.0000 H   0  0  0  0  0  0  0  0  0  0  0  0
   -5.6202    0.4456    0.0000 H   0  0  0  0  0  0  0  0  0  0  0  0
   -4.3944    1.5396    0.0000 H   0  0  0  0  0  0  0  0  0  0  0  0
   -5.6412    1.6325    0.0000 H   0  0  0  0  0  0  0  0  0  0  0  0
  1  2  1  0  0  0  0
  2  3  1  0  0  0  0
  3  4  1  0  0  0  0
  4  5  2  0  0  0  0
  4  6  1  0  0  0  0
  6  7  1  0  0  0  0
  7  8  4  0  0  0  0
  8  9  1  0  0  0  0
  8 10  4  0  0  0  0
 10 11  4  0  0  0  0
 11 12  4  0  0  0  0
 12 13  4  0  0  0  0
  7 13  4  0  0  0  0
 13 14  1  0  0  0  0
 14 15  1  0  0  0  0
 14 16  1  0  0  0  0
 14 17  1  0  0  0  0
 11 18  1  0  0  0  0
 18 19  1  0  0  0  0
 18 20  1  0  0  0  0
 18 21  1  0  0  0  0
  4 22  1  0  0  0  0
 22 23  1  0  0  0  0
 23 24  4  0  0  0  0
 24 25  1  0  0  0  0
 24 26  4  0  0  0  0
 26 27  4  0  0  0  0
 27 28  4  0  0  0  0
 28 29  4  0  0  0  0
 23 29  4  0  0  0  0
 29 30  1  0  0  0  0
 30 31  1  0  0  0  0
 30 32  1  0  0  0  0
 30 33  1  0  0  0  0
 27 34  1  0  0  0  0
 34 35  1  0  0  0  0
 34 36  1  0  0  0  0
 34 37  1  0  0  0  0
  1 38  1  0  0  0  0
  1 39  1  0  0  0  0
  1 40  1  0  0  0  0
  2 41  1  0  0  0  0
  2 42  1  0  0  0  0
  9 43  1  0  0  0  0
  9 44  1  0  0  0  0
  9 45  1  0  0  0  0
 10 46  1  0  0  0  0
 12 47  1  0  0  0  0
 15 48  1  0  0  0  0
 15 49  1  0  0  0  0
 15 50  1  0  0  0  0
 16 51  1  0  0  0  0
 16 52  1  0  0  0  0
 16 53  1  0  0  0  0
 17 54  1  0  0  0  0
 17 55  1  0  0  0  0
 17 56  1  0  0  0  0
 19 57  1  0  0  0  0
 19 58  1  0  0  0  0
 19 59  1  0  0  0  0
 20 60  1  0  0  0  0
 20 61  1  0  0  0  0
 20 62  1  0  0  0  0
 21 63  1  0  0  0  0
 21 64  1  0  0  0  0
 21 65  1  0  0  0  0
 25 66  1  0  0  0  0
 25 67  1  0  0  0  0
 25 68  1  0  0  0  0
 26 69  1  0  0  0  0
 28 70  1  0  0  0  0
 31 71  1  0  0  0  0
 31 72  1  0  0  0  0
 31 73  1  0  0  0  0
 32 74  1  0  0  0  0
 32 75  1  0  0  0  0
 32 76  1  0  0  0  0
 33 77  1  0  0  0  0
 33 78  1  0  0  0  0
 33 79  1  0  0  0  0
 35 80  1  0  0  0  0
 35 81  1  0  0  0  0
 35 82  1  0  0  0  0
 36 83  1  0  0  0  0
 36 84  1  0  0  0  0
 36 85  1  0  0  0  0
 37 86  1  0  0  0  0
 37 87  1  0  0  0  0
 37 88  1  0  0  0  0
M  END
>  <InChIKey>
SVNCDHBIQPXHHA-UHFFFAOYSA-N

>  <UN GHS>
Non-irritant

>  <CASRN>
145650-60-8

> <Outcome>
0

>  <Index>
749

>  <StandardizerResult>
Dearomatize (ID: Dearomatize)
Clear Stereo (ID: ClearStereo)
Wedge Clean (ID: WedgeClean)
Mesomerize (ID: Mesomerize)
Tautomerize (ID: Tautomerize)
Aromatize (ID: Aromatize)
Add Explicit Hydrogens (ID: AddExplicitH)
Neutralize (ID: Neutralize)
Clean 2D (ID: Clean2D)

> <knn Distance>
4.12310552597046

> <CpId>
749

$$$$
788
  Mrv1532301301811342D          

 80 82  0  0  0  0            999 V2000
    2.5898   -4.0081    0.0000 C   0  0  0  0  0  0  0  0  0  0  0  0
    2.8447   -3.2235    0.0000 C   0  0  0  0  0  0  0  0  0  0  0  0
    3.6517   -3.0520    0.0000 O   0  0  0  0  0  0  0  0  0  0  0  0
    2.2927   -2.6104    0.0000 O   0  0  0  0  0  0  0  0  0  0  0  0
    1.4857   -2.7819    0.0000 C   0  0  0  0  0  0  0  0  0  0  0  0
    1.2308   -3.5665    0.0000 C   0  0  0  0  0  0  0  0  0  0  0  0
    0.4238   -3.7381    0.0000 C   0  0  0  0  0  0  0  0  0  0  0  0
   -0.1282   -3.1250    0.0000 C   0  0  0  0  0  0  0  0  0  0  0  0
    0.1267   -2.3404    0.0000 C   0  0  0  0  0  0  0  0  0  0  0  0
    0.9337   -2.1688    0.0000 C   0  0  0  0  0  0  0  0  0  0  0  0
    1.1886   -1.3842    0.0000 C   0  0  0  0  0  0  0  0  0  0  0  0
    0.7037   -0.7168    0.0000 C   0  0  0  0  0  0  0  0  0  0  0  0
   -0.1213   -0.7168    0.0000 O   0  0  0  0  0  0  0  0  0  0  0  0
    1.1886   -0.0493    0.0000 O   0  0  0  0  0  0  0  0  0  0  0  0
    1.9733   -0.3043    0.0000 C   0  0  0  0  0  0  0  0  0  0  0  0
    2.6877    0.1082    0.0000 C   0  0  0  0  0  0  0  0  0  0  0  0
    3.4022   -0.3043    0.0000 C   0  0  0  0  0  0  0  0  0  0  0  0
    3.4022   -1.1293    0.0000 C   0  0  0  0  0  0  0  0  0  0  0  0
    2.6877   -1.5418    0.0000 C   0  0  0  0  0  0  0  0  0  0  0  0
    1.9733   -1.1293    0.0000 C   0  0  0  0  0  0  0  0  0  0  0  0
    4.1167   -1.5418    0.0000 C   0  0  0  0  0  0  0  0  0  0  0  0
    4.5292   -0.8273    0.0000 C   0  0  0  0  0  0  0  0  0  0  0  0
    3.7042   -2.2562    0.0000 C   0  0  0  0  0  0  0  0  0  0  0  0
    4.8311   -1.9543    0.0000 C   0  0  0  0  0  0  0  0  0  0  0  0
    5.5456   -1.5418    0.0000 C   0  0  0  0  0  0  0  0  0  0  0  0
    6.2601   -1.1293    0.0000 C   0  0  0  0  0  0  0  0  0  0  0  0
    5.1331   -0.8273    0.0000 C   0  0  0  0  0  0  0  0  0  0  0  0
    5.9581   -2.2562    0.0000 C   0  0  0  0  0  0  0  0  0  0  0  0
   -0.9352   -3.2965    0.0000 C   0  0  0  0  0  0  0  0  0  0  0  0
   -1.1067   -2.4895    0.0000 C   0  0  0  0  0  0  0  0  0  0  0  0
   -0.7637   -4.1035    0.0000 C   0  0  0  0  0  0  0  0  0  0  0  0
   -1.7422   -3.4680    0.0000 C   0  0  0  0  0  0  0  0  0  0  0  0
   -1.9971   -4.2527    0.0000 C   0  0  0  0  0  0  0  0  0  0  0  0
   -2.2520   -5.0373    0.0000 C   0  0  0  0  0  0  0  0  0  0  0  0
   -2.7817   -3.9977    0.0000 C   0  0  0  0  0  0  0  0  0  0  0  0
   -1.2125   -4.5076    0.0000 C   0  0  0  0  0  0  0  0  0  0  0  0
    1.8052   -3.7532    0.0000 H   0  0  0  0  0  0  0  0  0  0  0  0
    2.3349   -4.7927    0.0000 H   0  0  0  0  0  0  0  0  0  0  0  0
    3.3744   -4.2630    0.0000 H   0  0  0  0  0  0  0  0  0  0  0  0
    1.1876   -4.3904    0.0000 H   0  0  0  0  0  0  0  0  0  0  0  0
    0.1689   -4.5227    0.0000 H   0  0  0  0  0  0  0  0  0  0  0  0
   -0.4253   -1.7273    0.0000 H   0  0  0  0  0  0  0  0  0  0  0  0
    1.7720   -1.9676    0.0000 H   0  0  0  0  0  0  0  0  0  0  0  0
    2.6877    0.9332    0.0000 H   0  0  0  0  0  0  0  0  0  0  0  0
    4.1167    0.1082    0.0000 H   0  0  0  0  0  0  0  0  0  0  0  0
    2.6877   -2.3668    0.0000 H   0  0  0  0  0  0  0  0  0  0  0  0
    4.9417   -0.1128    0.0000 H   0  0  0  0  0  0  0  0  0  0  0  0
    4.1167   -0.1128    0.0000 H   0  0  0  0  0  0  0  0  0  0  0  0
    3.7042   -0.8273    0.0000 H   0  0  0  0  0  0  0  0  0  0  0  0
    3.0703   -1.7281    0.0000 H   0  0  0  0  0  0  0  0  0  0  0  0
    2.8837   -2.3429    0.0000 H   0  0  0  0  0  0  0  0  0  0  0  0
    4.4936   -2.4959    0.0000 H   0  0  0  0  0  0  0  0  0  0  0  0
    5.4046   -2.5474    0.0000 H   0  0  0  0  0  0  0  0  0  0  0  0
    4.8311   -1.1293    0.0000 H   0  0  0  0  0  0  0  0  0  0  0  0
    6.6726   -1.8437    0.0000 H   0  0  0  0  0  0  0  0  0  0  0  0
    6.9746   -0.7168    0.0000 H   0  0  0  0  0  0  0  0  0  0  0  0
    5.8476   -0.4148    0.0000 H   0  0  0  0  0  0  0  0  0  0  0  0
    5.9300   -1.0408    0.0000 H   0  0  0  0  0  0  0  0  0  0  0  0
    5.4488   -0.0651    0.0000 H   0  0  0  0  0  0  0  0  0  0  0  0
    5.0254   -1.6452    0.0000 H   0  0  0  0  0  0  0  0  0  0  0  0
    5.7212   -3.0465    0.0000 H   0  0  0  0  0  0  0  0  0  0  0  0
    6.3565   -2.9787    0.0000 H   0  0  0  0  0  0  0  0  0  0  0  0
    6.7529   -2.4776    0.0000 H   0  0  0  0  0  0  0  0  0  0  0  0
   -0.2997   -2.3180    0.0000 H   0  0  0  0  0  0  0  0  0  0  0  0
   -1.2782   -1.6826    0.0000 H   0  0  0  0  0  0  0  0  0  0  0  0
   -1.9137   -2.6611    0.0000 H   0  0  0  0  0  0  0  0  0  0  0  0
   -0.5921   -4.9104    0.0000 H   0  0  0  0  0  0  0  0  0  0  0  0
    0.0210   -4.3584    0.0000 H   0  0  0  0  0  0  0  0  0  0  0  0
   -0.1506   -3.5514    0.0000 H   0  0  0  0  0  0  0  0  0  0  0  0
   -2.5660   -3.4249    0.0000 H   0  0  0  0  0  0  0  0  0  0  0  0
   -1.1901   -4.0811    0.0000 H   0  0  0  0  0  0  0  0  0  0  0  0
   -3.0367   -4.7823    0.0000 H   0  0  0  0  0  0  0  0  0  0  0  0
   -2.5070   -5.8219    0.0000 H   0  0  0  0  0  0  0  0  0  0  0  0
   -1.4674   -5.2922    0.0000 H   0  0  0  0  0  0  0  0  0  0  0  0
   -3.1307   -3.2502    0.0000 H   0  0  0  0  0  0  0  0  0  0  0  0
   -3.5603   -3.7248    0.0000 H   0  0  0  0  0  0  0  0  0  0  0  0
   -3.5210   -4.3638    0.0000 H   0  0  0  0  0  0  0  0  0  0  0  0
   -0.9371   -5.2853    0.0000 H   0  0  0  0  0  0  0  0  0  0  0  0
   -1.9475   -4.8821    0.0000 H   0  0  0  0  0  0  0  0  0  0  0  0
   -1.6798   -3.8277    0.0000 H   0  0  0  0  0  0  0  0  0  0  0  0
  1  2  1  0  0  0  0
  2  3  2  0  0  0  0
  2  4  1  0  0  0  0
  4  5  1  0  0  0  0
  5  6  4  0  0  0  0
  6  7  4  0  0  0  0
  7  8  4  0  0  0  0
  8  9  4  0  0  0  0
  9 10  4  0  0  0  0
  5 10  4  0  0  0  0
 10 11  1  0  0  0  0
 11 12  1  0  0  0  0
 12 13  2  0  0  0  0
 12 14  1  0  0  0  0
 14 15  1  0  0  0  0
 15 16  4  0  0  0  0
 16 17  4  0  0  0  0
 17 18  4  0  0  0  0
 18 19  4  0  0  0  0
 19 20  4  0  0  0  0
 11 20  1  0  0  0  0
 15 20  4  0  0  0  0
 18 21  1  0  0  0  0
 21 22  1  0  0  0  0
 21 23  1  0  0  0  0
 21 24  1  0  0  0  0
 24 25  1  0  0  0  0
 25 26  1  0  0  0  0
 25 27  1  0  0  0  0
 25 28  1  0  0  0  0
  8 29  1  0  0  0  0
 29 30  1  0  0  0  0
 29 31  1  0  0  0  0
 29 32  1  0  0  0  0
 32 33  1  0  0  0  0
 33 34  1  0  0  0  0
 33 35  1  0  0  0  0
 33 36  1  0  0  0  0
  1 37  1  0  0  0  0
  1 38  1  0  0  0  0
  1 39  1  0  0  0  0
  6 40  1  0  0  0  0
  7 41  1  0  0  0  0
  9 42  1  0  0  0  0
 11 43  1  0  0  0  0
 16 44  1  0  0  0  0
 17 45  1  0  0  0  0
 19 46  1  0  0  0  0
 22 47  1  0  0  0  0
 22 48  1  0  0  0  0
 22 49  1  0  0  0  0
 23 50  1  0  0  0  0
 23 51  1  0  0  0  0
 23 52  1  0  0  0  0
 24 53  1  0  0  0  0
 24 54  1  0  0  0  0
 26 55  1  0  0  0  0
 26 56  1  0  0  0  0
 26 57  1  0  0  0  0
 27 58  1  0  0  0  0
 27 59  1  0  0  0  0
 27 60  1  0  0  0  0
 28 61  1  0  0  0  0
 28 62  1  0  0  0  0
 28 63  1  0  0  0  0
 30 64  1  0  0  0  0
 30 65  1  0  0  0  0
 30 66  1  0  0  0  0
 31 67  1  0  0  0  0
 31 68  1  0  0  0  0
 31 69  1  0  0  0  0
 32 70  1  0  0  0  0
 32 71  1  0  0  0  0
 34 72  1  0  0  0  0
 34 73  1  0  0  0  0
 34 74  1  0  0  0  0
 35 75  1  0  0  0  0
 35 76  1  0  0  0  0
 35 77  1  0  0  0  0
 36 78  1  0  0  0  0
 36 79  1  0  0  0  0
 36 80  1  0  0  0  0
M  END
>  <InChIKey>
UHPDROGOQWZCNC-UHFFFAOYSA-N

>  <UN GHS>
Non-irritant

>  <CASRN>
216698-07-6

> <Outcome>
0

>  <Index>
788

>  <StandardizerResult>
Dearomatize (ID: Dearomatize)
Clear Stereo (ID: ClearStereo)
Wedge Clean (ID: WedgeClean)
Mesomerize (ID: Mesomerize)
Tautomerize (ID: Tautomerize)
Aromatize (ID: Aromatize)
Add Explicit Hydrogens (ID: AddExplicitH)
Neutralize (ID: Neutralize)
Clean 2D (ID: Clean2D)

> <knn Distance>
4.12310552597046

> <CpId>
788

$$$$
839
  Mrv1532301301811342D          

 27 28  0  0  0  0            999 V2000
    0.7145   -1.2375    0.0000 O   0  0  0  0  0  0  0  0  0  0  0  0
    0.7145   -2.0625    0.0000 C   0  0  0  0  0  0  0  0  0  0  0  0
    1.4289   -2.4750    0.0000 C   0  0  0  0  0  0  0  0  0  0  0  0
    1.4289   -3.3000    0.0000 C   0  0  0  0  0  0  0  0  0  0  0  0
    0.7145   -3.7125    0.0000 C   0  0  0  0  0  0  0  0  0  0  0  0
    0.0000   -3.3000    0.0000 C   0  0  0  0  0  0  0  0  0  0  0  0
    0.0000   -2.4750    0.0000 C   0  0  0  0  0  0  0  0  0  0  0  0
    0.7145   -4.5375    0.0000 S   0  0  0  0  0  0  0  0  0  0  0  0
   -0.1105   -4.5375    0.0000 O   0  0  0  0  0  0  0  0  0  0  0  0
    1.5395   -4.5375    0.0000 O   0  0  0  0  0  0  0  0  0  0  0  0
    0.7145   -5.3625    0.0000 C   0  0  0  0  0  0  0  0  0  0  0  0
    1.4289   -5.7750    0.0000 C   0  0  0  0  0  0  0  0  0  0  0  0
    1.4289   -6.6000    0.0000 C   0  0  0  0  0  0  0  0  0  0  0  0
    0.7145   -7.0125    0.0000 C   0  0  0  0  0  0  0  0  0  0  0  0
    0.7145   -7.8375    0.0000 O   0  0  0  0  0  0  0  0  0  0  0  0
    0.0000   -6.6000    0.0000 C   0  0  0  0  0  0  0  0  0  0  0  0
    0.0000   -5.7750    0.0000 C   0  0  0  0  0  0  0  0  0  0  0  0
    1.4289   -0.8250    0.0000 H   0  0  0  0  0  0  0  0  0  0  0  0
    2.1434   -2.0625    0.0000 H   0  0  0  0  0  0  0  0  0  0  0  0
    2.1434   -3.7125    0.0000 H   0  0  0  0  0  0  0  0  0  0  0  0
   -0.7145   -3.7125    0.0000 H   0  0  0  0  0  0  0  0  0  0  0  0
   -0.7145   -2.0625    0.0000 H   0  0  0  0  0  0  0  0  0  0  0  0
    2.1434   -5.3625    0.0000 H   0  0  0  0  0  0  0  0  0  0  0  0
    2.1434   -7.0125    0.0000 H   0  0  0  0  0  0  0  0  0  0  0  0
    0.0000   -8.2500    0.0000 H   0  0  0  0  0  0  0  0  0  0  0  0
   -0.7145   -7.0125    0.0000 H   0  0  0  0  0  0  0  0  0  0  0  0
   -0.7145   -5.3625    0.0000 H   0  0  0  0  0  0  0  0  0  0  0  0
  1  2  1  0  0  0  0
  2  3  4  0  0  0  0
  3  4  4  0  0  0  0
  4  5  4  0  0  0  0
  5  6  4  0  0  0  0
  6  7  4  0  0  0  0
  2  7  4  0  0  0  0
  5  8  1  0  0  0  0
  8  9  2  0  0  0  0
  8 10  2  0  0  0  0
  8 11  1  0  0  0  0
 11 12  4  0  0  0  0
 12 13  4  0  0  0  0
 13 14  4  0  0  0  0
 14 15  1  0  0  0  0
 14 16  4  0  0  0  0
 16 17  4  0  0  0  0
 11 17  4  0  0  0  0
  1 18  1  0  0  0  0
  3 19  1  0  0  0  0
  4 20  1  0  0  0  0
  6 21  1  0  0  0  0
  7 22  1  0  0  0  0
 12 23  1  0  0  0  0
 13 24  1  0  0  0  0
 15 25  1  0  0  0  0
 16 26  1  0  0  0  0
 17 27  1  0  0  0  0
M  END
>  <InChIKey>
VPWNQTHUCYMVMZ-UHFFFAOYSA-N

>  <UN GHS>
Non-irritant

>  <CASRN>
80-09-1

> <Outcome>
0

>  <Index>
839

>  <StandardizerResult>
Dearomatize (ID: Dearomatize)
Clear Stereo (ID: ClearStereo)
Wedge Clean (ID: WedgeClean)
Mesomerize (ID: Mesomerize)
Tautomerize (ID: Tautomerize)
Aromatize (ID: Aromatize)
Add Explicit Hydrogens (ID: AddExplicitH)
Neutralize (ID: Neutralize)
Clean 2D (ID: Clean2D)

> <knn Distance>
4.12310552597046

> <CpId>
839

$$$$
863
  Mrv1532301301811342D          

 23 25  0  0  0  0            999 V2000
    2.1434    1.2375    0.0000 N   0  0  0  0  0  0  0  0  0  0  0  0
    2.8579    0.8250    0.0000 C   0  0  0  0  0  0  0  0  0  0  0  0
    3.5724    1.2375    0.0000 C   0  0  0  0  0  0  0  0  0  0  0  0
    4.2868    0.8250    0.0000 C   0  0  0  0  0  0  0  0  0  0  0  0
    4.2868   -0.0000    0.0000 C   0  0  0  0  0  0  0  0  0  0  0  0
    3.5724   -0.4125    0.0000 C   0  0  0  0  0  0  0  0  0  0  0  0
    2.8579    0.0000    0.0000 C   0  0  0  0  0  0  0  0  0  0  0  0
    2.1434   -0.4125    0.0000 S   0  0  0  0  0  0  0  0  0  0  0  0
    1.4290    0.0000    0.0000 C   0  0  0  0  0  0  0  0  0  0  0  0
    0.7145   -0.4125    0.0000 C   0  0  0  0  0  0  0  0  0  0  0  0
    0.0000    0.0000    0.0000 C   0  0  0  0  0  0  0  0  0  0  0  0
    0.0000    0.8250    0.0000 C   0  0  0  0  0  0  0  0  0  0  0  0
    0.7145    1.2375    0.0000 C   0  0  0  0  0  0  0  0  0  0  0  0
    1.4290    0.8250    0.0000 C   0  0  0  0  0  0  0  0  0  0  0  0
    2.1434    2.0625    0.0000 H   0  0  0  0  0  0  0  0  0  0  0  0
    3.5724    2.0625    0.0000 H   0  0  0  0  0  0  0  0  0  0  0  0
    5.0013    1.2375    0.0000 H   0  0  0  0  0  0  0  0  0  0  0  0
    5.0013   -0.4125    0.0000 H   0  0  0  0  0  0  0  0  0  0  0  0
    3.5724   -1.2375    0.0000 H   0  0  0  0  0  0  0  0  0  0  0  0
    0.7145   -1.2375    0.0000 H   0  0  0  0  0  0  0  0  0  0  0  0
   -0.7145   -0.4125    0.0000 H   0  0  0  0  0  0  0  0  0  0  0  0
   -0.7145    1.2375    0.0000 H   0  0  0  0  0  0  0  0  0  0  0  0
    0.7145    2.0625    0.0000 H   0  0  0  0  0  0  0  0  0  0  0  0
  1  2  1  0  0  0  0
  2  3  4  0  0  0  0
  3  4  4  0  0  0  0
  4  5  4  0  0  0  0
  5  6  4  0  0  0  0
  6  7  4  0  0  0  0
  2  7  4  0  0  0  0
  7  8  1  0  0  0  0
  8  9  1  0  0  0  0
  9 10  4  0  0  0  0
 10 11  4  0  0  0  0
 11 12  4  0  0  0  0
 12 13  4  0  0  0  0
 13 14  4  0  0  0  0
  1 14  1  0  0  0  0
  9 14  4  0  0  0  0
  1 15  1  0  0  0  0
  3 16  1  0  0  0  0
  4 17  1  0  0  0  0
  5 18  1  0  0  0  0
  6 19  1  0  0  0  0
 10 20  1  0  0  0  0
 11 21  1  0  0  0  0
 12 22  1  0  0  0  0
 13 23  1  0  0  0  0
M  END
>  <InChIKey>
WJFKNYWRSNBZNX-UHFFFAOYSA-N

>  <UN GHS>
Non-irritant

>  <CASRN>
92-84-2

> <Outcome>
0

>  <Index>
863

>  <StandardizerResult>
Dearomatize (ID: Dearomatize)
Clear Stereo (ID: ClearStereo)
Wedge Clean (ID: WedgeClean)
Mesomerize (ID: Mesomerize)
Tautomerize (ID: Tautomerize)
Aromatize (ID: Aromatize)
Add Explicit Hydrogens (ID: AddExplicitH)
Neutralize (ID: Neutralize)
Clean 2D (ID: Clean2D)

> <knn Distance>
4.12310552597046

> <CpId>
863

$$$$
941
  Mrv1532301301811342D          

 14 13  0  0  0  0            999 V2000
    2.1227    0.6555    0.0000 N   0  0  0  0  0  0  0  0  0  0  0  0
    1.2977    0.6555    0.0000 C   0  0  0  0  0  0  0  0  0  0  0  0
    0.8852    1.3700    0.0000 C   0  0  0  0  0  0  0  0  0  0  0  0
    1.2977    2.0845    0.0000 S   0  0  0  0  0  0  0  0  0  0  0  0
    0.8852   -0.0589    0.0000 C   0  0  0  0  0  0  0  0  0  0  0  0
    1.2977   -0.7734    0.0000 O   0  0  0  0  0  0  0  0  0  0  0  0
    0.0602   -0.0589    0.0000 O   0  0  0  0  0  0  0  0  0  0  0  0
    2.5352   -0.0589    0.0000 H   0  0  0  0  0  0  0  0  0  0  0  0
    2.5352    1.3700    0.0000 H   0  0  0  0  0  0  0  0  0  0  0  0
    1.7102    1.3700    0.0000 H   0  0  0  0  0  0  0  0  0  0  0  0
    0.1479    1.7403    0.0000 H   0  0  0  0  0  0  0  0  0  0  0  0
    0.1479    0.9997    0.0000 H   0  0  0  0  0  0  0  0  0  0  0  0
    1.2977    2.9095    0.0000 H   0  0  0  0  0  0  0  0  0  0  0  0
    0.8852   -1.4879    0.0000 H   0  0  0  0  0  0  0  0  0  0  0  0
  1  2  1  0  0  0  0
  2  3  1  0  0  0  0
  3  4  1  0  0  0  0
  2  5  1  0  0  0  0
  5  6  1  0  0  0  0
  5  7  2  0  0  0  0
  1  8  1  0  0  0  0
  1  9  1  0  0  0  0
  2 10  1  0  0  0  0
  3 11  1  0  0  0  0
  3 12  1  0  0  0  0
  4 13  1  0  0  0  0
  6 14  1  0  0  0  0
M  END
>  <InChIKey>
XUJNEKJLAYXESH-UHFFFAOYSA-N

>  <UN GHS>
Non-irritant

>  <CASRN>
52-90-4

> <Outcome>
0

>  <Index>
941

>  <StandardizerResult>
Clear Stereo (ID: ClearStereo)
Wedge Clean (ID: WedgeClean)
Mesomerize (ID: Mesomerize)
Tautomerize (ID: Tautomerize)
Add Explicit Hydrogens (ID: AddExplicitH)
Neutralize (ID: Neutralize)
Clean 2D (ID: Clean2D)

> <knn Distance>
4.12310552597046

> <CpId>
941

$$$$
1012
  Mrv1532301301811342D          

 28 29  0  0  0  0            999 V2000
    1.3699   -2.4678    0.0000 C   0  0  0  0  0  0  0  0  0  0  0  0
    1.3699   -1.6428    0.0000 C   0  0  0  0  0  0  0  0  0  0  0  0
    0.6554   -1.2303    0.0000 C   0  0  0  0  0  0  0  0  0  0  0  0
    0.6554   -0.4053    0.0000 C   0  0  0  0  0  0  0  0  0  0  0  0
   -0.1570   -0.5486    0.0000 C   0  0  0  0  0  0  0  0  0  0  0  0
    0.3733    0.3700    0.0000 C   0  0  0  0  0  0  0  0  0  0  0  0
    1.3699    0.0072    0.0000 N   0  0  0  0  0  0  0  0  0  0  0  0
    2.0844   -0.4053    0.0000 C   0  0  0  0  0  0  0  0  0  0  0  0
    2.7988    0.0072    0.0000 C   0  0  0  0  0  0  0  0  0  0  0  0
    3.5133   -0.4053    0.0000 C   0  0  0  0  0  0  0  0  0  0  0  0
    3.5133   -1.2303    0.0000 C   0  0  0  0  0  0  0  0  0  0  0  0
    2.7988   -1.6428    0.0000 C   0  0  0  0  0  0  0  0  0  0  0  0
    2.0844   -1.2303    0.0000 C   0  0  0  0  0  0  0  0  0  0  0  0
    0.5449   -2.4678    0.0000 H   0  0  0  0  0  0  0  0  0  0  0  0
    1.3699   -3.2928    0.0000 H   0  0  0  0  0  0  0  0  0  0  0  0
    2.1949   -2.4678    0.0000 H   0  0  0  0  0  0  0  0  0  0  0  0
   -0.0590   -1.6428    0.0000 H   0  0  0  0  0  0  0  0  0  0  0  0
   -0.3003    0.2639    0.0000 H   0  0  0  0  0  0  0  0  0  0  0  0
   -0.9695   -0.6918    0.0000 H   0  0  0  0  0  0  0  0  0  0  0  0
   -0.0138   -1.3610    0.0000 H   0  0  0  0  0  0  0  0  0  0  0  0
    1.1948    0.2943    0.0000 H   0  0  0  0  0  0  0  0  0  0  0  0
    0.7923    1.0806    0.0000 H   0  0  0  0  0  0  0  0  0  0  0  0
   -0.0906    1.0522    0.0000 H   0  0  0  0  0  0  0  0  0  0  0  0
    1.9462    0.5976    0.0000 H   0  0  0  0  0  0  0  0  0  0  0  0
    2.7988    0.8322    0.0000 H   0  0  0  0  0  0  0  0  0  0  0  0
    4.2278    0.0072    0.0000 H   0  0  0  0  0  0  0  0  0  0  0  0
    4.2278   -1.6428    0.0000 H   0  0  0  0  0  0  0  0  0  0  0  0
    2.7988   -2.4678    0.0000 H   0  0  0  0  0  0  0  0  0  0  0  0
  1  2  1  0  0  0  0
  2  3  2  0  0  0  0
  3  4  1  0  0  0  0
  4  5  1  0  0  0  0
  4  6  1  0  0  0  0
  4  7  1  0  0  0  0
  7  8  1  0  0  0  0
  8  9  4  0  0  0  0
  9 10  4  0  0  0  0
 10 11  4  0  0  0  0
 11 12  4  0  0  0  0
 12 13  4  0  0  0  0
  2 13  1  0  0  0  0
  8 13  4  0  0  0  0
  1 14  1  0  0  0  0
  1 15  1  0  0  0  0
  1 16  1  0  0  0  0
  3 17  1  0  0  0  0
  5 18  1  0  0  0  0
  5 19  1  0  0  0  0
  5 20  1  0  0  0  0
  6 21  1  0  0  0  0
  6 22  1  0  0  0  0
  6 23  1  0  0  0  0
  7 24  1  0  0  0  0
  9 25  1  0  0  0  0
 10 26  1  0  0  0  0
 11 27  1  0  0  0  0
 12 28  1  0  0  0  0
M  END
>  <InChIKey>
ZNRLMGFXSPUZNR-UHFFFAOYSA-N

>  <UN GHS>
Non-irritant

>  <CASRN>
26780-96-1

> <Outcome>
0

>  <Index>
1012

>  <StandardizerResult>
Dearomatize (ID: Dearomatize)
Clear Stereo (ID: ClearStereo)
Wedge Clean (ID: WedgeClean)
Mesomerize (ID: Mesomerize)
Tautomerize (ID: Tautomerize)
Aromatize (ID: Aromatize)
Add Explicit Hydrogens (ID: AddExplicitH)
Neutralize (ID: Neutralize)
Clean 2D (ID: Clean2D)

> <knn Distance>
4.12310552597046

> <CpId>
1012

$$$$
1017
  Mrv1532301301811342D          

 53 55  0  0  0  0            999 V2000
   -4.2642   -4.1202    0.0000 C   0  0  0  0  0  0  0  0  0  0  0  0
   -4.2642   -4.9452    0.0000 C   0  0  0  0  0  0  0  0  0  0  0  0
   -3.5497   -5.3577    0.0000 C   0  0  0  0  0  0  0  0  0  0  0  0
   -3.5497   -6.1827    0.0000 C   0  0  0  0  0  0  0  0  0  0  0  0
   -4.2642   -6.5952    0.0000 C   0  0  0  0  0  0  0  0  0  0  0  0
   -4.2642   -7.4202    0.0000 N   0  0  0  0  0  0  0  0  0  0  0  0
   -3.5497   -7.8327    0.0000 C   0  0  0  0  0  0  0  0  0  0  0  0
   -2.8353   -7.4202    0.0000 O   0  0  0  0  0  0  0  0  0  0  0  0
   -3.5497   -8.6577    0.0000 N   0  0  0  0  0  0  0  0  0  0  0  0
   -2.8353   -9.0702    0.0000 C   0  0  0  0  0  0  0  0  0  0  0  0
   -2.1208   -8.6577    0.0000 C   0  0  0  0  0  0  0  0  0  0  0  0
   -1.4063   -9.0702    0.0000 C   0  0  0  0  0  0  0  0  0  0  0  0
   -1.4063   -9.8952    0.0000 C   0  0  0  0  0  0  0  0  0  0  0  0
   -0.6918  -10.3077    0.0000 C   0  0  0  0  0  0  0  0  0  0  0  0
   -2.1208  -10.3077    0.0000 C   0  0  0  0  0  0  0  0  0  0  0  0
   -2.1208  -11.1327    0.0000 N   0  0  0  0  0  0  0  0  0  0  0  0
   -2.8353  -11.5452    0.0000 C   0  0  0  0  0  0  0  0  0  0  0  0
   -3.5497  -11.1327    0.0000 O   0  0  0  0  0  0  0  0  0  0  0  0
   -2.8353  -12.3702    0.0000 N   0  0  0  0  0  0  0  0  0  0  0  0
   -2.1208  -12.7827    0.0000 C   0  0  0  0  0  0  0  0  0  0  0  0
   -1.4063  -12.3702    0.0000 C   0  0  0  0  0  0  0  0  0  0  0  0
   -0.6918  -12.7827    0.0000 C   0  0  0  0  0  0  0  0  0  0  0  0
   -0.6918  -13.6077    0.0000 C   0  0  0  0  0  0  0  0  0  0  0  0
    0.0226  -14.0202    0.0000 C   0  0  0  0  0  0  0  0  0  0  0  0
   -1.4063  -14.0202    0.0000 C   0  0  0  0  0  0  0  0  0  0  0  0
   -2.1208  -13.6077    0.0000 C   0  0  0  0  0  0  0  0  0  0  0  0
   -2.8353   -9.8952    0.0000 C   0  0  0  0  0  0  0  0  0  0  0  0
   -4.9787   -6.1827    0.0000 C   0  0  0  0  0  0  0  0  0  0  0  0
   -4.9787   -5.3577    0.0000 C   0  0  0  0  0  0  0  0  0  0  0  0
   -3.4392   -4.1202    0.0000 H   0  0  0  0  0  0  0  0  0  0  0  0
   -4.2642   -3.2952    0.0000 H   0  0  0  0  0  0  0  0  0  0  0  0
   -5.0892   -4.1202    0.0000 H   0  0  0  0  0  0  0  0  0  0  0  0
   -2.8353   -4.9452    0.0000 H   0  0  0  0  0  0  0  0  0  0  0  0
   -2.8353   -6.5952    0.0000 H   0  0  0  0  0  0  0  0  0  0  0  0
   -4.9787   -7.8327    0.0000 H   0  0  0  0  0  0  0  0  0  0  0  0
   -4.2642   -9.0702    0.0000 H   0  0  0  0  0  0  0  0  0  0  0  0
   -2.1208   -7.8327    0.0000 H   0  0  0  0  0  0  0  0  0  0  0  0
   -0.6918   -8.6577    0.0000 H   0  0  0  0  0  0  0  0  0  0  0  0
   -1.1043  -11.0222    0.0000 H   0  0  0  0  0  0  0  0  0  0  0  0
    0.0226  -10.7202    0.0000 H   0  0  0  0  0  0  0  0  0  0  0  0
   -0.2793   -9.5932    0.0000 H   0  0  0  0  0  0  0  0  0  0  0  0
   -1.4063  -11.5452    0.0000 H   0  0  0  0  0  0  0  0  0  0  0  0
   -3.5497  -12.7827    0.0000 H   0  0  0  0  0  0  0  0  0  0  0  0
   -2.1208  -11.9577    0.0000 H   0  0  0  0  0  0  0  0  0  0  0  0
    0.0226  -12.3702    0.0000 H   0  0  0  0  0  0  0  0  0  0  0  0
   -0.3899  -14.7347    0.0000 H   0  0  0  0  0  0  0  0  0  0  0  0
    0.7371  -14.4327    0.0000 H   0  0  0  0  0  0  0  0  0  0  0  0
    0.4351  -13.3057    0.0000 H   0  0  0  0  0  0  0  0  0  0  0  0
   -1.4063  -14.8452    0.0000 H   0  0  0  0  0  0  0  0  0  0  0  0
   -2.8353  -14.0202    0.0000 H   0  0  0  0  0  0  0  0  0  0  0  0
   -3.5497  -10.3077    0.0000 H   0  0  0  0  0  0  0  0  0  0  0  0
   -5.6931   -6.5952    0.0000 H   0  0  0  0  0  0  0  0  0  0  0  0
   -5.6931   -4.9452    0.0000 H   0  0  0  0  0  0  0  0  0  0  0  0
  1  2  1  0  0  0  0
  2  3  4  0  0  0  0
  3  4  4  0  0  0  0
  4  5  4  0  0  0  0
  5  6  1  0  0  0  0
  6  7  1  0  0  0  0
  7  8  2  0  0  0  0
  7  9  1  0  0  0  0
  9 10  1  0  0  0  0
 10 11  4  0  0  0  0
 11 12  4  0  0  0  0
 12 13  4  0  0  0  0
 13 14  1  0  0  0  0
 13 15  4  0  0  0  0
 15 16  1  0  0  0  0
 16 17  1  0  0  0  0
 17 18  2  0  0  0  0
 17 19  1  0  0  0  0
 19 20  1  0  0  0  0
 20 21  4  0  0  0  0
 21 22  4  0  0  0  0
 22 23  4  0  0  0  0
 23 24  1  0  0  0  0
 23 25  4  0  0  0  0
 25 26  4  0  0  0  0
 20 26  4  0  0  0  0
 15 27  4  0  0  0  0
 10 27  4  0  0  0  0
  5 28  4  0  0  0  0
 28 29  4  0  0  0  0
  2 29  4  0  0  0  0
  1 30  1  0  0  0  0
  1 31  1  0  0  0  0
  1 32  1  0  0  0  0
  3 33  1  0  0  0  0
  4 34  1  0  0  0  0
  6 35  1  0  0  0  0
  9 36  1  0  0  0  0
 11 37  1  0  0  0  0
 12 38  1  0  0  0  0
 14 39  1  0  0  0  0
 14 40  1  0  0  0  0
 14 41  1  0  0  0  0
 16 42  1  0  0  0  0
 19 43  1  0  0  0  0
 21 44  1  0  0  0  0
 22 45  1  0  0  0  0
 24 46  1  0  0  0  0
 24 47  1  0  0  0  0
 24 48  1  0  0  0  0
 25 49  1  0  0  0  0
 26 50  1  0  0  0  0
 27 51  1  0  0  0  0
 28 52  1  0  0  0  0
 29 53  1  0  0  0  0
M  END
>  <InChIKey>
ZPHINLJKDOIANS-UHFFFAOYSA-N

>  <UN GHS>
Non-irritant

> <Outcome>
0

>  <Index>
1017

>  <StandardizerResult>
Dearomatize (ID: Dearomatize)
Clear Stereo (ID: ClearStereo)
Wedge Clean (ID: WedgeClean)
Mesomerize (ID: Mesomerize)
Tautomerize (ID: Tautomerize)
Aromatize (ID: Aromatize)
Add Explicit Hydrogens (ID: AddExplicitH)
Neutralize (ID: Neutralize)
Clean 2D (ID: Clean2D)

> <knn Distance>
4.12310552597046

> <CpId>
1017

$$$$
1036
  Mrv1532301301811342D          

 30 30  0  0  0  0            999 V2000
   -0.7799    3.7862    0.0000 C   0  0  0  0  0  0  0  0  0  0  0  0
   -0.7799    2.9612    0.0000 C   0  0  0  0  0  0  0  0  0  0  0  0
   -0.0655    2.5487    0.0000 N   0  3  0  0  0  0  0  0  0  0  0  0
   -0.4780    1.8342    0.0000 C   0  0  0  0  0  0  0  0  0  0  0  0
    0.3470    3.2632    0.0000 C   0  0  0  0  0  0  0  0  0  0  0  0
    0.6490    2.1362    0.0000 C   0  0  0  0  0  0  0  0  0  0  0  0
    0.6490    1.3112    0.0000 C   0  0  0  0  0  0  0  0  0  0  0  0
    1.3635    0.8987    0.0000 C   0  0  0  0  0  0  0  0  0  0  0  0
    1.3635    0.0737    0.0000 C   0  0  0  0  0  0  0  0  0  0  0  0
    0.6490   -0.3388    0.0000 C   0  0  0  0  0  0  0  0  0  0  0  0
   -0.0655    0.0737    0.0000 C   0  0  0  0  0  0  0  0  0  0  0  0
   -0.0655    0.8987    0.0000 C   0  0  0  0  0  0  0  0  0  0  0  0
   -0.7799    1.3112    0.0000 Br  0  0  0  0  0  0  0  0  0  0  0  0
    0.0451    3.7862    0.0000 H   0  0  0  0  0  0  0  0  0  0  0  0
   -0.7799    4.6112    0.0000 H   0  0  0  0  0  0  0  0  0  0  0  0
   -1.6049    3.7862    0.0000 H   0  0  0  0  0  0  0  0  0  0  0  0
   -1.6035    2.9132    0.0000 H   0  0  0  0  0  0  0  0  0  0  0  0
   -1.2333    2.2719    0.0000 H   0  0  0  0  0  0  0  0  0  0  0  0
    0.0523    1.2022    0.0000 H   0  0  0  0  0  0  0  0  0  0  0  0
    0.3345    1.6909    0.0000 H   0  0  0  0  0  0  0  0  0  0  0  0
   -1.2750    1.6213    0.0000 H   0  0  0  0  0  0  0  0  0  0  0  0
    0.7595    2.5487    0.0000 H   0  0  0  0  0  0  0  0  0  0  0  0
    1.1720    3.2632    0.0000 H   0  0  0  0  0  0  0  0  0  0  0  0
    0.7595    3.9776    0.0000 H   0  0  0  0  0  0  0  0  0  0  0  0
    1.3248    1.6630    0.0000 H   0  0  0  0  0  0  0  0  0  0  0  0
    1.4243    2.4183    0.0000 H   0  0  0  0  0  0  0  0  0  0  0  0
    2.1882    0.9195    0.0000 H   0  0  0  0  0  0  0  0  0  0  0  0
    2.0780   -0.3388    0.0000 H   0  0  0  0  0  0  0  0  0  0  0  0
    0.6490   -1.1638    0.0000 H   0  0  0  0  0  0  0  0  0  0  0  0
   -0.7799   -0.3388    0.0000 H   0  0  0  0  0  0  0  0  0  0  0  0
  1  2  1  0  0  0  0
  2  3  1  0  0  0  0
  3  4  1  0  0  0  0
  3  5  1  0  0  0  0
  3  6  1  0  0  0  0
  6  7  1  0  0  0  0
  7  8  4  0  0  0  0
  8  9  4  0  0  0  0
  9 10  4  0  0  0  0
 10 11  4  0  0  0  0
 11 12  4  0  0  0  0
  7 12  4  0  0  0  0
 12 13  1  0  0  0  0
  1 14  1  0  0  0  0
  1 15  1  0  0  0  0
  1 16  1  0  0  0  0
  2 17  1  0  0  0  0
  2 18  1  0  0  0  0
  4 19  1  0  0  0  0
  4 20  1  0  0  0  0
  4 21  1  0  0  0  0
  5 22  1  0  0  0  0
  5 23  1  0  0  0  0
  5 24  1  0  0  0  0
  6 25  1  0  0  0  0
  6 26  1  0  0  0  0
  8 27  1  0  0  0  0
  9 28  1  0  0  0  0
 10 29  1  0  0  0  0
 11 30  1  0  0  0  0
M  CHG  1   3   1
M  END
>  <InChIKey>
InChI=1S/C11H17BrN/c1-4-13(2,3)9-10-7-5-6-8-11(10)12/h5-8H,4,9H2,1-3H3/q+1

>  <CASRN>
59-41-6

> <Outcome>
0

>  <Index>
1036

>  <StandardizerResult>
Dearomatize (ID: Dearomatize)
Clear Stereo (ID: ClearStereo)
Wedge Clean (ID: WedgeClean)
Mesomerize (ID: Mesomerize)
Tautomerize (ID: Tautomerize)
Aromatize (ID: Aromatize)
Add Explicit Hydrogens (ID: AddExplicitH)
Clean 2D (ID: Clean2D)

> <knn Distance>
4.12310552597046

> <CpId>
1036

$$$$
1051
  Mrv1532301301811342D          

 21 21  0  0  0  0            999 V2000
   -0.0007    2.4746    0.0000 C   0  0  0  0  0  0  0  0  0  0  0  0
    0.7137    2.0621    0.0000 C   0  0  0  0  0  0  0  0  0  0  0  0
    0.7137    1.2371    0.0000 C   0  0  0  0  0  0  0  0  0  0  0  0
    1.4282    0.8246    0.0000 C   0  0  0  0  0  0  0  0  0  0  0  0
    1.4282   -0.0004    0.0000 C   0  0  0  0  0  0  0  0  0  0  0  0
    0.7137   -0.4129    0.0000 C   0  0  0  0  0  0  0  0  0  0  0  0
   -0.0007   -0.0004    0.0000 C   0  0  0  0  0  0  0  0  0  0  0  0
   -0.0007    0.8246    0.0000 N   0  0  0  0  0  0  0  0  0  0  0  0
    2.1427   -0.4129    0.0000 C   0  0  0  0  0  0  0  0  0  0  0  0
    2.8572   -0.0004    0.0000 N   0  0  0  0  0  0  0  0  0  0  0  0
    2.1427   -1.2379    0.0000 S   0  0  0  0  0  0  0  0  0  0  0  0
    0.4118    3.1890    0.0000 H   0  0  0  0  0  0  0  0  0  0  0  0
   -0.7152    2.8871    0.0000 H   0  0  0  0  0  0  0  0  0  0  0  0
   -0.4132    1.7601    0.0000 H   0  0  0  0  0  0  0  0  0  0  0  0
    1.5374    2.1100    0.0000 H   0  0  0  0  0  0  0  0  0  0  0  0
    1.1671    2.7514    0.0000 H   0  0  0  0  0  0  0  0  0  0  0  0
    2.1427    1.2371    0.0000 H   0  0  0  0  0  0  0  0  0  0  0  0
    0.7137   -1.2379    0.0000 H   0  0  0  0  0  0  0  0  0  0  0  0
   -0.7152   -0.4129    0.0000 H   0  0  0  0  0  0  0  0  0  0  0  0
    3.5716   -0.4129    0.0000 H   0  0  0  0  0  0  0  0  0  0  0  0
    2.8572    0.8246    0.0000 H   0  0  0  0  0  0  0  0  0  0  0  0
  1  2  1  0  0  0  0
  2  3  1  0  0  0  0
  3  4  4  0  0  0  0
  4  5  4  0  0  0  0
  5  6  4  0  0  0  0
  6  7  4  0  0  0  0
  7  8  4  0  0  0  0
  3  8  4  0  0  0  0
  5  9  1  0  0  0  0
  9 10  1  0  0  0  0
  9 11  2  0  0  0  0
  1 12  1  0  0  0  0
  1 13  1  0  0  0  0
  1 14  1  0  0  0  0
  2 15  1  0  0  0  0
  2 16  1  0  0  0  0
  4 17  1  0  0  0  0
  6 18  1  0  0  0  0
  7 19  1  0  0  0  0
 10 20  1  0  0  0  0
 10 21  1  0  0  0  0
M  END
>  <InChIKey>
InChI=1S/C8H10N2S/c1-2-7-5-6(8(9)11)3-4-10-7/h3-5H,2H2,1H3,(H2,9,11)

>  <CASRN>
536-33-4

> <Outcome>
0

>  <Index>
1051

>  <StandardizerResult>
Dearomatize (ID: Dearomatize)
Clear Stereo (ID: ClearStereo)
Wedge Clean (ID: WedgeClean)
Mesomerize (ID: Mesomerize)
Tautomerize (ID: Tautomerize)
Aromatize (ID: Aromatize)
Add Explicit Hydrogens (ID: AddExplicitH)
Neutralize (ID: Neutralize)
Clean 2D (ID: Clean2D)

> <knn Distance>
4.12310552597046

> <CpId>
1051

$$$$
1086
  Mrv1532301301811342D          

 49 51  0  0  0  0            999 V2000
   -0.3135   -2.3608    0.0000 C   0  0  0  0  0  0  0  0  0  0  0  0
   -0.3135   -1.5358    0.0000 C   0  0  0  0  0  0  0  0  0  0  0  0
   -1.0280   -1.1233    0.0000 C   0  0  0  0  0  0  0  0  0  0  0  0
   -1.7425   -1.5358    0.0000 C   0  0  0  0  0  0  0  0  0  0  0  0
   -1.6808   -2.3585    0.0000 C   0  0  0  0  0  0  0  0  0  0  0  0
   -0.8925   -2.6016    0.0000 C   0  0  0  0  0  0  0  0  0  0  0  0
   -0.7089   -3.4060    0.0000 C   0  0  0  0  0  0  0  0  0  0  0  0
   -1.3137   -3.9671    0.0000 C   0  0  0  0  0  0  0  0  0  0  0  0
   -2.1020   -3.7239    0.0000 C   0  0  0  0  0  0  0  0  0  0  0  0
   -2.2856   -2.9196    0.0000 C   0  0  0  0  0  0  0  0  0  0  0  0
   -3.1014   -2.7967    0.0000 C   0  0  0  0  0  0  0  0  0  0  0  0
   -3.5139   -2.0822    0.0000 C   0  0  0  0  0  0  0  0  0  0  0  0
   -3.2125   -1.3142    0.0000 C   0  0  0  0  0  0  0  0  0  0  0  0
   -3.8172   -0.7531    0.0000 C   0  0  0  0  0  0  0  0  0  0  0  0
   -3.6337    0.0512    0.0000 C   0  0  0  0  0  0  0  0  0  0  0  0
   -2.8453    0.2944    0.0000 C   0  0  0  0  0  0  0  0  0  0  0  0
   -2.2406   -0.2667    0.0000 C   0  0  0  0  0  0  0  0  0  0  0  0
   -2.4241   -1.0710    0.0000 C   0  0  0  0  0  0  0  0  0  0  0  0
    0.4009   -1.1233    0.0000 C   0  0  0  0  0  0  0  0  0  0  0  0
    1.1154   -1.5358    0.0000 N   0  0  0  0  0  0  0  0  0  0  0  0
    1.8299   -1.1233    0.0000 C   0  0  0  0  0  0  0  0  0  0  0  0
    1.1154   -2.3608    0.0000 C   0  0  0  0  0  0  0  0  0  0  0  0
   -0.3934   -3.1819    0.0000 H   0  0  0  0  0  0  0  0  0  0  0  0
    0.3728   -2.8186    0.0000 H   0  0  0  0  0  0  0  0  0  0  0  0
    0.4139   -1.9716    0.0000 H   0  0  0  0  0  0  0  0  0  0  0  0
   -1.0280   -1.9483    0.0000 H   0  0  0  0  0  0  0  0  0  0  0  0
   -0.6578   -0.3860    0.0000 H   0  0  0  0  0  0  0  0  0  0  0  0
   -1.3983   -0.3860    0.0000 H   0  0  0  0  0  0  0  0  0  0  0  0
   -1.7116   -0.7114    0.0000 H   0  0  0  0  0  0  0  0  0  0  0  0
   -1.4973   -3.1628    0.0000 H   0  0  0  0  0  0  0  0  0  0  0  0
   -0.1884   -4.0460    0.0000 H   0  0  0  0  0  0  0  0  0  0  0  0
   -1.1301   -4.7714    0.0000 H   0  0  0  0  0  0  0  0  0  0  0  0
   -2.7068   -4.2851    0.0000 H   0  0  0  0  0  0  0  0  0  0  0  0
   -3.8159   -3.2092    0.0000 H   0  0  0  0  0  0  0  0  0  0  0  0
   -3.2243   -3.6124    0.0000 H   0  0  0  0  0  0  0  0  0  0  0  0
   -4.2819   -1.7808    0.0000 H   0  0  0  0  0  0  0  0  0  0  0  0
   -4.2284   -2.4947    0.0000 H   0  0  0  0  0  0  0  0  0  0  0  0
   -4.6056   -0.9962    0.0000 H   0  0  0  0  0  0  0  0  0  0  0  0
   -4.2384    0.6124    0.0000 H   0  0  0  0  0  0  0  0  0  0  0  0
   -2.6617    1.0987    0.0000 H   0  0  0  0  0  0  0  0  0  0  0  0
   -1.8859    0.4782    0.0000 H   0  0  0  0  0  0  0  0  0  0  0  0
    0.7712   -0.3860    0.0000 H   0  0  0  0  0  0  0  0  0  0  0  0
    0.0307   -0.3860    0.0000 H   0  0  0  0  0  0  0  0  0  0  0  0
    2.2424   -1.8378    0.0000 H   0  0  0  0  0  0  0  0  0  0  0  0
    2.5443   -0.7108    0.0000 H   0  0  0  0  0  0  0  0  0  0  0  0
    1.4174   -0.4088    0.0000 H   0  0  0  0  0  0  0  0  0  0  0  0
    1.1332   -3.1856    0.0000 H   0  0  0  0  0  0  0  0  0  0  0  0
    1.8357   -2.7629    0.0000 H   0  0  0  0  0  0  0  0  0  0  0  0
    1.8269   -1.9431    0.0000 H   0  0  0  0  0  0  0  0  0  0  0  0
  1  2  1  0  0  0  0
  2  3  1  0  0  0  0
  3  4  1  0  0  0  0
  4  5  1  0  0  0  0
  5  6  4  0  0  0  0
  6  7  4  0  0  0  0
  7  8  4  0  0  0  0
  8  9  4  0  0  0  0
  9 10  4  0  0  0  0
  5 10  4  0  0  0  0
 10 11  1  0  0  0  0
 11 12  1  0  0  0  0
 12 13  1  0  0  0  0
 13 14  4  0  0  0  0
 14 15  4  0  0  0  0
 15 16  4  0  0  0  0
 16 17  4  0  0  0  0
 17 18  4  0  0  0  0
  4 18  1  0  0  0  0
 13 18  4  0  0  0  0
  2 19  1  0  0  0  0
 19 20  1  0  0  0  0
 20 21  1  0  0  0  0
 20 22  1  0  0  0  0
  1 23  1  0  0  0  0
  1 24  1  0  0  0  0
  1 25  1  0  0  0  0
  2 26  1  0  0  0  0
  3 27  1  0  0  0  0
  3 28  1  0  0  0  0
  4 29  1  0  0  0  0
  6 30  1  0  0  0  0
  7 31  1  0  0  0  0
  8 32  1  0  0  0  0
  9 33  1  0  0  0  0
 11 34  1  0  0  0  0
 11 35  1  0  0  0  0
 12 36  1  0  0  0  0
 12 37  1  0  0  0  0
 14 38  1  0  0  0  0
 15 39  1  0  0  0  0
 16 40  1  0  0  0  0
 17 41  1  0  0  0  0
 19 42  1  0  0  0  0
 19 43  1  0  0  0  0
 21 44  1  0  0  0  0
 21 45  1  0  0  0  0
 21 46  1  0  0  0  0
 22 47  1  0  0  0  0
 22 48  1  0  0  0  0
 22 49  1  0  0  0  0
M  END
>  <InChIKey>
InChI=1S/C21H27N/c1-16(15-22(2)3)14-21-19-10-6-4-8-17(19)12-13-18-9-5-7-11-20(18)21/h4-11,16,21H,12-15H2,1-3H3

>  <CASRN>
35941-65-2

> <Outcome>
0

>  <Index>
1086

>  <StandardizerResult>
Dearomatize (ID: Dearomatize)
Clear Stereo (ID: ClearStereo)
Wedge Clean (ID: WedgeClean)
Mesomerize (ID: Mesomerize)
Tautomerize (ID: Tautomerize)
Aromatize (ID: Aromatize)
Add Explicit Hydrogens (ID: AddExplicitH)
Neutralize (ID: Neutralize)
Clean 2D (ID: Clean2D)

> <knn Distance>
4.12310552597046

> <CpId>
1086

$$$$
1101
  Mrv1532301301811342D          

 99100  0  0  0  0            999 V2000
    1.0191   -8.2581    0.0000 C   0  0  0  0  0  0  0  0  0  0  0  0
    1.7987   -7.9881    0.0000 C   0  0  0  0  0  0  0  0  0  0  0  0
    1.9546   -7.1779    0.0000 C   0  0  0  0  0  0  0  0  0  0  0  0
    2.4223   -8.5282    0.0000 C   0  0  0  0  0  0  0  0  0  0  0  0
    3.2019   -8.2581    0.0000 C   0  0  0  0  0  0  0  0  0  0  0  0
    3.8255   -8.7982    0.0000 C   0  0  0  0  0  0  0  0  0  0  0  0
    4.6050   -8.5282    0.0000 C   0  0  0  0  0  0  0  0  0  0  0  0
    5.2287   -9.0682    0.0000 C   0  0  0  0  0  0  0  0  0  0  0  0
    4.7610   -7.7180    0.0000 C   0  0  0  0  0  0  0  0  0  0  0  0
    5.5405   -7.4480    0.0000 C   0  0  0  0  0  0  0  0  0  0  0  0
    6.1642   -7.9881    0.0000 C   0  0  0  0  0  0  0  0  0  0  0  0
    6.9437   -7.7180    0.0000 C   0  0  0  0  0  0  0  0  0  0  0  0
    7.0996   -6.9079    0.0000 C   0  0  0  0  0  0  0  0  0  0  0  0
    7.5673   -8.2581    0.0000 C   0  0  0  0  0  0  0  0  0  0  0  0
    8.3469   -7.9881    0.0000 C   0  0  0  0  0  0  0  0  0  0  0  0
    8.9705   -8.5282    0.0000 C   0  0  0  0  0  0  0  0  0  0  0  0
    9.7501   -8.2581    0.0000 C   0  0  0  0  0  0  0  0  0  0  0  0
    9.8807   -9.0727    0.0000 C   0  0  0  0  0  0  0  0  0  0  0  0
    9.3488   -7.5373    0.0000 C   0  0  0  0  0  0  0  0  0  0  0  0
    9.7724   -6.8293    0.0000 C   0  0  0  0  0  0  0  0  0  0  0  0
   10.5973   -6.8422    0.0000 C   0  0  0  0  0  0  0  0  0  0  0  0
   11.0209   -6.1343    0.0000 C   0  0  0  0  0  0  0  0  0  0  0  0
   10.6195   -5.4134    0.0000 C   0  0  0  0  0  0  0  0  0  0  0  0
   11.8458   -6.1471    0.0000 C   0  0  0  0  0  0  0  0  0  0  0  0
   12.2693   -5.4392    0.0000 O   0  0  0  0  0  0  0  0  0  0  0  0
   13.0942   -5.4520    0.0000 C   0  0  0  0  0  0  0  0  0  0  0  0
   13.4956   -6.1728    0.0000 O   0  0  0  0  0  0  0  0  0  0  0  0
   13.5178   -4.7441    0.0000 C   0  0  0  0  0  0  0  0  0  0  0  0
   14.3427   -4.7569    0.0000 C   0  0  0  0  0  0  0  0  0  0  0  0
   14.7663   -4.0490    0.0000 C   0  0  0  0  0  0  0  0  0  0  0  0
   14.3650   -3.3282    0.0000 O   0  0  0  0  0  0  0  0  0  0  0  0
   15.5912   -4.0618    0.0000 O   0  0  0  0  0  0  0  0  0  0  0  0
   16.0148   -3.3539    0.0000 C   0  0  0  0  0  0  0  0  0  0  0  0
   16.8397   -3.3668    0.0000 C   0  0  0  0  0  0  0  0  0  0  0  0
   17.2633   -2.6588    0.0000 O   0  0  0  0  0  0  0  0  0  0  0  0
   12.2471   -6.8679    0.0000 C   0  0  0  0  0  0  0  0  0  0  0  0
   13.0720   -6.8808    0.0000 C   0  0  0  0  0  0  0  0  0  0  0  0
   11.8235   -7.5759    0.0000 C   0  0  0  0  0  0  0  0  0  0  0  0
   12.2248   -8.2967    0.0000 C   0  0  0  0  0  0  0  0  0  0  0  0
   10.9986   -7.5630    0.0000 C   0  0  0  0  0  0  0  0  0  0  0  0
   10.5750   -8.2710    0.0000 O   0  0  0  0  0  0  0  0  0  0  0  0
    0.7491   -7.4786    0.0000 H   0  0  0  0  0  0  0  0  0  0  0  0
    0.2396   -8.5282    0.0000 H   0  0  0  0  0  0  0  0  0  0  0  0
    1.2892   -9.0377    0.0000 H   0  0  0  0  0  0  0  0  0  0  0  0
    1.1750   -7.4480    0.0000 H   0  0  0  0  0  0  0  0  0  0  0  0
    2.6967   -7.5382    0.0000 H   0  0  0  0  0  0  0  0  0  0  0  0
    2.4947   -6.5543    0.0000 H   0  0  0  0  0  0  0  0  0  0  0  0
    1.4920   -6.4948    0.0000 H   0  0  0  0  0  0  0  0  0  0  0  0
    1.9194   -9.1821    0.0000 H   0  0  0  0  0  0  0  0  0  0  0  0
    2.6466   -9.3221    0.0000 H   0  0  0  0  0  0  0  0  0  0  0  0
    3.8142   -7.7052    0.0000 H   0  0  0  0  0  0  0  0  0  0  0  0
    3.0459   -9.0682    0.0000 H   0  0  0  0  0  0  0  0  0  0  0  0
    3.8126   -9.6231    0.0000 H   0  0  0  0  0  0  0  0  0  0  0  0
    4.3459   -9.4384    0.0000 H   0  0  0  0  0  0  0  0  0  0  0  0
    5.3846   -8.2581    0.0000 H   0  0  0  0  0  0  0  0  0  0  0  0
    5.1115   -9.8849    0.0000 H   0  0  0  0  0  0  0  0  0  0  0  0
    5.8692   -9.5883    0.0000 H   0  0  0  0  0  0  0  0  0  0  0  0
    6.0039   -8.7859    0.0000 H   0  0  0  0  0  0  0  0  0  0  0  0
    5.0093   -6.9313    0.0000 H   0  0  0  0  0  0  0  0  0  0  0  0
    4.2778   -7.0493    0.0000 H   0  0  0  0  0  0  0  0  0  0  0  0
    6.3251   -7.1930    0.0000 H   0  0  0  0  0  0  0  0  0  0  0  0
    5.7275   -6.6445    0.0000 H   0  0  0  0  0  0  0  0  0  0  0  0
    6.5615   -8.7111    0.0000 H   0  0  0  0  0  0  0  0  0  0  0  0
    6.9341   -8.2844    0.0000 H   0  0  0  0  0  0  0  0  0  0  0  0
    7.7233   -7.4480    0.0000 H   0  0  0  0  0  0  0  0  0  0  0  0
    7.8779   -6.6341    0.0000 H   0  0  0  0  0  0  0  0  0  0  0  0
    7.2477   -6.0963    0.0000 H   0  0  0  0  0  0  0  0  0  0  0  0
    6.4682   -6.3769    0.0000 H   0  0  0  0  0  0  0  0  0  0  0  0
    7.4083   -9.0676    0.0000 H   0  0  0  0  0  0  0  0  0  0  0  0
    8.0118   -8.9531    0.0000 H   0  0  0  0  0  0  0  0  0  0  0  0
    9.0677   -7.5868    0.0000 H   0  0  0  0  0  0  0  0  0  0  0  0
    8.6411   -7.2173    0.0000 H   0  0  0  0  0  0  0  0  0  0  0  0
    8.4676   -9.1821    0.0000 H   0  0  0  0  0  0  0  0  0  0  0  0
    9.1948   -9.3221    0.0000 H   0  0  0  0  0  0  0  0  0  0  0  0
    9.8054   -9.8943    0.0000 H   0  0  0  0  0  0  0  0  0  0  0  0
   10.5918   -9.4909    0.0000 H   0  0  0  0  0  0  0  0  0  0  0  0
   10.5620   -8.6075    0.0000 H   0  0  0  0  0  0  0  0  0  0  0  0
    8.9942   -8.2822    0.0000 H   0  0  0  0  0  0  0  0  0  0  0  0
   10.1737   -7.5502    0.0000 H   0  0  0  0  0  0  0  0  0  0  0  0
    9.7372   -6.0051    0.0000 H   0  0  0  0  0  0  0  0  0  0  0  0
    9.0902   -6.3653    0.0000 H   0  0  0  0  0  0  0  0  0  0  0  0
   11.3404   -5.0121    0.0000 H   0  0  0  0  0  0  0  0  0  0  0  0
   10.2182   -4.6926    0.0000 H   0  0  0  0  0  0  0  0  0  0  0  0
    9.8987   -5.8147    0.0000 H   0  0  0  0  0  0  0  0  0  0  0  0
   13.4827   -3.9198    0.0000 H   0  0  0  0  0  0  0  0  0  0  0  0
   12.8357   -4.2800    0.0000 H   0  0  0  0  0  0  0  0  0  0  0  0
   14.3779   -5.5812    0.0000 H   0  0  0  0  0  0  0  0  0  0  0  0
   15.0249   -5.2210    0.0000 H   0  0  0  0  0  0  0  0  0  0  0  0
   15.9797   -2.5296    0.0000 H   0  0  0  0  0  0  0  0  0  0  0  0
   15.3327   -2.8899    0.0000 H   0  0  0  0  0  0  0  0  0  0  0  0
   16.8748   -4.1910    0.0000 H   0  0  0  0  0  0  0  0  0  0  0  0
   17.5218   -3.8308    0.0000 H   0  0  0  0  0  0  0  0  0  0  0  0
   18.0882   -2.6717    0.0000 H   0  0  0  0  0  0  0  0  0  0  0  0
   12.6484   -7.5887    0.0000 H   0  0  0  0  0  0  0  0  0  0  0  0
   13.4733   -7.6016    0.0000 H   0  0  0  0  0  0  0  0  0  0  0  0
   13.8969   -6.8937    0.0000 H   0  0  0  0  0  0  0  0  0  0  0  0
   11.4247   -8.4978    0.0000 H   0  0  0  0  0  0  0  0  0  0  0  0
   12.2119   -9.1216    0.0000 H   0  0  0  0  0  0  0  0  0  0  0  0
   13.0182   -8.5226    0.0000 H   0  0  0  0  0  0  0  0  0  0  0  0
  1  2  1  0  0  0  0
  2  3  1  0  0  0  0
  2  4  1  0  0  0  0
  4  5  1  0  0  0  0
  5  6  1  0  0  0  0
  6  7  1  0  0  0  0
  7  8  1  0  0  0  0
  7  9  1  0  0  0  0
  9 10  1  0  0  0  0
 10 11  1  0  0  0  0
 11 12  1  0  0  0  0
 12 13  1  0  0  0  0
 12 14  1  0  0  0  0
 14 15  1  0  0  0  0
 15 16  1  0  0  0  0
 16 17  1  0  0  0  0
 17 18  1  0  0  0  0
 17 19  1  0  0  0  0
 19 20  1  0  0  0  0
 20 21  1  0  0  0  0
 21 22  4  0  0  0  0
 22 23  1  0  0  0  0
 22 24  4  0  0  0  0
 24 25  1  0  0  0  0
 25 26  1  0  0  0  0
 26 27  2  0  0  0  0
 26 28  1  0  0  0  0
 28 29  1  0  0  0  0
 29 30  1  0  0  0  0
 30 31  2  0  0  0  0
 30 32  1  0  0  0  0
 32 33  1  0  0  0  0
 33 34  1  0  0  0  0
 34 35  1  0  0  0  0
 24 36  4  0  0  0  0
 36 37  1  0  0  0  0
 36 38  4  0  0  0  0
 38 39  1  0  0  0  0
 38 40  4  0  0  0  0
 21 40  4  0  0  0  0
 40 41  1  0  0  0  0
 17 41  1  0  0  0  0
  1 42  1  0  0  0  0
  1 43  1  0  0  0  0
  1 44  1  0  0  0  0
  2 45  1  0  0  0  0
  3 46  1  0  0  0  0
  3 47  1  0  0  0  0
  3 48  1  0  0  0  0
  4 49  1  0  0  0  0
  4 50  1  0  0  0  0
  5 51  1  0  0  0  0
  5 52  1  0  0  0  0
  6 53  1  0  0  0  0
  6 54  1  0  0  0  0
  7 55  1  0  0  0  0
  8 56  1  0  0  0  0
  8 57  1  0  0  0  0
  8 58  1  0  0  0  0
  9 59  1  0  0  0  0
  9 60  1  0  0  0  0
 10 61  1  0  0  0  0
 10 62  1  0  0  0  0
 11 63  1  0  0  0  0
 11 64  1  0  0  0  0
 12 65  1  0  0  0  0
 13 66  1  0  0  0  0
 13 67  1  0  0  0  0
 13 68  1  0  0  0  0
 14 69  1  0  0  0  0
 14 70  1  0  0  0  0
 15 71  1  0  0  0  0
 15 72  1  0  0  0  0
 16 73  1  0  0  0  0
 16 74  1  0  0  0  0
 18 75  1  0  0  0  0
 18 76  1  0  0  0  0
 18 77  1  0  0  0  0
 19 78  1  0  0  0  0
 19 79  1  0  0  0  0
 20 80  1  0  0  0  0
 20 81  1  0  0  0  0
 23 82  1  0  0  0  0
 23 83  1  0  0  0  0
 23 84  1  0  0  0  0
 28 85  1  0  0  0  0
 28 86  1  0  0  0  0
 29 87  1  0  0  0  0
 29 88  1  0  0  0  0
 33 89  1  0  0  0  0
 33 90  1  0  0  0  0
 34 91  1  0  0  0  0
 34 92  1  0  0  0  0
 35 93  1  0  0  0  0
 37 94  1  0  0  0  0
 37 95  1  0  0  0  0
 37 96  1  0  0  0  0
 39 97  1  0  0  0  0
 39 98  1  0  0  0  0
 39 99  1  0  0  0  0
M  END
>  <InChIKey>
InChI=1S/C35H58O6/c1-24(2)12-9-13-25(3)14-10-15-26(4)16-11-20-35(8)21-19-30-29(7)33(27(5)28(6)34(30)41-35)40-32(38)18-17-31(37)39-23-22-36/h24-26,36H,9-23H2,1-8H3

>  <CASRN>
9002-96-4

> <Outcome>
0

>  <Index>
1101

>  <StandardizerResult>
Dearomatize (ID: Dearomatize)
Clear Stereo (ID: ClearStereo)
Wedge Clean (ID: WedgeClean)
Mesomerize (ID: Mesomerize)
Tautomerize (ID: Tautomerize)
Aromatize (ID: Aromatize)
Add Explicit Hydrogens (ID: AddExplicitH)
Neutralize (ID: Neutralize)
Clean 2D (ID: Clean2D)

> <knn Distance>
4.12310552597046

> <CpId>
1101

$$$$
1108
  Mrv1532301301811342D          

 68 71  0  0  0  0            999 V2000
    8.3932   -3.8840    0.0000 C   0  0  0  0  0  0  0  0  0  0  0  0
    9.1077   -4.2965    0.0000 C   0  0  0  0  0  0  0  0  0  0  0  0
    9.8222   -3.8840    0.0000 C   0  0  0  0  0  0  0  0  0  0  0  0
   10.5366   -4.2965    0.0000 C   0  0  0  0  0  0  0  0  0  0  0  0
   11.2511   -3.8840    0.0000 C   0  0  0  0  0  0  0  0  0  0  0  0
   11.9656   -4.2965    0.0000 C   0  0  0  0  0  0  0  0  0  0  0  0
   12.6800   -3.8840    0.0000 C   0  0  0  0  0  0  0  0  0  0  0  0
   12.6800   -3.0590    0.0000 O   0  0  0  0  0  0  0  0  0  0  0  0
   13.3945   -4.2965    0.0000 O   0  0  0  0  0  0  0  0  0  0  0  0
   14.1090   -3.8840    0.0000 C   0  0  0  0  0  0  0  0  0  0  0  0
   13.6241   -3.2165    0.0000 C   0  0  0  0  0  0  0  0  0  0  0  0
   14.1090   -2.5491    0.0000 C   0  0  0  0  0  0  0  0  0  0  0  0
   14.8936   -2.8040    0.0000 C   0  0  0  0  0  0  0  0  0  0  0  0
   15.6081   -2.3915    0.0000 C   0  0  0  0  0  0  0  0  0  0  0  0
   15.6081   -1.5665    0.0000 C   0  0  0  0  0  0  0  0  0  0  0  0
   16.3225   -1.1540    0.0000 C   0  0  0  0  0  0  0  0  0  0  0  0
   17.0370   -1.5665    0.0000 C   0  0  0  0  0  0  0  0  0  0  0  0
   17.7515   -1.1540    0.0000 C   0  0  0  0  0  0  0  0  0  0  0  0
   18.4660   -1.5665    0.0000 C   0  0  0  0  0  0  0  0  0  0  0  0
   19.1804   -1.1540    0.0000 O   0  0  0  0  0  0  0  0  0  0  0  0
   18.4660   -2.3915    0.0000 C   0  0  0  0  0  0  0  0  0  0  0  0
   17.7515   -2.8040    0.0000 C   0  0  0  0  0  0  0  0  0  0  0  0
   17.0370   -2.3915    0.0000 C   0  0  0  0  0  0  0  0  0  0  0  0
   16.3225   -2.8040    0.0000 C   0  0  0  0  0  0  0  0  0  0  0  0
   16.3225   -3.6290    0.0000 C   0  0  0  0  0  0  0  0  0  0  0  0
   15.6081   -4.0415    0.0000 C   0  0  0  0  0  0  0  0  0  0  0  0
   14.8936   -3.6290    0.0000 C   0  0  0  0  0  0  0  0  0  0  0  0
   14.8074   -4.4495    0.0000 C   0  0  0  0  0  0  0  0  0  0  0  0
   14.4445   -4.6376    0.0000 C   0  0  0  0  0  0  0  0  0  0  0  0
   14.7801   -5.3913    0.0000 C   0  0  0  0  0  0  0  0  0  0  0  0
    8.8057   -3.1695    0.0000 H   0  0  0  0  0  0  0  0  0  0  0  0
    7.6787   -3.4715    0.0000 H   0  0  0  0  0  0  0  0  0  0  0  0
    7.9807   -4.5984    0.0000 H   0  0  0  0  0  0  0  0  0  0  0  0
    8.7374   -5.0337    0.0000 H   0  0  0  0  0  0  0  0  0  0  0  0
    9.4779   -5.0337    0.0000 H   0  0  0  0  0  0  0  0  0  0  0  0
   10.1924   -3.1467    0.0000 H   0  0  0  0  0  0  0  0  0  0  0  0
    9.4519   -3.1467    0.0000 H   0  0  0  0  0  0  0  0  0  0  0  0
   10.1664   -5.0337    0.0000 H   0  0  0  0  0  0  0  0  0  0  0  0
   10.9069   -5.0337    0.0000 H   0  0  0  0  0  0  0  0  0  0  0  0
   11.6214   -3.1467    0.0000 H   0  0  0  0  0  0  0  0  0  0  0  0
   10.8808   -3.1467    0.0000 H   0  0  0  0  0  0  0  0  0  0  0  0
   11.5953   -5.0337    0.0000 H   0  0  0  0  0  0  0  0  0  0  0  0
   12.3358   -5.0337    0.0000 H   0  0  0  0  0  0  0  0  0  0  0  0
   13.1901   -3.9182    0.0000 H   0  0  0  0  0  0  0  0  0  0  0  0
   13.3115   -2.4530    0.0000 H   0  0  0  0  0  0  0  0  0  0  0  0
   14.5664   -1.8625    0.0000 H   0  0  0  0  0  0  0  0  0  0  0  0
   13.9827   -1.7338    0.0000 H   0  0  0  0  0  0  0  0  0  0  0  0
   15.6081   -3.2165    0.0000 H   0  0  0  0  0  0  0  0  0  0  0  0
   14.8936   -1.9790    0.0000 H   0  0  0  0  0  0  0  0  0  0  0  0
   15.4648   -0.7541    0.0000 H   0  0  0  0  0  0  0  0  0  0  0  0
   14.9761   -1.0362    0.0000 H   0  0  0  0  0  0  0  0  0  0  0  0
   16.9362   -0.6026    0.0000 H   0  0  0  0  0  0  0  0  0  0  0  0
   16.4223   -0.3351    0.0000 H   0  0  0  0  0  0  0  0  0  0  0  0
   17.7515   -0.3290    0.0000 H   0  0  0  0  0  0  0  0  0  0  0  0
   18.9193   -3.0808    0.0000 H   0  0  0  0  0  0  0  0  0  0  0  0
   19.2896   -2.4395    0.0000 H   0  0  0  0  0  0  0  0  0  0  0  0
   17.3812   -3.5413    0.0000 H   0  0  0  0  0  0  0  0  0  0  0  0
   18.1217   -3.5413    0.0000 H   0  0  0  0  0  0  0  0  0  0  0  0
   17.0370   -3.2165    0.0000 H   0  0  0  0  0  0  0  0  0  0  0  0
   16.3225   -1.9790    0.0000 H   0  0  0  0  0  0  0  0  0  0  0  0
   16.4658   -4.4415    0.0000 H   0  0  0  0  0  0  0  0  0  0  0  0
   16.9545   -4.1593    0.0000 H   0  0  0  0  0  0  0  0  0  0  0  0
   15.3214   -4.8151    0.0000 H   0  0  0  0  0  0  0  0  0  0  0  0
   15.9216   -4.8046    0.0000 H   0  0  0  0  0  0  0  0  0  0  0  0
   15.1750   -5.1881    0.0000 H   0  0  0  0  0  0  0  0  0  0  0  0
   13.9866   -4.3662    0.0000 H   0  0  0  0  0  0  0  0  0  0  0  0
   14.3686   -5.1482    0.0000 H   0  0  0  0  0  0  0  0  0  0  0  0
   14.7560   -6.2160    0.0000 H   0  0  0  0  0  0  0  0  0  0  0  0
  1  2  1  0  0  0  0
  2  3  1  0  0  0  0
  3  4  1  0  0  0  0
  4  5  1  0  0  0  0
  5  6  1  0  0  0  0
  6  7  1  0  0  0  0
  7  8  2  0  0  0  0
  7  9  1  0  0  0  0
  9 10  1  0  0  0  0
 10 11  1  0  0  0  0
 11 12  1  0  0  0  0
 12 13  1  0  0  0  0
 13 14  1  0  0  0  0
 14 15  1  0  0  0  0
 15 16  1  0  0  0  0
 16 17  1  0  0  0  0
 17 18  2  0  0  0  0
 18 19  1  0  0  0  0
 19 20  2  0  0  0  0
 19 21  1  0  0  0  0
 21 22  1  0  0  0  0
 22 23  1  0  0  0  0
 17 23  1  0  0  0  0
 23 24  1  0  0  0  0
 14 24  1  0  0  0  0
 24 25  1  0  0  0  0
 25 26  1  0  0  0  0
 26 27  1  0  0  0  0
 10 27  1  0  0  0  0
 13 27  1  0  0  0  0
 27 28  1  0  0  0  0
 10 29  1  0  0  0  0
 29 30  3  0  0  0  0
  1 31  1  0  0  0  0
  1 32  1  0  0  0  0
  1 33  1  0  0  0  0
  2 34  1  0  0  0  0
  2 35  1  0  0  0  0
  3 36  1  0  0  0  0
  3 37  1  0  0  0  0
  4 38  1  0  0  0  0
  4 39  1  0  0  0  0
  5 40  1  0  0  0  0
  5 41  1  0  0  0  0
  6 42  1  0  0  0  0
  6 43  1  0  0  0  0
 11 44  1  0  0  0  0
 11 45  1  0  0  0  0
 12 46  1  0  0  0  0
 12 47  1  0  0  0  0
 13 48  1  0  0  0  0
 14 49  1  0  0  0  0
 15 50  1  0  0  0  0
 15 51  1  0  0  0  0
 16 52  1  0  0  0  0
 16 53  1  0  0  0  0
 18 54  1  0  0  0  0
 21 55  1  0  0  0  0
 21 56  1  0  0  0  0
 22 57  1  0  0  0  0
 22 58  1  0  0  0  0
 23 59  1  0  0  0  0
 24 60  1  0  0  0  0
 25 61  1  0  0  0  0
 25 62  1  0  0  0  0
 26 63  1  0  0  0  0
 26 64  1  0  0  0  0
 28 65  1  0  0  0  0
 28 66  1  0  0  0  0
 28 67  1  0  0  0  0
 30 68  1  0  0  0  0
M  END
>  <InChIKey>
InChI=1S/C27H38O3/c1-4-6-7-8-9-25(29)30-27(5-2)17-15-24-23-12-10-19-18-20(28)11-13-21(19)22(23)14-16-26(24,27)3/h2,18,21-24H,4,6-17H2,1,3H3

>  <CASRN>
3836-23-5

> <Outcome>
0

>  <Index>
1108

>  <StandardizerResult>
Clear Stereo (ID: ClearStereo)
Wedge Clean (ID: WedgeClean)
Mesomerize (ID: Mesomerize)
Tautomerize (ID: Tautomerize)
Add Explicit Hydrogens (ID: AddExplicitH)
Neutralize (ID: Neutralize)
Clean 2D (ID: Clean2D)

> <knn Distance>
4.12310552597046

> <CpId>
1108

$$$$
1177
  Mrv1532301301811342D          

 46 49  0  0  0  0            999 V2000
    3.4904   -3.2309    0.0000 C   0  0  0  0  0  0  0  0  0  0  0  0
    3.8503   -2.4885    0.0000 C   0  0  0  0  0  0  0  0  0  0  0  0
    4.3821   -3.1192    0.0000 C   0  0  0  0  0  0  0  0  0  0  0  0
    5.1942   -2.9740    0.0000 C   0  0  0  0  0  0  0  0  0  0  0  0
    5.4745   -2.1981    0.0000 C   0  0  0  0  0  0  0  0  0  0  0  0
    4.9427   -1.5674    0.0000 C   0  0  0  0  0  0  0  0  0  0  0  0
    5.2230   -0.7914    0.0000 C   0  0  0  0  0  0  0  0  0  0  0  0
    6.0351   -0.6462    0.0000 C   0  0  0  0  0  0  0  0  0  0  0  0
    6.3154    0.1297    0.0000 C   0  0  0  0  0  0  0  0  0  0  0  0
    6.5669   -1.2769    0.0000 C   0  0  0  0  0  0  0  0  0  0  0  0
    7.3790   -1.1317    0.0000 C   0  0  0  0  0  0  0  0  0  0  0  0
    7.9109   -1.7624    0.0000 C   0  0  0  0  0  0  0  0  0  0  0  0
    8.7230   -1.6172    0.0000 O   0  0  0  0  0  0  0  0  0  0  0  0
    7.6306   -2.5383    0.0000 C   0  0  0  0  0  0  0  0  0  0  0  0
    6.8184   -2.6836    0.0000 C   0  0  0  0  0  0  0  0  0  0  0  0
    6.2866   -2.0528    0.0000 C   0  0  0  0  0  0  0  0  0  0  0  0
    6.0063   -2.8288    0.0000 C   0  0  0  0  0  0  0  0  0  0  0  0
    4.1306   -1.7126    0.0000 C   0  0  0  0  0  0  0  0  0  0  0  0
    3.4792   -1.2062    0.0000 C   0  0  0  0  0  0  0  0  0  0  0  0
    2.7964   -1.6692    0.0000 C   0  0  0  0  0  0  0  0  0  0  0  0
    3.0257   -2.4617    0.0000 C   0  0  0  0  0  0  0  0  0  0  0  0
    2.5193   -3.1130    0.0000 O   0  0  0  0  0  0  0  0  0  0  0  0
    2.6663   -3.2688    0.0000 H   0  0  0  0  0  0  0  0  0  0  0  0
    3.1305   -3.9732    0.0000 H   0  0  0  0  0  0  0  0  0  0  0  0
    3.9711   -3.9014    0.0000 H   0  0  0  0  0  0  0  0  0  0  0  0
    4.8694   -3.7849    0.0000 H   0  0  0  0  0  0  0  0  0  0  0  0
    4.6624   -2.3433    0.0000 H   0  0  0  0  0  0  0  0  0  0  0  0
    5.4605   -3.7548    0.0000 H   0  0  0  0  0  0  0  0  0  0  0  0
    5.9049   -3.3929    0.0000 H   0  0  0  0  0  0  0  0  0  0  0  0
    5.7548   -1.4221    0.0000 H   0  0  0  0  0  0  0  0  0  0  0  0
    4.4109   -0.9366    0.0000 H   0  0  0  0  0  0  0  0  0  0  0  0
    5.3643    0.0214    0.0000 H   0  0  0  0  0  0  0  0  0  0  0  0
    4.8088   -0.0780    0.0000 H   0  0  0  0  0  0  0  0  0  0  0  0
    7.1368    0.2072    0.0000 H   0  0  0  0  0  0  0  0  0  0  0  0
    6.5806    0.9109    0.0000 H   0  0  0  0  0  0  0  0  0  0  0  0
    7.6593   -0.3558    0.0000 H   0  0  0  0  0  0  0  0  0  0  0  0
    8.1624   -3.1690    0.0000 H   0  0  0  0  0  0  0  0  0  0  0  0
    6.9637   -3.4957    0.0000 H   0  0  0  0  0  0  0  0  0  0  0  0
    6.2529   -3.6160    0.0000 H   0  0  0  0  0  0  0  0  0  0  0  0
    6.5894   -3.4124    0.0000 H   0  0  0  0  0  0  0  0  0  0  0  0
    6.7934   -3.0761    0.0000 H   0  0  0  0  0  0  0  0  0  0  0  0
    3.3381   -1.9419    0.0000 H   0  0  0  0  0  0  0  0  0  0  0  0
    3.4341   -0.3825    0.0000 H   0  0  0  0  0  0  0  0  0  0  0  0
    2.8745   -0.6450    0.0000 H   0  0  0  0  0  0  0  0  0  0  0  0
    2.2429   -1.0574    0.0000 H   0  0  0  0  0  0  0  0  0  0  0  0
    1.9797   -1.7860    0.0000 H   0  0  0  0  0  0  0  0  0  0  0  0
  1  2  1  0  0  0  0
  2  3  1  0  0  0  0
  3  4  1  0  0  0  0
  4  5  1  0  0  0  0
  5  6  1  0  0  0  0
  6  7  1  0  0  0  0
  7  8  1  0  0  0  0
  8  9  2  0  0  0  0
  8 10  1  0  0  0  0
 10 11  2  0  0  0  0
 11 12  1  0  0  0  0
 12 13  2  0  0  0  0
 12 14  1  0  0  0  0
 14 15  2  0  0  0  0
 15 16  1  0  0  0  0
  5 16  1  0  0  0  0
 10 16  1  0  0  0  0
 16 17  1  0  0  0  0
  6 18  1  0  0  0  0
  2 18  1  0  0  0  0
 18 19  1  0  0  0  0
 19 20  1  0  0  0  0
 20 21  1  0  0  0  0
  2 21  1  0  0  0  0
 21 22  2  0  0  0  0
  1 23  1  0  0  0  0
  1 24  1  0  0  0  0
  1 25  1  0  0  0  0
  3 26  1  0  0  0  0
  3 27  1  0  0  0  0
  4 28  1  0  0  0  0
  4 29  1  0  0  0  0
  5 30  1  0  0  0  0
  6 31  1  0  0  0  0
  7 32  1  0  0  0  0
  7 33  1  0  0  0  0
  9 34  1  0  0  0  0
  9 35  1  0  0  0  0
 11 36  1  0  0  0  0
 14 37  1  0  0  0  0
 15 38  1  0  0  0  0
 17 39  1  0  0  0  0
 17 40  1  0  0  0  0
 17 41  1  0  0  0  0
 18 42  1  0  0  0  0
 19 43  1  0  0  0  0
 19 44  1  0  0  0  0
 20 45  1  0  0  0  0
 20 46  1  0  0  0  0
M  END
>  <InChIKey>
InChI=1S/C20H24O2/c1-12-10-14-15-4-5-18(22)20(15,3)9-7-16(14)19(2)8-6-13(21)11-17(12)19/h6,8,11,14-16H,1,4-5,7,9-10H2,2-3H3

>  <CASRN>
107868-30-4

> <Outcome>
0

>  <Index>
1177

>  <StandardizerResult>
Clear Stereo (ID: ClearStereo)
Wedge Clean (ID: WedgeClean)
Mesomerize (ID: Mesomerize)
Tautomerize (ID: Tautomerize)
Add Explicit Hydrogens (ID: AddExplicitH)
Neutralize (ID: Neutralize)
Clean 2D (ID: Clean2D)

> <knn Distance>
4.12310552597046

> <CpId>
1177

$$$$
1215
  Mrv1532301301811342D          

 46 49  0  0  0  0            999 V2000
    3.8109   -3.4960    0.0000 C   0  0  0  0  0  0  0  0  0  0  0  0
    4.0809   -2.7164    0.0000 C   0  0  0  0  0  0  0  0  0  0  0  0
    4.6210   -3.3401    0.0000 C   0  0  0  0  0  0  0  0  0  0  0  0
    5.4312   -3.1841    0.0000 C   0  0  0  0  0  0  0  0  0  0  0  0
    5.7012   -2.4046    0.0000 C   0  0  0  0  0  0  0  0  0  0  0  0
    5.1611   -1.7810    0.0000 C   0  0  0  0  0  0  0  0  0  0  0  0
    5.4312   -1.0014    0.0000 C   0  0  0  0  0  0  0  0  0  0  0  0
    6.2413   -0.8455    0.0000 C   0  0  0  0  0  0  0  0  0  0  0  0
    6.7814   -1.4691    0.0000 C   0  0  0  0  0  0  0  0  0  0  0  0
    7.5915   -1.3132    0.0000 C   0  0  0  0  0  0  0  0  0  0  0  0
    8.1316   -1.9369    0.0000 C   0  0  0  0  0  0  0  0  0  0  0  0
    8.9417   -1.7810    0.0000 O   0  0  0  0  0  0  0  0  0  0  0  0
    7.8616   -2.7164    0.0000 C   0  0  0  0  0  0  0  0  0  0  0  0
    7.0514   -2.8723    0.0000 C   0  0  0  0  0  0  0  0  0  0  0  0
    6.5113   -2.2487    0.0000 C   0  0  0  0  0  0  0  0  0  0  0  0
    6.2413   -3.0282    0.0000 C   0  0  0  0  0  0  0  0  0  0  0  0
    4.3510   -1.9369    0.0000 C   0  0  0  0  0  0  0  0  0  0  0  0
    3.8109   -1.3132    0.0000 C   0  0  0  0  0  0  0  0  0  0  0  0
    3.0008   -1.4691    0.0000 C   0  0  0  0  0  0  0  0  0  0  0  0
    2.7307   -2.2487    0.0000 C   0  0  0  0  0  0  0  0  0  0  0  0
    1.9206   -2.4046    0.0000 O   0  0  0  0  0  0  0  0  0  0  0  0
    3.2708   -2.8723    0.0000 O   0  0  0  0  0  0  0  0  0  0  0  0
    3.0008   -3.6519    0.0000 H   0  0  0  0  0  0  0  0  0  0  0  0
    3.5409   -4.2755    0.0000 H   0  0  0  0  0  0  0  0  0  0  0  0
    4.3510   -4.1196    0.0000 H   0  0  0  0  0  0  0  0  0  0  0  0
    5.1611   -3.9637    0.0000 H   0  0  0  0  0  0  0  0  0  0  0  0
    4.8911   -2.5605    0.0000 H   0  0  0  0  0  0  0  0  0  0  0  0
    5.7254   -3.9549    0.0000 H   0  0  0  0  0  0  0  0  0  0  0  0
    6.1520   -3.5855    0.0000 H   0  0  0  0  0  0  0  0  0  0  0  0
    5.9713   -1.6250    0.0000 H   0  0  0  0  0  0  0  0  0  0  0  0
    4.6210   -1.1573    0.0000 H   0  0  0  0  0  0  0  0  0  0  0  0
    5.5617   -0.1868    0.0000 H   0  0  0  0  0  0  0  0  0  0  0  0
    5.0076   -0.2934    0.0000 H   0  0  0  0  0  0  0  0  0  0  0  0
    7.0016   -0.5253    0.0000 H   0  0  0  0  0  0  0  0  0  0  0  0
    6.6036   -0.1043    0.0000 H   0  0  0  0  0  0  0  0  0  0  0  0
    7.8616   -0.5337    0.0000 H   0  0  0  0  0  0  0  0  0  0  0  0
    8.4017   -3.3401    0.0000 H   0  0  0  0  0  0  0  0  0  0  0  0
    7.2073   -3.6825    0.0000 H   0  0  0  0  0  0  0  0  0  0  0  0
    6.5016   -3.8111    0.0000 H   0  0  0  0  0  0  0  0  0  0  0  0
    6.8337   -3.6024    0.0000 H   0  0  0  0  0  0  0  0  0  0  0  0
    7.0319   -3.2640    0.0000 H   0  0  0  0  0  0  0  0  0  0  0  0
    3.5409   -2.0928    0.0000 H   0  0  0  0  0  0  0  0  0  0  0  0
    3.9415   -0.4986    0.0000 H   0  0  0  0  0  0  0  0  0  0  0  0
    3.3873   -0.6053    0.0000 H   0  0  0  0  0  0  0  0  0  0  0  0
    2.3892   -0.9154    0.0000 H   0  0  0  0  0  0  0  0  0  0  0  0
    2.1759   -1.4540    0.0000 H   0  0  0  0  0  0  0  0  0  0  0  0
  1  2  1  0  0  0  0
  2  3  1  0  0  0  0
  3  4  1  0  0  0  0
  4  5  1  0  0  0  0
  5  6  1  0  0  0  0
  6  7  1  0  0  0  0
  7  8  1  0  0  0  0
  8  9  1  0  0  0  0
  9 10  2  0  0  0  0
 10 11  1  0  0  0  0
 11 12  2  0  0  0  0
 11 13  1  0  0  0  0
 13 14  2  0  0  0  0
 14 15  1  0  0  0  0
  5 15  1  0  0  0  0
  9 15  1  0  0  0  0
 15 16  1  0  0  0  0
  6 17  1  0  0  0  0
  2 17  1  0  0  0  0
 17 18  1  0  0  0  0
 18 19  1  0  0  0  0
 19 20  1  0  0  0  0
 20 21  2  0  0  0  0
 20 22  1  0  0  0  0
  2 22  1  0  0  0  0
  1 23  1  0  0  0  0
  1 24  1  0  0  0  0
  1 25  1  0  0  0  0
  3 26  1  0  0  0  0
  3 27  1  0  0  0  0
  4 28  1  0  0  0  0
  4 29  1  0  0  0  0
  5 30  1  0  0  0  0
  6 31  1  0  0  0  0
  7 32  1  0  0  0  0
  7 33  1  0  0  0  0
  8 34  1  0  0  0  0
  8 35  1  0  0  0  0
 10 36  1  0  0  0  0
 13 37  1  0  0  0  0
 14 38  1  0  0  0  0
 16 39  1  0  0  0  0
 16 40  1  0  0  0  0
 16 41  1  0  0  0  0
 17 42  1  0  0  0  0
 18 43  1  0  0  0  0
 18 44  1  0  0  0  0
 19 45  1  0  0  0  0
 19 46  1  0  0  0  0
M  END
>  <InChIKey>
InChI=1S/C19H24O3/c1-18-9-7-13(20)11-12(18)3-4-14-15(18)8-10-19(2)16(14)5-6-17(21)22-19/h7,9,11,14-16H,3-6,8,10H2,1-2H3

>  <CASRN>
968-93-4

> <Outcome>
0

>  <Index>
1215

>  <StandardizerResult>
Clear Stereo (ID: ClearStereo)
Wedge Clean (ID: WedgeClean)
Mesomerize (ID: Mesomerize)
Tautomerize (ID: Tautomerize)
Add Explicit Hydrogens (ID: AddExplicitH)
Neutralize (ID: Neutralize)
Clean 2D (ID: Clean2D)

> <knn Distance>
4.12310552597046

> <CpId>
1215

$$$$
1217
  Mrv1532301301811342D          

 74 76  0  0  0  0            999 V2000
    1.3905   -2.7011    0.0000 C   0  0  0  0  0  0  0  0  0  0  0  0
    0.8385   -2.0880    0.0000 C   0  0  0  0  0  0  0  0  0  0  0  0
    0.0315   -2.2595    0.0000 C   0  0  0  0  0  0  0  0  0  0  0  0
   -0.5205   -1.6464    0.0000 C   0  0  0  0  0  0  0  0  0  0  0  0
   -1.3275   -1.8180    0.0000 C   0  0  0  0  0  0  0  0  0  0  0  0
   -1.5825   -2.6026    0.0000 C   0  0  0  0  0  0  0  0  0  0  0  0
   -1.8796   -1.2049    0.0000 C   0  0  0  0  0  0  0  0  0  0  0  0
   -2.4316   -0.5918    0.0000 C   0  0  0  0  0  0  0  0  0  0  0  0
   -2.4926   -1.7569    0.0000 C   0  0  0  0  0  0  0  0  0  0  0  0
   -1.2665   -0.6528    0.0000 O   0  0  0  0  0  0  0  0  0  0  0  0
    1.0934   -1.3034    0.0000 C   0  0  0  0  0  0  0  0  0  0  0  0
    0.6085   -0.6359    0.0000 C   0  0  0  0  0  0  0  0  0  0  0  0
    1.0934    0.0315    0.0000 C   0  0  0  0  0  0  0  0  0  0  0  0
    1.8780   -0.2234    0.0000 C   0  0  0  0  0  0  0  0  0  0  0  0
    2.5925    0.1891    0.0000 C   0  0  0  0  0  0  0  0  0  0  0  0
    3.3070   -0.2234    0.0000 C   0  0  0  0  0  0  0  0  0  0  0  0
    3.3070   -1.0484    0.0000 C   0  0  0  0  0  0  0  0  0  0  0  0
    2.5925   -1.4609    0.0000 C   0  0  0  0  0  0  0  0  0  0  0  0
    1.8780   -1.0484    0.0000 C   0  0  0  0  0  0  0  0  0  0  0  0
    1.7918   -1.8689    0.0000 C   0  0  0  0  0  0  0  0  0  0  0  0
    2.5925    1.0141    0.0000 C   0  0  0  0  0  0  0  0  0  0  0  0
    1.8780    1.4266    0.0000 C   0  0  0  0  0  0  0  0  0  0  0  0
    1.8780    2.2516    0.0000 C   0  0  0  0  0  0  0  0  0  0  0  0
    1.1635    2.6641    0.0000 C   0  0  0  0  0  0  0  0  0  0  0  0
    1.1635    3.4891    0.0000 C   0  0  0  0  0  0  0  0  0  0  0  0
    0.4491    3.9016    0.0000 O   0  0  0  0  0  0  0  0  0  0  0  0
    1.8780    3.9016    0.0000 C   0  0  0  0  0  0  0  0  0  0  0  0
    2.5925    3.4891    0.0000 C   0  0  0  0  0  0  0  0  0  0  0  0
    3.3070    3.9016    0.0000 O   0  0  0  0  0  0  0  0  0  0  0  0
    2.5925    2.6641    0.0000 C   0  0  0  0  0  0  0  0  0  0  0  0
    0.6432   -3.0506    0.0000 H   0  0  0  0  0  0  0  0  0  0  0  0
    1.5071   -3.5178    0.0000 H   0  0  0  0  0  0  0  0  0  0  0  0
    2.2058   -2.8274    0.0000 H   0  0  0  0  0  0  0  0  0  0  0  0
    0.5835   -2.8726    0.0000 H   0  0  0  0  0  0  0  0  0  0  0  0
   -0.5816   -2.8116    0.0000 H   0  0  0  0  0  0  0  0  0  0  0  0
   -0.2656   -0.8618    0.0000 H   0  0  0  0  0  0  0  0  0  0  0  0
   -0.7755   -2.4310    0.0000 H   0  0  0  0  0  0  0  0  0  0  0  0
   -2.2744   -2.1532    0.0000 H   0  0  0  0  0  0  0  0  0  0  0  0
   -2.1956   -3.1546    0.0000 H   0  0  0  0  0  0  0  0  0  0  0  0
   -1.2079   -3.3377    0.0000 H   0  0  0  0  0  0  0  0  0  0  0  0
   -1.8185   -0.0397    0.0000 H   0  0  0  0  0  0  0  0  0  0  0  0
   -2.9836    0.0213    0.0000 H   0  0  0  0  0  0  0  0  0  0  0  0
   -3.0447   -1.1438    0.0000 H   0  0  0  0  0  0  0  0  0  0  0  0
   -3.3104   -1.8662    0.0000 H   0  0  0  0  0  0  0  0  0  0  0  0
   -2.8643   -2.4935    0.0000 H   0  0  0  0  0  0  0  0  0  0  0  0
   -1.6791   -1.8942    0.0000 H   0  0  0  0  0  0  0  0  0  0  0  0
   -0.4426   -0.6960    0.0000 H   0  0  0  0  0  0  0  0  0  0  0  0
    0.2786   -1.4324    0.0000 H   0  0  0  0  0  0  0  0  0  0  0  0
    0.1442    0.0461    0.0000 H   0  0  0  0  0  0  0  0  0  0  0  0
    1.4335   -0.6359    0.0000 H   0  0  0  0  0  0  0  0  0  0  0  0
    1.5225    0.7361    0.0000 H   0  0  0  0  0  0  0  0  0  0  0  0
    0.9153    0.8371    0.0000 H   0  0  0  0  0  0  0  0  0  0  0  0
    2.5925   -0.6359    0.0000 H   0  0  0  0  0  0  0  0  0  0  0  0
    4.1306   -0.1755    0.0000 H   0  0  0  0  0  0  0  0  0  0  0  0
    3.7603    0.4658    0.0000 H   0  0  0  0  0  0  0  0  0  0  0  0
    3.7603   -1.7377    0.0000 H   0  0  0  0  0  0  0  0  0  0  0  0
    4.1306   -1.0964    0.0000 H   0  0  0  0  0  0  0  0  0  0  0  0
    2.7097   -2.2776    0.0000 H   0  0  0  0  0  0  0  0  0  0  0  0
    3.2135   -2.0040    0.0000 H   0  0  0  0  0  0  0  0  0  0  0  0
    2.0987   -2.6347    0.0000 H   0  0  0  0  0  0  0  0  0  0  0  0
    2.5641   -2.1589    0.0000 H   0  0  0  0  0  0  0  0  0  0  0  0
    0.9867   -2.0493    0.0000 H   0  0  0  0  0  0  0  0  0  0  0  0
    3.3070    1.4266    0.0000 H   0  0  0  0  0  0  0  0  0  0  0  0
    1.0762    1.6209    0.0000 H   0  0  0  0  0  0  0  0  0  0  0  0
    0.3399    2.6161    0.0000 H   0  0  0  0  0  0  0  0  0  0  0  0
    0.7102    1.9748    0.0000 H   0  0  0  0  0  0  0  0  0  0  0  0
    1.1635    4.3141    0.0000 H   0  0  0  0  0  0  0  0  0  0  0  0
   -0.3759    3.9016    0.0000 H   0  0  0  0  0  0  0  0  0  0  0  0
    2.5100    4.4319    0.0000 H   0  0  0  0  0  0  0  0  0  0  0  0
    2.0213    4.7140    0.0000 H   0  0  0  0  0  0  0  0  0  0  0  0
    3.3070    3.0766    0.0000 H   0  0  0  0  0  0  0  0  0  0  0  0
    4.0342    4.2912    0.0000 H   0  0  0  0  0  0  0  0  0  0  0  0
    2.7357    1.8516    0.0000 H   0  0  0  0  0  0  0  0  0  0  0  0
    3.2245    2.1338    0.0000 H   0  0  0  0  0  0  0  0  0  0  0  0
  1  2  1  0  0  0  0
  3  2  1  4  0  0  0
  3  4  2  0  0  0  0
  4  5  1  0  0  0  0
  5  6  1  0  0  0  0
  5  7  1  0  0  0  0
  7  8  1  0  0  0  0
  7  9  1  0  0  0  0
  7 10  1  0  0  0  0
  2 11  1  0  0  0  0
 11 12  1  0  0  0  0
 12 13  1  0  0  0  0
 13 14  1  0  0  0  0
 14 15  1  0  0  0  0
 15 16  1  0  0  0  0
 16 17  1  0  0  0  0
 17 18  1  0  0  0  0
 18 19  1  0  0  0  0
 11 19  1  0  0  0  0
 14 19  1  0  0  0  0
 19 20  1  0  0  0  0
 15 21  2  0  0  0  0
 21 22  1  4  0  0  0
 22 23  2  0  0  0  0
 23 24  1  4  0  0  0
 24 25  1  0  0  0  0
 25 26  1  0  0  0  0
 25 27  1  0  0  0  0
 27 28  1  0  0  0  0
 28 29  1  0  0  0  0
 28 30  1  0  0  0  0
 23 30  1  0  0  0  0
  1 31  1  0  0  0  0
  1 32  1  0  0  0  0
  1 33  1  0  0  0  0
  2 34  1  0  0  0  0
  3 35  1  0  0  0  0
  4 36  1  0  0  0  0
  5 37  1  0  0  0  0
  6 38  1  0  0  0  0
  6 39  1  0  0  0  0
  6 40  1  0  0  0  0
  8 41  1  0  0  0  0
  8 42  1  0  0  0  0
  8 43  1  0  0  0  0
  9 44  1  0  0  0  0
  9 45  1  0  0  0  0
  9 46  1  0  0  0  0
 10 47  1  0  0  0  0
 11 48  1  0  0  0  0
 12 49  1  0  0  0  0
 12 50  1  0  0  0  0
 13 51  1  0  0  0  0
 13 52  1  0  0  0  0
 14 53  1  0  0  0  0
 16 54  1  0  0  0  0
 16 55  1  0  0  0  0
 17 56  1  0  0  0  0
 17 57  1  0  0  0  0
 18 58  1  0  0  0  0
 18 59  1  0  0  0  0
 20 60  1  0  0  0  0
 20 61  1  0  0  0  0
 20 62  1  0  0  0  0
 21 63  1  0  0  0  0
 22 64  1  0  0  0  0
 24 65  1  0  0  0  0
 24 66  1  0  0  0  0
 25 67  1  0  0  0  0
 26 68  1  0  0  0  0
 27 69  1  0  0  0  0
 27 70  1  0  0  0  0
 28 71  1  0  0  0  0
 29 72  1  0  0  0  0
 30 73  1  0  0  0  0
 30 74  1  0  0  0  0
M  END
>  <InChIKey>
InChI=1S/C27H44O3/c1-18(8-9-19(2)26(3,4)30)24-12-13-25-21(7-6-14-27(24,25)5)11-10-20-15-22(28)17-23(29)16-20/h8-11,18-19,22-25,28-30H,6-7,12-17H2,1-5H3

>  <CASRN>
131918-61-1

> <Outcome>
0

>  <Index>
1217

>  <StandardizerResult>
Clear Stereo (ID: ClearStereo)
Wedge Clean (ID: WedgeClean)
Mesomerize (ID: Mesomerize)
Tautomerize (ID: Tautomerize)
Add Explicit Hydrogens (ID: AddExplicitH)
Neutralize (ID: Neutralize)
Clean 2D (ID: Clean2D)

> <knn Distance>
4.12310552597046

> <CpId>
1217

$$$$
1247
  Mrv1532301301811342D          

 59 60  0  0  0  0            999 V2000
   -6.6774   -6.1680    0.0000 C   0  0  0  0  0  0  0  0  0  0  0  0
   -5.9629   -5.7555    0.0000 O   0  0  0  0  0  0  0  0  0  0  0  0
   -5.2485   -6.1680    0.0000 C   0  0  0  0  0  0  0  0  0  0  0  0
   -5.2485   -6.9930    0.0000 O   0  0  0  0  0  0  0  0  0  0  0  0
   -4.5340   -5.7555    0.0000 C   0  0  0  0  0  0  0  0  0  0  0  0
   -3.8195   -6.1680    0.0000 C   0  0  0  0  0  0  0  0  0  0  0  0
   -3.1051   -5.7555    0.0000 C   0  0  0  0  0  0  0  0  0  0  0  0
   -2.3906   -6.1680    0.0000 C   0  0  0  0  0  0  0  0  0  0  0  0
   -1.6761   -6.5805    0.0000 C   0  0  0  0  0  0  0  0  0  0  0  0
   -0.9616   -6.1680    0.0000 C   0  0  0  0  0  0  0  0  0  0  0  0
   -0.9616   -5.3430    0.0000 C   0  0  0  0  0  0  0  0  0  0  0  0
   -1.6291   -4.8581    0.0000 C   0  0  0  0  0  0  0  0  0  0  0  0
   -2.4137   -5.1130    0.0000 O   0  0  0  0  0  0  0  0  0  0  0  0
   -1.3741   -4.0735    0.0000 C   0  0  0  0  0  0  0  0  0  0  0  0
   -0.5491   -4.0735    0.0000 C   0  0  0  0  0  0  0  0  0  0  0  0
   -0.0642   -3.4060    0.0000 O   0  0  0  0  0  0  0  0  0  0  0  0
   -0.2942   -4.8581    0.0000 C   0  0  0  0  0  0  0  0  0  0  0  0
    0.4904   -5.1130    0.0000 C   0  0  0  0  0  0  0  0  0  0  0  0
    0.6619   -5.9200    0.0000 C   0  0  0  0  0  0  0  0  0  0  0  0
    1.4466   -6.1749    0.0000 C   0  0  0  0  0  0  0  0  0  0  0  0
    2.0597   -5.6229    0.0000 O   0  0  0  0  0  0  0  0  0  0  0  0
    1.6181   -6.9819    0.0000 C   0  0  0  0  0  0  0  0  0  0  0  0
    2.4027   -7.2368    0.0000 O   0  0  0  0  0  0  0  0  0  0  0  0
    3.0158   -6.6848    0.0000 C   0  0  0  0  0  0  0  0  0  0  0  0
    2.8443   -5.8778    0.0000 C   0  0  0  0  0  0  0  0  0  0  0  0
    3.4574   -5.3258    0.0000 C   0  0  0  0  0  0  0  0  0  0  0  0
    4.2420   -5.5807    0.0000 C   0  0  0  0  0  0  0  0  0  0  0  0
    4.4135   -6.3877    0.0000 C   0  0  0  0  0  0  0  0  0  0  0  0
    3.8004   -6.9398    0.0000 C   0  0  0  0  0  0  0  0  0  0  0  0
   -7.0899   -5.4535    0.0000 H   0  0  0  0  0  0  0  0  0  0  0  0
   -7.3919   -6.5805    0.0000 H   0  0  0  0  0  0  0  0  0  0  0  0
   -6.2649   -6.8825    0.0000 H   0  0  0  0  0  0  0  0  0  0  0  0
   -4.1637   -5.0183    0.0000 H   0  0  0  0  0  0  0  0  0  0  0  0
   -4.9043   -5.0183    0.0000 H   0  0  0  0  0  0  0  0  0  0  0  0
   -4.1898   -6.9053    0.0000 H   0  0  0  0  0  0  0  0  0  0  0  0
   -3.4493   -6.9053    0.0000 H   0  0  0  0  0  0  0  0  0  0  0  0
   -3.5952   -5.0919    0.0000 H   0  0  0  0  0  0  0  0  0  0  0  0
   -1.6761   -7.4055    0.0000 H   0  0  0  0  0  0  0  0  0  0  0  0
   -0.5083   -6.8573    0.0000 H   0  0  0  0  0  0  0  0  0  0  0  0
   -0.1380   -6.2160    0.0000 H   0  0  0  0  0  0  0  0  0  0  0  0
   -0.2266   -5.7176    0.0000 H   0  0  0  0  0  0  0  0  0  0  0  0
   -1.7581   -5.6729    0.0000 H   0  0  0  0  0  0  0  0  0  0  0  0
   -2.8318   -4.4018    0.0000 H   0  0  0  0  0  0  0  0  0  0  0  0
   -1.4890   -3.2565    0.0000 H   0  0  0  0  0  0  0  0  0  0  0  0
   -2.1156   -3.7118    0.0000 H   0  0  0  0  0  0  0  0  0  0  0  0
    0.2657   -4.2025    0.0000 H   0  0  0  0  0  0  0  0  0  0  0  0
    0.0328   -2.5867    0.0000 H   0  0  0  0  0  0  0  0  0  0  0  0
   -1.0788   -4.6031    0.0000 H   0  0  0  0  0  0  0  0  0  0  0  0
    1.2945   -4.9284    0.0000 H   0  0  0  0  0  0  0  0  0  0  0  0
    0.6785   -6.7448    0.0000 H   0  0  0  0  0  0  0  0  0  0  0  0
    1.2750   -5.3680    0.0000 H   0  0  0  0  0  0  0  0  0  0  0  0
    2.3146   -4.8383    0.0000 H   0  0  0  0  0  0  0  0  0  0  0  0
    1.0303   -7.5608    0.0000 H   0  0  0  0  0  0  0  0  0  0  0  0
    1.8076   -7.7848    0.0000 H   0  0  0  0  0  0  0  0  0  0  0  0
    2.2312   -6.4299    0.0000 H   0  0  0  0  0  0  0  0  0  0  0  0
    3.2859   -4.5188    0.0000 H   0  0  0  0  0  0  0  0  0  0  0  0
    4.8551   -5.0287    0.0000 H   0  0  0  0  0  0  0  0  0  0  0  0
    5.1982   -6.6427    0.0000 H   0  0  0  0  0  0  0  0  0  0  0  0
    3.9720   -7.7467    0.0000 H   0  0  0  0  0  0  0  0  0  0  0  0
  1  2  1  0  0  0  0
  2  3  1  0  0  0  0
  3  4  2  0  0  0  0
  3  5  1  0  0  0  0
  5  6  1  0  0  0  0
  6  7  1  0  0  0  0
  7  8  2  0  0  0  0
  8  9  2  0  0  0  0
  9 10  1  0  0  0  0
 10 11  1  0  0  0  0
 11 12  1  0  0  0  0
 12 13  1  0  0  0  0
 12 14  1  0  0  0  0
 14 15  1  0  0  0  0
 15 16  1  0  0  0  0
 15 17  1  0  0  0  0
 11 17  1  0  0  0  0
 18 17  1  4  0  0  0
 18 19  2  0  0  0  0
 19 20  1  0  0  0  0
 20 21  1  0  0  0  0
 20 22  1  0  0  0  0
 22 23  1  0  0  0  0
 23 24  1  0  0  0  0
 24 25  4  0  0  0  0
 25 26  4  0  0  0  0
 26 27  4  0  0  0  0
 27 28  4  0  0  0  0
 28 29  4  0  0  0  0
 24 29  4  0  0  0  0
  1 30  1  0  0  0  0
  1 31  1  0  0  0  0
  1 32  1  0  0  0  0
  5 33  1  0  0  0  0
  5 34  1  0  0  0  0
  6 35  1  0  0  0  0
  6 36  1  0  0  0  0
  7 37  1  0  0  0  0
  9 38  1  0  0  0  0
 10 39  1  0  0  0  0
 10 40  1  0  0  0  0
 11 41  1  0  0  0  0
 12 42  1  0  0  0  0
 13 43  1  0  0  0  0
 14 44  1  0  0  0  0
 14 45  1  0  0  0  0
 15 46  1  0  0  0  0
 16 47  1  0  0  0  0
 17 48  1  0  0  0  0
 18 49  1  0  0  0  0
 19 50  1  0  0  0  0
 20 51  1  0  0  0  0
 21 52  1  0  0  0  0
 22 53  1  0  0  0  0
 22 54  1  0  0  0  0
 25 55  1  0  0  0  0
 26 56  1  0  0  0  0
 27 57  1  0  0  0  0
 28 58  1  0  0  0  0
 29 59  1  0  0  0  0
M  END
>  <InChIKey>
InChI=1S/C23H30O6/c1-28-23(27)12-8-3-2-7-11-19-20(22(26)15-21(19)25)14-13-17(24)16-29-18-9-5-4-6-10-18/h3-7,9-10,13-14,17,19-22,24-26H,8,11-12,15-16H2,1H3

>  <CASRN>
69381-94-8

> <Outcome>
0

>  <Index>
1247

>  <StandardizerResult>
Dearomatize (ID: Dearomatize)
Clear Stereo (ID: ClearStereo)
Wedge Clean (ID: WedgeClean)
Mesomerize (ID: Mesomerize)
Tautomerize (ID: Tautomerize)
Aromatize (ID: Aromatize)
Add Explicit Hydrogens (ID: AddExplicitH)
Neutralize (ID: Neutralize)
Clean 2D (ID: Clean2D)

> <knn Distance>
4.12310552597046

> <CpId>
1247

$$$$
1285
  Mrv1532301301811342D          

 51 54  0  0  0  0            999 V2000
    3.5449   -3.2603    0.0000 C   0  0  0  0  0  0  0  0  0  0  0  0
    3.9047   -2.5179    0.0000 C   0  0  0  0  0  0  0  0  0  0  0  0
    4.4365   -3.1486    0.0000 C   0  0  0  0  0  0  0  0  0  0  0  0
    5.2487   -3.0034    0.0000 C   0  0  0  0  0  0  0  0  0  0  0  0
    5.5290   -2.2274    0.0000 C   0  0  0  0  0  0  0  0  0  0  0  0
    4.9971   -1.5967    0.0000 C   0  0  0  0  0  0  0  0  0  0  0  0
    5.2774   -0.8208    0.0000 C   0  0  0  0  0  0  0  0  0  0  0  0
    6.0896   -0.6756    0.0000 C   0  0  0  0  0  0  0  0  0  0  0  0
    6.6214   -1.3063    0.0000 C   0  0  0  0  0  0  0  0  0  0  0  0
    7.4335   -1.1611    0.0000 C   0  0  0  0  0  0  0  0  0  0  0  0
    7.9653   -1.7918    0.0000 C   0  0  0  0  0  0  0  0  0  0  0  0
    8.7774   -1.6466    0.0000 O   0  0  0  0  0  0  0  0  0  0  0  0
    7.6850   -2.5677    0.0000 C   0  0  0  0  0  0  0  0  0  0  0  0
    6.8729   -2.7129    0.0000 C   0  0  0  0  0  0  0  0  0  0  0  0
    6.3411   -2.0822    0.0000 C   0  0  0  0  0  0  0  0  0  0  0  0
    6.0608   -2.8582    0.0000 C   0  0  0  0  0  0  0  0  0  0  0  0
    4.1850   -1.7420    0.0000 C   0  0  0  0  0  0  0  0  0  0  0  0
    3.5337   -1.2356    0.0000 C   0  0  0  0  0  0  0  0  0  0  0  0
    2.8509   -1.6986    0.0000 C   0  0  0  0  0  0  0  0  0  0  0  0
    3.0802   -2.4911    0.0000 C   0  0  0  0  0  0  0  0  0  0  0  0
    2.3193   -2.8099    0.0000 O   0  0  0  0  0  0  0  0  0  0  0  0
    2.9588   -3.3071    0.0000 C   0  0  0  0  0  0  0  0  0  0  0  0
    2.8374   -4.1231    0.0000 C   0  0  0  0  0  0  0  0  0  0  0  0
    3.0169   -3.8942    0.0000 H   0  0  0  0  0  0  0  0  0  0  0  0
    3.6290   -4.0809    0.0000 H   0  0  0  0  0  0  0  0  0  0  0  0
    4.1905   -3.7739    0.0000 H   0  0  0  0  0  0  0  0  0  0  0  0
    4.9594   -3.7867    0.0000 H   0  0  0  0  0  0  0  0  0  0  0  0
    4.7168   -2.3727    0.0000 H   0  0  0  0  0  0  0  0  0  0  0  0
    5.5290   -3.7793    0.0000 H   0  0  0  0  0  0  0  0  0  0  0  0
    5.9632   -3.4158    0.0000 H   0  0  0  0  0  0  0  0  0  0  0  0
    5.8093   -1.4515    0.0000 H   0  0  0  0  0  0  0  0  0  0  0  0
    4.4653   -0.9660    0.0000 H   0  0  0  0  0  0  0  0  0  0  0  0
    5.4188   -0.0080    0.0000 H   0  0  0  0  0  0  0  0  0  0  0  0
    4.8632   -0.1073    0.0000 H   0  0  0  0  0  0  0  0  0  0  0  0
    6.8540   -0.3655    0.0000 H   0  0  0  0  0  0  0  0  0  0  0  0
    6.4616    0.0607    0.0000 H   0  0  0  0  0  0  0  0  0  0  0  0
    7.7138   -0.3852    0.0000 H   0  0  0  0  0  0  0  0  0  0  0  0
    7.8772   -3.3700    0.0000 H   0  0  0  0  0  0  0  0  0  0  0  0
    8.4433   -2.8927    0.0000 H   0  0  0  0  0  0  0  0  0  0  0  0
    6.7316   -3.5257    0.0000 H   0  0  0  0  0  0  0  0  0  0  0  0
    7.2871   -3.4264    0.0000 H   0  0  0  0  0  0  0  0  0  0  0  0
    6.3103   -3.6445    0.0000 H   0  0  0  0  0  0  0  0  0  0  0  0
    5.2849   -2.5779    0.0000 H   0  0  0  0  0  0  0  0  0  0  0  0
    5.4785   -3.4426    0.0000 H   0  0  0  0  0  0  0  0  0  0  0  0
    3.3925   -1.9713    0.0000 H   0  0  0  0  0  0  0  0  0  0  0  0
    3.4885   -0.4118    0.0000 H   0  0  0  0  0  0  0  0  0  0  0  0
    2.9290   -0.6744    0.0000 H   0  0  0  0  0  0  0  0  0  0  0  0
    2.2973   -1.0868    0.0000 H   0  0  0  0  0  0  0  0  0  0  0  0
    2.0342   -1.8154    0.0000 H   0  0  0  0  0  0  0  0  0  0  0  0
    1.5015   -2.7014    0.0000 H   0  0  0  0  0  0  0  0  0  0  0  0
    2.2271   -4.6783    0.0000 H   0  0  0  0  0  0  0  0  0  0  0  0
  1  2  1  0  0  0  0
  2  3  1  0  0  0  0
  3  4  1  0  0  0  0
  4  5  1  0  0  0  0
  5  6  1  0  0  0  0
  6  7  1  0  0  0  0
  7  8  1  0  0  0  0
  8  9  1  0  0  0  0
  9 10  2  0  0  0  0
 10 11  1  0  0  0  0
 11 12  2  0  0  0  0
 11 13  1  0  0  0  0
 13 14  1  0  0  0  0
 14 15  1  0  0  0  0
  5 15  1  0  0  0  0
  9 15  1  0  0  0  0
 15 16  1  0  0  0  0
  6 17  1  0  0  0  0
  2 17  1  0  0  0  0
 17 18  1  0  0  0  0
 18 19  1  0  0  0  0
 19 20  1  0  0  0  0
  2 20  1  0  0  0  0
 20 21  1  0  0  0  0
 20 22  1  0  0  0  0
 22 23  3  0  0  0  0
  1 24  1  0  0  0  0
  1 25  1  0  0  0  0
  1 26  1  0  0  0  0
  3 27  1  0  0  0  0
  3 28  1  0  0  0  0
  4 29  1  0  0  0  0
  4 30  1  0  0  0  0
  5 31  1  0  0  0  0
  6 32  1  0  0  0  0
  7 33  1  0  0  0  0
  7 34  1  0  0  0  0
  8 35  1  0  0  0  0
  8 36  1  0  0  0  0
 10 37  1  0  0  0  0
 13 38  1  0  0  0  0
 13 39  1  0  0  0  0
 14 40  1  0  0  0  0
 14 41  1  0  0  0  0
 16 42  1  0  0  0  0
 16 43  1  0  0  0  0
 16 44  1  0  0  0  0
 17 45  1  0  0  0  0
 18 46  1  0  0  0  0
 18 47  1  0  0  0  0
 19 48  1  0  0  0  0
 19 49  1  0  0  0  0
 21 50  1  0  0  0  0
 23 51  1  0  0  0  0
M  END
>  <InChIKey>
InChI=1S/C21H28O2/c1-4-21(23)12-9-18-16-6-5-14-13-15(22)7-10-19(14,2)17(16)8-11-20(18,21)3/h1,13,16-18,23H,5-12H2,2-3H3

>  <CASRN>
434-03-7

> <Outcome>
0

>  <Index>
1285

>  <StandardizerResult>
Clear Stereo (ID: ClearStereo)
Wedge Clean (ID: WedgeClean)
Mesomerize (ID: Mesomerize)
Tautomerize (ID: Tautomerize)
Add Explicit Hydrogens (ID: AddExplicitH)
Neutralize (ID: Neutralize)
Clean 2D (ID: Clean2D)

> <knn Distance>
4.12310552597046

> <CpId>
1285

$$$$
1310
  Mrv1532301301811342D          

 26 26  0  0  0  0            999 V2000
    0.0006    3.3003    0.0000 C   0  0  0  0  0  0  0  0  0  0  0  0
    0.0006    2.4753    0.0000 C   0  0  0  0  0  0  0  0  0  0  0  0
    0.7151    2.0628    0.0000 O   0  0  0  0  0  0  0  0  0  0  0  0
    0.7151    1.2378    0.0000 C   0  0  0  0  0  0  0  0  0  0  0  0
    1.4295    0.8253    0.0000 C   0  0  0  0  0  0  0  0  0  0  0  0
    1.4295    0.0003    0.0000 C   0  0  0  0  0  0  0  0  0  0  0  0
    0.7151   -0.4122    0.0000 C   0  0  0  0  0  0  0  0  0  0  0  0
    0.7151   -1.2372    0.0000 N   0  0  0  0  0  0  0  0  0  0  0  0
    0.0006   -1.6497    0.0000 C   0  0  0  0  0  0  0  0  0  0  0  0
    0.0006   -2.4747    0.0000 C   0  0  0  0  0  0  0  0  0  0  0  0
   -0.7139   -1.2372    0.0000 O   0  0  0  0  0  0  0  0  0  0  0  0
    0.0006    0.0003    0.0000 C   0  0  0  0  0  0  0  0  0  0  0  0
    0.0006    0.8253    0.0000 C   0  0  0  0  0  0  0  0  0  0  0  0
    0.8256    3.3003    0.0000 H   0  0  0  0  0  0  0  0  0  0  0  0
    0.0006    4.1253    0.0000 H   0  0  0  0  0  0  0  0  0  0  0  0
   -0.8244    3.3003    0.0000 H   0  0  0  0  0  0  0  0  0  0  0  0
   -0.8230    2.4274    0.0000 H   0  0  0  0  0  0  0  0  0  0  0  0
   -0.4528    1.7861    0.0000 H   0  0  0  0  0  0  0  0  0  0  0  0
    2.1440    1.2378    0.0000 H   0  0  0  0  0  0  0  0  0  0  0  0
    2.1440   -0.4122    0.0000 H   0  0  0  0  0  0  0  0  0  0  0  0
    1.4295   -1.6497    0.0000 H   0  0  0  0  0  0  0  0  0  0  0  0
   -0.8244   -2.4747    0.0000 H   0  0  0  0  0  0  0  0  0  0  0  0
    0.0006   -3.2997    0.0000 H   0  0  0  0  0  0  0  0  0  0  0  0
    0.8256   -2.4747    0.0000 H   0  0  0  0  0  0  0  0  0  0  0  0
   -0.7139   -0.4122    0.0000 H   0  0  0  0  0  0  0  0  0  0  0  0
   -0.7139    1.2378    0.0000 H   0  0  0  0  0  0  0  0  0  0  0  0
  1  2  1  0  0  0  0
  2  3  1  0  0  0  0
  3  4  1  0  0  0  0
  4  5  4  0  0  0  0
  5  6  4  0  0  0  0
  6  7  4  0  0  0  0
  7  8  1  0  0  0  0
  8  9  1  0  0  0  0
  9 10  1  0  0  0  0
  9 11  2  0  0  0  0
  7 12  4  0  0  0  0
 12 13  4  0  0  0  0
  4 13  4  0  0  0  0
  1 14  1  0  0  0  0
  1 15  1  0  0  0  0
  1 16  1  0  0  0  0
  2 17  1  0  0  0  0
  2 18  1  0  0  0  0
  5 19  1  0  0  0  0
  6 20  1  0  0  0  0
  8 21  1  0  0  0  0
 10 22  1  0  0  0  0
 10 23  1  0  0  0  0
 10 24  1  0  0  0  0
 12 25  1  0  0  0  0
 13 26  1  0  0  0  0
M  END
>  <InChIKey>
InChI=1S/C10H13NO2/c1-3-13-10-6-4-9(5-7-10)11-8(2)12/h4-7H,3H2,1-2H3,(H,11,12)

>  <CASRN>
62-44-2

> <Outcome>
0

>  <Index>
1310

>  <StandardizerResult>
Dearomatize (ID: Dearomatize)
Clear Stereo (ID: ClearStereo)
Wedge Clean (ID: WedgeClean)
Mesomerize (ID: Mesomerize)
Tautomerize (ID: Tautomerize)
Aromatize (ID: Aromatize)
Add Explicit Hydrogens (ID: AddExplicitH)
Neutralize (ID: Neutralize)
Clean 2D (ID: Clean2D)

> <knn Distance>
4.12310552597046

> <CpId>
1310

$$$$
1320
  Mrv1532301301811342D          

 19 18  0  0  0  0            999 V2000
    1.0461    1.4289    0.0000 C   0  0  0  0  0  0  0  0  0  0  0  0
    1.7605    1.8414    0.0000 C   0  0  0  0  0  0  0  0  0  0  0  0
    2.4750    1.4289    0.0000 C   0  0  0  0  0  0  0  0  0  0  0  0
    3.1895    1.8414    0.0000 C   0  0  0  0  0  0  0  0  0  0  0  0
    3.9039    1.4289    0.0000 C   0  0  0  0  0  0  0  0  0  0  0  0
    4.6184    1.8414    0.0000 O   0  0  0  0  0  0  0  0  0  0  0  0
    5.3329    1.4289    0.0000 N   0  0  0  0  0  0  0  0  0  0  0  0
    6.0474    1.8414    0.0000 O   0  0  0  0  0  0  0  0  0  0  0  0
    0.6336    2.1434    0.0000 H   0  0  0  0  0  0  0  0  0  0  0  0
    0.3316    1.0164    0.0000 H   0  0  0  0  0  0  0  0  0  0  0  0
    1.4586    0.7144    0.0000 H   0  0  0  0  0  0  0  0  0  0  0  0
    2.1308    2.5786    0.0000 H   0  0  0  0  0  0  0  0  0  0  0  0
    1.3903    2.5786    0.0000 H   0  0  0  0  0  0  0  0  0  0  0  0
    2.1047    0.6917    0.0000 H   0  0  0  0  0  0  0  0  0  0  0  0
    2.8453    0.6917    0.0000 H   0  0  0  0  0  0  0  0  0  0  0  0
    3.5597    2.5786    0.0000 H   0  0  0  0  0  0  0  0  0  0  0  0
    2.8192    2.5786    0.0000 H   0  0  0  0  0  0  0  0  0  0  0  0
    3.5337    0.6917    0.0000 H   0  0  0  0  0  0  0  0  0  0  0  0
    4.2742    0.6917    0.0000 H   0  0  0  0  0  0  0  0  0  0  0  0
  1  2  1  0  0  0  0
  2  3  1  0  0  0  0
  3  4  1  0  0  0  0
  4  5  1  0  0  0  0
  5  6  1  0  0  0  0
  6  7  1  0  0  0  0
  7  8  2  0  0  0  0
  1  9  1  0  0  0  0
  1 10  1  0  0  0  0
  1 11  1  0  0  0  0
  2 12  1  0  0  0  0
  2 13  1  0  0  0  0
  3 14  1  0  0  0  0
  3 15  1  0  0  0  0
  4 16  1  0  0  0  0
  4 17  1  0  0  0  0
  5 18  1  0  0  0  0
  5 19  1  0  0  0  0
M  END
>  <InChIKey>
InChI=1S/C5H11NO2/c1-2-3-4-5-8-6-7/h2-5H2,1H3

>  <CASRN>
463-04-7

> <Outcome>
0

>  <Index>
1320

>  <StandardizerResult>
Clear Stereo (ID: ClearStereo)
Wedge Clean (ID: WedgeClean)
Mesomerize (ID: Mesomerize)
Tautomerize (ID: Tautomerize)
Add Explicit Hydrogens (ID: AddExplicitH)
Neutralize (ID: Neutralize)
Clean 2D (ID: Clean2D)

> <knn Distance>
4.12310552597046

> <CpId>
1320

$$$$
1329
  Mrv1532301301811342D          

 57 58  0  0  0  0            999 V2000
   -4.3071   -2.0877    0.0000 C   0  0  0  0  0  0  0  0  0  0  0  0
   -3.5927   -2.5002    0.0000 C   0  0  0  0  0  0  0  0  0  0  0  0
   -2.8782   -2.0877    0.0000 N   0  0  0  0  0  0  0  0  0  0  0  0
   -2.8782   -1.2627    0.0000 C   0  0  0  0  0  0  0  0  0  0  0  0
   -2.1637   -0.8502    0.0000 C   0  0  0  0  0  0  0  0  0  0  0  0
   -2.1637   -2.5002    0.0000 C   0  0  0  0  0  0  0  0  0  0  0  0
   -1.4493   -2.0877    0.0000 C   0  0  0  0  0  0  0  0  0  0  0  0
   -0.7348   -2.5002    0.0000 O   0  0  0  0  0  0  0  0  0  0  0  0
   -0.0203   -2.0877    0.0000 C   0  0  0  0  0  0  0  0  0  0  0  0
   -0.0203   -1.2627    0.0000 O   0  0  0  0  0  0  0  0  0  0  0  0
    0.6942   -2.5002    0.0000 C   0  0  0  0  0  0  0  0  0  0  0  0
    1.5066   -2.6435    0.0000 C   0  0  0  0  0  0  0  0  0  0  0  0
    1.7888   -3.4187    0.0000 C   0  0  0  0  0  0  0  0  0  0  0  0
    1.2585   -4.0507    0.0000 C   0  0  0  0  0  0  0  0  0  0  0  0
    0.4460   -3.9074    0.0000 C   0  0  0  0  0  0  0  0  0  0  0  0
    0.1639   -3.1322    0.0000 C   0  0  0  0  0  0  0  0  0  0  0  0
    0.9763   -1.7250    0.0000 C   0  0  0  0  0  0  0  0  0  0  0  0
    0.4460   -1.0930    0.0000 C   0  0  0  0  0  0  0  0  0  0  0  0
    0.7282   -0.3177    0.0000 C   0  0  0  0  0  0  0  0  0  0  0  0
    1.5407   -0.1745    0.0000 C   0  0  0  0  0  0  0  0  0  0  0  0
    2.0710   -0.8065    0.0000 C   0  0  0  0  0  0  0  0  0  0  0  0
    1.7888   -1.5817    0.0000 C   0  0  0  0  0  0  0  0  0  0  0  0
   -3.8946   -1.3732    0.0000 H   0  0  0  0  0  0  0  0  0  0  0  0
   -5.0216   -1.6752    0.0000 H   0  0  0  0  0  0  0  0  0  0  0  0
   -4.7196   -2.8022    0.0000 H   0  0  0  0  0  0  0  0  0  0  0  0
   -3.9629   -3.2375    0.0000 H   0  0  0  0  0  0  0  0  0  0  0  0
   -3.2224   -3.2375    0.0000 H   0  0  0  0  0  0  0  0  0  0  0  0
   -3.3315   -0.5734    0.0000 H   0  0  0  0  0  0  0  0  0  0  0  0
   -3.7018   -1.2147    0.0000 H   0  0  0  0  0  0  0  0  0  0  0  0
   -1.7512   -1.5647    0.0000 H   0  0  0  0  0  0  0  0  0  0  0  0
   -1.4493   -0.4377    0.0000 H   0  0  0  0  0  0  0  0  0  0  0  0
   -2.5762   -0.1357    0.0000 H   0  0  0  0  0  0  0  0  0  0  0  0
   -2.5340   -3.2375    0.0000 H   0  0  0  0  0  0  0  0  0  0  0  0
   -1.7935   -3.2375    0.0000 H   0  0  0  0  0  0  0  0  0  0  0  0
   -0.8659   -1.5044    0.0000 H   0  0  0  0  0  0  0  0  0  0  0  0
   -1.4493   -2.9127    0.0000 H   0  0  0  0  0  0  0  0  0  0  0  0
    2.2642   -2.3167    0.0000 H   0  0  0  0  0  0  0  0  0  0  0  0
    1.6969   -1.8407    0.0000 H   0  0  0  0  0  0  0  0  0  0  0  0
    2.4505   -3.9114    0.0000 H   0  0  0  0  0  0  0  0  0  0  0  0
    2.5791   -3.1821    0.0000 H   0  0  0  0  0  0  0  0  0  0  0  0
    1.1627   -4.8701    0.0000 H   0  0  0  0  0  0  0  0  0  0  0  0
    1.8586   -4.6169    0.0000 H   0  0  0  0  0  0  0  0  0  0  0  0
   -0.3115   -4.2342    0.0000 H   0  0  0  0  0  0  0  0  0  0  0  0
    0.2558   -4.7102    0.0000 H   0  0  0  0  0  0  0  0  0  0  0  0
   -0.4979   -2.6395    0.0000 H   0  0  0  0  0  0  0  0  0  0  0  0
   -0.6265   -3.3688    0.0000 H   0  0  0  0  0  0  0  0  0  0  0  0
    0.1639   -1.8682    0.0000 H   0  0  0  0  0  0  0  0  0  0  0  0
   -0.1373   -0.5096    0.0000 H   0  0  0  0  0  0  0  0  0  0  0  0
    1.2585   -0.9497    0.0000 H   0  0  0  0  0  0  0  0  0  0  0  0
    0.8576    0.4970    0.0000 H   0  0  0  0  0  0  0  0  0  0  0  0
    0.2968    0.3855    0.0000 H   0  0  0  0  0  0  0  0  0  0  0  0
    2.3049    0.1364    0.0000 H   0  0  0  0  0  0  0  0  0  0  0  0
    1.9107    0.5629    0.0000 H   0  0  0  0  0  0  0  0  0  0  0  0
    2.8613   -1.0431    0.0000 H   0  0  0  0  0  0  0  0  0  0  0  0
    2.7327   -0.3138    0.0000 H   0  0  0  0  0  0  0  0  0  0  0  0
    2.5866   -1.7916    0.0000 H   0  0  0  0  0  0  0  0  0  0  0  0
    2.5197   -1.1991    0.0000 H   0  0  0  0  0  0  0  0  0  0  0  0
  1  2  1  0  0  0  0
  2  3  1  0  0  0  0
  3  4  1  0  0  0  0
  4  5  1  0  0  0  0
  3  6  1  0  0  0  0
  6  7  1  0  0  0  0
  7  8  1  0  0  0  0
  8  9  1  0  0  0  0
  9 10  2  0  0  0  0
  9 11  1  0  0  0  0
 11 12  1  0  0  0  0
 12 13  1  0  0  0  0
 13 14  1  0  0  0  0
 14 15  1  0  0  0  0
 15 16  1  0  0  0  0
 11 16  1  0  0  0  0
 11 17  1  0  0  0  0
 17 18  1  0  0  0  0
 18 19  1  0  0  0  0
 19 20  1  0  0  0  0
 20 21  1  0  0  0  0
 21 22  1  0  0  0  0
 17 22  1  0  0  0  0
  1 23  1  0  0  0  0
  1 24  1  0  0  0  0
  1 25  1  0  0  0  0
  2 26  1  0  0  0  0
  2 27  1  0  0  0  0
  4 28  1  0  0  0  0
  4 29  1  0  0  0  0
  5 30  1  0  0  0  0
  5 31  1  0  0  0  0
  5 32  1  0  0  0  0
  6 33  1  0  0  0  0
  6 34  1  0  0  0  0
  7 35  1  0  0  0  0
  7 36  1  0  0  0  0
 12 37  1  0  0  0  0
 12 38  1  0  0  0  0
 13 39  1  0  0  0  0
 13 40  1  0  0  0  0
 14 41  1  0  0  0  0
 14 42  1  0  0  0  0
 15 43  1  0  0  0  0
 15 44  1  0  0  0  0
 16 45  1  0  0  0  0
 16 46  1  0  0  0  0
 17 47  1  0  0  0  0
 18 48  1  0  0  0  0
 18 49  1  0  0  0  0
 19 50  1  0  0  0  0
 19 51  1  0  0  0  0
 20 52  1  0  0  0  0
 20 53  1  0  0  0  0
 21 54  1  0  0  0  0
 21 55  1  0  0  0  0
 22 56  1  0  0  0  0
 22 57  1  0  0  0  0
M  END
>  <InChIKey>
InChI=1S/C19H35NO2/c1-3-20(4-2)15-16-22-18(21)19(13-9-6-10-14-19)17-11-7-5-8-12-17/h17H,3-16H2,1-2H3

>  <CASRN>
77-19-0

> <Outcome>
0

>  <Index>
1329

>  <StandardizerResult>
Clear Stereo (ID: ClearStereo)
Wedge Clean (ID: WedgeClean)
Mesomerize (ID: Mesomerize)
Tautomerize (ID: Tautomerize)
Add Explicit Hydrogens (ID: AddExplicitH)
Neutralize (ID: Neutralize)
Clean 2D (ID: Clean2D)

> <knn Distance>
4.12310552597046

> <CpId>
1329

$$$$
1347
  Mrv1532301301811342D          

 45 46  0  0  0  0            999 V2000
   -2.0635    2.3335    0.0000 O   0  0  0  0  0  0  0  0  0  0  0  0
   -1.3490    1.9210    0.0000 C   0  0  0  0  0  0  0  0  0  0  0  0
   -1.3490    1.0960    0.0000 C   0  0  0  0  0  0  0  0  0  0  0  0
   -0.6816    0.6110    0.0000 O   0  0  0  0  0  0  0  0  0  0  0  0
   -0.9365   -0.1736    0.0000 C   0  0  0  0  0  0  0  0  0  0  0  0
   -0.1295   -0.3451    0.0000 C   0  0  0  0  0  0  0  0  0  0  0  0
    0.4225    0.2680    0.0000 O   0  0  0  0  0  0  0  0  0  0  0  0
   -1.0228   -0.9941    0.0000 O   0  0  0  0  0  0  0  0  0  0  0  0
   -0.3553   -1.4790    0.0000 C   0  0  0  0  0  0  0  0  0  0  0  0
    0.3984   -1.1434    0.0000 O   0  0  0  0  0  0  0  0  0  0  0  0
    1.0658   -1.6284    0.0000 C   0  0  0  0  0  0  0  0  0  0  0  0
    1.8195   -1.2928    0.0000 C   0  0  0  0  0  0  0  0  0  0  0  0
    1.9057   -0.4723    0.0000 O   0  0  0  0  0  0  0  0  0  0  0  0
    0.9796   -2.4488    0.0000 C   0  0  0  0  0  0  0  0  0  0  0  0
    1.6470   -2.9338    0.0000 O   0  0  0  0  0  0  0  0  0  0  0  0
    0.2259   -2.7844    0.0000 C   0  0  0  0  0  0  0  0  0  0  0  0
    0.1397   -3.6049    0.0000 O   0  0  0  0  0  0  0  0  0  0  0  0
   -0.4416   -2.2995    0.0000 C   0  0  0  0  0  0  0  0  0  0  0  0
   -1.1952   -2.6350    0.0000 O   0  0  0  0  0  0  0  0  0  0  0  0
   -1.7615   -0.1736    0.0000 C   0  0  0  0  0  0  0  0  0  0  0  0
   -2.2464   -0.8410    0.0000 O   0  0  0  0  0  0  0  0  0  0  0  0
   -2.0165    0.6110    0.0000 C   0  0  0  0  0  0  0  0  0  0  0  0
   -2.8011    0.8660    0.0000 O   0  0  0  0  0  0  0  0  0  0  0  0
   -2.0635    3.1585    0.0000 H   0  0  0  0  0  0  0  0  0  0  0  0
   -0.5254    1.9689    0.0000 H   0  0  0  0  0  0  0  0  0  0  0  0
   -0.8957    2.6102    0.0000 H   0  0  0  0  0  0  0  0  0  0  0  0
   -2.0841    1.4705    0.0000 H   0  0  0  0  0  0  0  0  0  0  0  0
   -0.5940   -1.0270    0.0000 H   0  0  0  0  0  0  0  0  0  0  0  0
   -0.3845    0.4395    0.0000 H   0  0  0  0  0  0  0  0  0  0  0  0
    1.2071    0.5229    0.0000 H   0  0  0  0  0  0  0  0  0  0  0  0
   -1.1090   -1.8146    0.0000 H   0  0  0  0  0  0  0  0  0  0  0  0
    1.7332   -2.1133    0.0000 H   0  0  0  0  0  0  0  0  0  0  0  0
    2.5610   -1.6545    0.0000 H   0  0  0  0  0  0  0  0  0  0  0  0
    2.6200   -1.0932    0.0000 H   0  0  0  0  0  0  0  0  0  0  0  0
    1.6033    0.2953    0.0000 H   0  0  0  0  0  0  0  0  0  0  0  0
    0.8933   -3.2693    0.0000 H   0  0  0  0  0  0  0  0  0  0  0  0
    2.3144   -3.4187    0.0000 H   0  0  0  0  0  0  0  0  0  0  0  0
   -0.5278   -3.1200    0.0000 H   0  0  0  0  0  0  0  0  0  0  0  0
    0.0534   -4.4254    0.0000 H   0  0  0  0  0  0  0  0  0  0  0  0
    0.3121   -1.9639    0.0000 H   0  0  0  0  0  0  0  0  0  0  0  0
   -1.9489   -2.9706    0.0000 H   0  0  0  0  0  0  0  0  0  0  0  0
   -2.5764   -0.0445    0.0000 H   0  0  0  0  0  0  0  0  0  0  0  0
   -2.3434   -1.6603    0.0000 H   0  0  0  0  0  0  0  0  0  0  0  0
   -1.2318    0.3561    0.0000 H   0  0  0  0  0  0  0  0  0  0  0  0
   -3.5857    1.1209    0.0000 H   0  0  0  0  0  0  0  0  0  0  0  0
  1  2  1  0  0  0  0
  2  3  1  0  0  0  0
  3  4  1  0  0  0  0
  4  5  1  0  0  0  0
  5  6  1  0  0  0  0
  6  7  1  0  0  0  0
  5  8  1  0  0  0  0
  8  9  1  0  0  0  0
  9 10  1  0  0  0  0
 10 11  1  0  0  0  0
 11 12  1  0  0  0  0
 12 13  1  0  0  0  0
 11 14  1  0  0  0  0
 14 15  1  0  0  0  0
 14 16  1  0  0  0  0
 16 17  1  0  0  0  0
 16 18  1  0  0  0  0
  9 18  1  0  0  0  0
 18 19  1  0  0  0  0
  5 20  1  0  0  0  0
 20 21  1  0  0  0  0
 20 22  1  0  0  0  0
  3 22  1  0  0  0  0
 22 23  1  0  0  0  0
  1 24  1  0  0  0  0
  2 25  1  0  0  0  0
  2 26  1  0  0  0  0
  3 27  1  0  0  0  0
  6 28  1  0  0  0  0
  6 29  1  0  0  0  0
  7 30  1  0  0  0  0
  9 31  1  0  0  0  0
 11 32  1  0  0  0  0
 12 33  1  0  0  0  0
 12 34  1  0  0  0  0
 13 35  1  0  0  0  0
 14 36  1  0  0  0  0
 15 37  1  0  0  0  0
 16 38  1  0  0  0  0
 17 39  1  0  0  0  0
 18 40  1  0  0  0  0
 19 41  1  0  0  0  0
 20 42  1  0  0  0  0
 21 43  1  0  0  0  0
 22 44  1  0  0  0  0
 23 45  1  0  0  0  0
M  END
>  <InChIKey>
InChI=1S/C12H22O11/c13-1-4-6(16)8(18)9(19)11(21-4)23-12(3-15)10(20)7(17)5(2-14)22-12/h4-11,13-20H,1-3H2

>  <CASRN>
57-50-1

> <Outcome>
0

>  <Index>
1347

>  <StandardizerResult>
Clear Stereo (ID: ClearStereo)
Wedge Clean (ID: WedgeClean)
Mesomerize (ID: Mesomerize)
Tautomerize (ID: Tautomerize)
Add Explicit Hydrogens (ID: AddExplicitH)
Neutralize (ID: Neutralize)
Clean 2D (ID: Clean2D)

> <knn Distance>
4.12310552597046

> <CpId>
1347

$$$$
1406
  Mrv1532301301811342D          

 71 74  0  0  0  0            999 V2000
    0.8646   -1.8467    0.0000 C   0  0  0  0  0  0  0  0  0  0  0  0
    1.5790   -1.4342    0.0000 C   0  0  0  0  0  0  0  0  0  0  0  0
    2.2935   -1.8467    0.0000 C   0  0  0  0  0  0  0  0  0  0  0  0
    3.0080   -1.4342    0.0000 C   0  0  0  0  0  0  0  0  0  0  0  0
    3.7224   -1.8467    0.0000 C   0  0  0  0  0  0  0  0  0  0  0  0
    4.4369   -1.4342    0.0000 C   0  0  0  0  0  0  0  0  0  0  0  0
    4.4369   -0.6092    0.0000 O   0  0  0  0  0  0  0  0  0  0  0  0
    5.1514   -1.8467    0.0000 O   0  0  0  0  0  0  0  0  0  0  0  0
    5.8659   -1.4342    0.0000 C   0  0  0  0  0  0  0  0  0  0  0  0
    6.4789   -0.8822    0.0000 C   0  0  0  0  0  0  0  0  0  0  0  0
    7.1934   -1.2947    0.0000 C   0  0  0  0  0  0  0  0  0  0  0  0
    7.0219   -2.1016    0.0000 C   0  0  0  0  0  0  0  0  0  0  0  0
    7.5068   -2.7691    0.0000 C   0  0  0  0  0  0  0  0  0  0  0  0
    8.3273   -2.6828    0.0000 C   0  0  0  0  0  0  0  0  0  0  0  0
    8.8122   -3.3503    0.0000 C   0  0  0  0  0  0  0  0  0  0  0  0
    8.4767   -4.1040    0.0000 C   0  0  0  0  0  0  0  0  0  0  0  0
    8.9616   -4.7714    0.0000 C   0  0  0  0  0  0  0  0  0  0  0  0
    8.6260   -5.5251    0.0000 C   0  0  0  0  0  0  0  0  0  0  0  0
    9.1110   -6.1925    0.0000 O   0  0  0  0  0  0  0  0  0  0  0  0
    7.8055   -5.6113    0.0000 C   0  0  0  0  0  0  0  0  0  0  0  0
    7.3206   -4.9439    0.0000 C   0  0  0  0  0  0  0  0  0  0  0  0
    7.6562   -4.1902    0.0000 C   0  0  0  0  0  0  0  0  0  0  0  0
    6.8357   -4.2764    0.0000 C   0  0  0  0  0  0  0  0  0  0  0  0
    7.1713   -3.5228    0.0000 C   0  0  0  0  0  0  0  0  0  0  0  0
    6.3508   -3.6090    0.0000 C   0  0  0  0  0  0  0  0  0  0  0  0
    5.8659   -2.9416    0.0000 C   0  0  0  0  0  0  0  0  0  0  0  0
    6.2014   -2.1879    0.0000 C   0  0  0  0  0  0  0  0  0  0  0  0
    5.3764   -2.1879    0.0000 C   0  0  0  0  0  0  0  0  0  0  0  0
    5.3809   -0.7668    0.0000 C   0  0  0  0  0  0  0  0  0  0  0  0
    5.7165   -0.0131    0.0000 C   0  0  0  0  0  0  0  0  0  0  0  0
    4.6665   -0.3543    0.0000 O   0  0  0  0  0  0  0  0  0  0  0  0
    0.4521   -1.1322    0.0000 H   0  0  0  0  0  0  0  0  0  0  0  0
    0.1501   -2.2592    0.0000 H   0  0  0  0  0  0  0  0  0  0  0  0
    1.2771   -2.5612    0.0000 H   0  0  0  0  0  0  0  0  0  0  0  0
    1.9493   -0.6970    0.0000 H   0  0  0  0  0  0  0  0  0  0  0  0
    1.2088   -0.6970    0.0000 H   0  0  0  0  0  0  0  0  0  0  0  0
    1.9232   -2.5839    0.0000 H   0  0  0  0  0  0  0  0  0  0  0  0
    2.6638   -2.5839    0.0000 H   0  0  0  0  0  0  0  0  0  0  0  0
    3.3782   -0.6970    0.0000 H   0  0  0  0  0  0  0  0  0  0  0  0
    2.6377   -0.6970    0.0000 H   0  0  0  0  0  0  0  0  0  0  0  0
    3.3522   -2.5839    0.0000 H   0  0  0  0  0  0  0  0  0  0  0  0
    4.0927   -2.5839    0.0000 H   0  0  0  0  0  0  0  0  0  0  0  0
    6.7880   -0.1172    0.0000 H   0  0  0  0  0  0  0  0  0  0  0  0
    6.0176   -0.1982    0.0000 H   0  0  0  0  0  0  0  0  0  0  0  0
    8.0164   -1.3522    0.0000 H   0  0  0  0  0  0  0  0  0  0  0  0
    7.7013   -0.6446    0.0000 H   0  0  0  0  0  0  0  0  0  0  0  0
    6.6863   -2.8553    0.0000 H   0  0  0  0  0  0  0  0  0  0  0  0
    7.8424   -2.0154    0.0000 H   0  0  0  0  0  0  0  0  0  0  0  0
    9.1203   -2.4554    0.0000 H   0  0  0  0  0  0  0  0  0  0  0  0
    8.7886   -1.9989    0.0000 H   0  0  0  0  0  0  0  0  0  0  0  0
    9.4248   -3.9029    0.0000 H   0  0  0  0  0  0  0  0  0  0  0  0
    9.6371   -3.3639    0.0000 H   0  0  0  0  0  0  0  0  0  0  0  0
    9.7821   -4.6852    0.0000 H   0  0  0  0  0  0  0  0  0  0  0  0
    7.1674   -6.1342    0.0000 H   0  0  0  0  0  0  0  0  0  0  0  0
    7.8439   -6.4354    0.0000 H   0  0  0  0  0  0  0  0  0  0  0  0
    6.5276   -5.1713    0.0000 H   0  0  0  0  0  0  0  0  0  0  0  0
    6.8593   -5.6278    0.0000 H   0  0  0  0  0  0  0  0  0  0  0  0
    6.0749   -3.9574    0.0000 H   0  0  0  0  0  0  0  0  0  0  0  0
    6.0198   -4.3984    0.0000 H   0  0  0  0  0  0  0  0  0  0  0  0
    6.2014   -4.8040    0.0000 H   0  0  0  0  0  0  0  0  0  0  0  0
    7.9917   -3.4365    0.0000 H   0  0  0  0  0  0  0  0  0  0  0  0
    5.5698   -3.3432    0.0000 H   0  0  0  0  0  0  0  0  0  0  0  0
    5.5594   -3.8422    0.0000 H   0  0  0  0  0  0  0  0  0  0  0  0
    5.0913   -2.6576    0.0000 H   0  0  0  0  0  0  0  0  0  0  0  0
    5.0758   -3.1791    0.0000 H   0  0  0  0  0  0  0  0  0  0  0  0
    4.6464   -1.8036    0.0000 H   0  0  0  0  0  0  0  0  0  0  0  0
    4.5516   -2.2033    0.0000 H   0  0  0  0  0  0  0  0  0  0  0  0
    4.6613   -2.5992    0.0000 H   0  0  0  0  0  0  0  0  0  0  0  0
    6.3683    0.4927    0.0000 H   0  0  0  0  0  0  0  0  0  0  0  0
    5.4724    0.7750    0.0000 H   0  0  0  0  0  0  0  0  0  0  0  0
    4.8929    0.0358    0.0000 H   0  0  0  0  0  0  0  0  0  0  0  0
  1  2  1  0  0  0  0
  2  3  1  0  0  0  0
  3  4  1  0  0  0  0
  4  5  1  0  0  0  0
  5  6  1  0  0  0  0
  6  7  2  0  0  0  0
  6  8  1  0  0  0  0
  8  9  1  0  0  0  0
  9 10  1  0  0  0  0
 10 11  1  0  0  0  0
 11 12  1  0  0  0  0
 12 13  1  0  0  0  0
 13 14  1  0  0  0  0
 14 15  1  0  0  0  0
 15 16  1  0  0  0  0
 16 17  2  0  0  0  0
 17 18  1  0  0  0  0
 18 19  2  0  0  0  0
 18 20  1  0  0  0  0
 20 21  1  0  0  0  0
 21 22  1  0  0  0  0
 16 22  1  0  0  0  0
 22 23  1  0  0  0  0
 22 24  1  0  0  0  0
 13 24  1  0  0  0  0
 24 25  1  0  0  0  0
 25 26  1  0  0  0  0
 26 27  1  0  0  0  0
  9 27  1  0  0  0  0
 12 27  1  0  0  0  0
 27 28  1  0  0  0  0
  9 29  1  0  0  0  0
 29 30  1  0  0  0  0
 29 31  2  0  0  0  0
  1 32  1  0  0  0  0
  1 33  1  0  0  0  0
  1 34  1  0  0  0  0
  2 35  1  0  0  0  0
  2 36  1  0  0  0  0
  3 37  1  0  0  0  0
  3 38  1  0  0  0  0
  4 39  1  0  0  0  0
  4 40  1  0  0  0  0
  5 41  1  0  0  0  0
  5 42  1  0  0  0  0
 10 43  1  0  0  0  0
 10 44  1  0  0  0  0
 11 45  1  0  0  0  0
 11 46  1  0  0  0  0
 12 47  1  0  0  0  0
 13 48  1  0  0  0  0
 14 49  1  0  0  0  0
 14 50  1  0  0  0  0
 15 51  1  0  0  0  0
 15 52  1  0  0  0  0
 17 53  1  0  0  0  0
 20 54  1  0  0  0  0
 20 55  1  0  0  0  0
 21 56  1  0  0  0  0
 21 57  1  0  0  0  0
 23 58  1  0  0  0  0
 23 59  1  0  0  0  0
 23 60  1  0  0  0  0
 24 61  1  0  0  0  0
 25 62  1  0  0  0  0
 25 63  1  0  0  0  0
 26 64  1  0  0  0  0
 26 65  1  0  0  0  0
 28 66  1  0  0  0  0
 28 67  1  0  0  0  0
 28 68  1  0  0  0  0
 30 69  1  0  0  0  0
 30 70  1  0  0  0  0
 30 71  1  0  0  0  0
M  END
>  <InChIKey>
InChI=1S/C27H40O4/c1-5-6-7-8-24(30)31-27(18(2)28)16-13-23-21-10-9-19-17-20(29)11-14-25(19,3)22(21)12-15-26(23,27)4/h17,21-23H,5-16H2,1-4H3

>  <CASRN>
630-56-8

> <Outcome>
0

>  <Index>
1406

>  <StandardizerResult>
Clear Stereo (ID: ClearStereo)
Wedge Clean (ID: WedgeClean)
Mesomerize (ID: Mesomerize)
Tautomerize (ID: Tautomerize)
Add Explicit Hydrogens (ID: AddExplicitH)
Neutralize (ID: Neutralize)
Clean 2D (ID: Clean2D)

> <knn Distance>
4.12310552597046

> <CpId>
1406

$$$$
1459
  Mrv1532301301811342D          

 20 19  0  0  0  0            999 V2000
    1.7261    1.8230    0.0000 C   0  0  0  0  0  0  0  0  0  0  0  0
    2.4405    1.4105    0.0000 S   0  0  0  0  0  0  0  0  0  0  0  0
    3.1550    1.8230    0.0000 C   0  0  0  0  0  0  0  0  0  0  0  0
    3.8695    1.4105    0.0000 C   0  0  0  0  0  0  0  0  0  0  0  0
    4.5839    1.8230    0.0000 C   0  0  0  0  0  0  0  0  0  0  0  0
    4.5839    2.6480    0.0000 N   0  0  0  0  0  0  0  0  0  0  0  0
    5.2984    1.4105    0.0000 C   0  0  0  0  0  0  0  0  0  0  0  0
    6.0129    1.8230    0.0000 O   0  0  0  0  0  0  0  0  0  0  0  0
    5.2984    0.5855    0.0000 O   0  0  0  0  0  0  0  0  0  0  0  0
    2.1386    2.5374    0.0000 H   0  0  0  0  0  0  0  0  0  0  0  0
    1.0116    2.2355    0.0000 H   0  0  0  0  0  0  0  0  0  0  0  0
    1.3136    1.1085    0.0000 H   0  0  0  0  0  0  0  0  0  0  0  0
    3.5253    2.5602    0.0000 H   0  0  0  0  0  0  0  0  0  0  0  0
    2.7847    2.5602    0.0000 H   0  0  0  0  0  0  0  0  0  0  0  0
    3.4992    0.6732    0.0000 H   0  0  0  0  0  0  0  0  0  0  0  0
    4.2397    0.6732    0.0000 H   0  0  0  0  0  0  0  0  0  0  0  0
    3.8695    2.2355    0.0000 H   0  0  0  0  0  0  0  0  0  0  0  0
    5.3212    3.0182    0.0000 H   0  0  0  0  0  0  0  0  0  0  0  0
    4.5360    3.4716    0.0000 H   0  0  0  0  0  0  0  0  0  0  0  0
    6.7274    1.4105    0.0000 H   0  0  0  0  0  0  0  0  0  0  0  0
  1  2  1  0  0  0  0
  2  3  1  0  0  0  0
  3  4  1  0  0  0  0
  4  5  1  0  0  0  0
  5  6  1  0  0  0  0
  5  7  1  0  0  0  0
  7  8  1  0  0  0  0
  7  9  2  0  0  0  0
  1 10  1  0  0  0  0
  1 11  1  0  0  0  0
  1 12  1  0  0  0  0
  3 13  1  0  0  0  0
  3 14  1  0  0  0  0
  4 15  1  0  0  0  0
  4 16  1  0  0  0  0
  5 17  1  0  0  0  0
  6 18  1  0  0  0  0
  6 19  1  0  0  0  0
  8 20  1  0  0  0  0
M  END
>  <InChIKey>
InChI=1S/C5H11NO2S/c1-9-3-2-4(6)5(7)8/h4H,2-3,6H2,1H3,(H,7,8)

>  <CASRN>
59-51-8

> <Outcome>
0

>  <Index>
1459

>  <StandardizerResult>
Clear Stereo (ID: ClearStereo)
Wedge Clean (ID: WedgeClean)
Mesomerize (ID: Mesomerize)
Tautomerize (ID: Tautomerize)
Add Explicit Hydrogens (ID: AddExplicitH)
Neutralize (ID: Neutralize)
Clean 2D (ID: Clean2D)

> <knn Distance>
4.12310552597046

> <CpId>
1459

$$$$
1486
  Mrv1532301301811342D          

 30 32  0  0  0  0            999 V2000
    0.0400   -1.6585    0.0000 N   0  0  0  0  0  0  0  0  0  0  0  0
    0.7544   -1.2460    0.0000 C   0  0  0  0  0  0  0  0  0  0  0  0
    0.7544   -0.4210    0.0000 N   0  0  0  0  0  0  0  0  0  0  0  0
    1.4689   -0.0085    0.0000 C   0  0  0  0  0  0  0  0  0  0  0  0
    1.4689    0.8165    0.0000 N   0  0  0  0  0  0  0  0  0  0  0  0
    2.1834   -0.4210    0.0000 C   0  0  0  0  0  0  0  0  0  0  0  0
    2.8979   -0.0085    0.0000 N   0  0  0  0  0  0  0  0  0  0  0  0
    3.6123   -0.4210    0.0000 C   0  0  0  0  0  0  0  0  0  0  0  0
    3.6123   -1.2460    0.0000 C   0  0  0  0  0  0  0  0  0  0  0  0
    4.3268   -1.6585    0.0000 N   0  0  0  0  0  0  0  0  0  0  0  0
    2.8979   -1.6585    0.0000 N   0  0  0  0  0  0  0  0  0  0  0  0
    2.1834   -1.2460    0.0000 C   0  0  0  0  0  0  0  0  0  0  0  0
    1.4689   -1.6585    0.0000 N   0  0  0  0  0  0  0  0  0  0  0  0
    4.3268   -0.0085    0.0000 C   0  0  0  0  0  0  0  0  0  0  0  0
    4.3268    0.8165    0.0000 C   0  0  0  0  0  0  0  0  0  0  0  0
    5.0413    1.2290    0.0000 C   0  0  0  0  0  0  0  0  0  0  0  0
    5.7557    0.8165    0.0000 C   0  0  0  0  0  0  0  0  0  0  0  0
    5.7557   -0.0085    0.0000 C   0  0  0  0  0  0  0  0  0  0  0  0
    5.0413   -0.4210    0.0000 C   0  0  0  0  0  0  0  0  0  0  0  0
   -0.6745   -1.2460    0.0000 H   0  0  0  0  0  0  0  0  0  0  0  0
    0.0400   -2.4835    0.0000 H   0  0  0  0  0  0  0  0  0  0  0  0
    2.1834    1.2290    0.0000 H   0  0  0  0  0  0  0  0  0  0  0  0
    0.7544    1.2290    0.0000 H   0  0  0  0  0  0  0  0  0  0  0  0
    4.3268   -2.4835    0.0000 H   0  0  0  0  0  0  0  0  0  0  0  0
    5.0413   -1.2460    0.0000 H   0  0  0  0  0  0  0  0  0  0  0  0
    3.6123    1.2290    0.0000 H   0  0  0  0  0  0  0  0  0  0  0  0
    5.0413    2.0540    0.0000 H   0  0  0  0  0  0  0  0  0  0  0  0
    6.4702    1.2290    0.0000 H   0  0  0  0  0  0  0  0  0  0  0  0
    6.4702   -0.4210    0.0000 H   0  0  0  0  0  0  0  0  0  0  0  0
    4.3268   -0.8335    0.0000 H   0  0  0  0  0  0  0  0  0  0  0  0
  1  2  1  0  0  0  0
  2  3  4  0  0  0  0
  3  4  4  0  0  0  0
  4  5  1  0  0  0  0
  4  6  4  0  0  0  0
  6  7  4  0  0  0  0
  7  8  4  0  0  0  0
  8  9  4  0  0  0  0
  9 10  1  0  0  0  0
  9 11  4  0  0  0  0
 11 12  4  0  0  0  0
  6 12  4  0  0  0  0
 12 13  4  0  0  0  0
  2 13  4  0  0  0  0
  8 14  1  0  0  0  0
 14 15  4  0  0  0  0
 15 16  4  0  0  0  0
 16 17  4  0  0  0  0
 17 18  4  0  0  0  0
 18 19  4  0  0  0  0
 14 19  4  0  0  0  0
  1 20  1  0  0  0  0
  1 21  1  0  0  0  0
  5 22  1  0  0  0  0
  5 23  1  0  0  0  0
 10 24  1  0  0  0  0
 10 25  1  0  0  0  0
 15 26  1  0  0  0  0
 16 27  1  0  0  0  0
 17 28  1  0  0  0  0
 18 29  1  0  0  0  0
 19 30  1  0  0  0  0
M  END
>  <InChIKey>
InChI=1S/C12H11N7/c13-9-7(6-4-2-1-3-5-6)16-8-10(14)18-12(15)19-11(8)17-9/h1-5H,(H6,13,14,15,17,18,19)

>  <CASRN>
396-01-0

> <Outcome>
0

>  <Index>
1486

>  <StandardizerResult>
Dearomatize (ID: Dearomatize)
Clear Stereo (ID: ClearStereo)
Wedge Clean (ID: WedgeClean)
Mesomerize (ID: Mesomerize)
Tautomerize (ID: Tautomerize)
Aromatize (ID: Aromatize)
Add Explicit Hydrogens (ID: AddExplicitH)
Neutralize (ID: Neutralize)
Clean 2D (ID: Clean2D)

> <knn Distance>
4.12310552597046

> <CpId>
1486

$$$$
1534
  Mrv1532301301811342D          

 52 55  0  0  0  0            999 V2000
    4.0289   -3.9642    0.0000 C   0  0  0  0  0  0  0  0  0  0  0  0
    3.5660   -3.2813    0.0000 C   0  0  0  0  0  0  0  0  0  0  0  0
    3.9258   -2.5390    0.0000 C   0  0  0  0  0  0  0  0  0  0  0  0
    4.4577   -3.1697    0.0000 C   0  0  0  0  0  0  0  0  0  0  0  0
    5.2698   -3.0245    0.0000 C   0  0  0  0  0  0  0  0  0  0  0  0
    5.8016   -3.6552    0.0000 C   0  0  0  0  0  0  0  0  0  0  0  0
    5.5501   -2.2485    0.0000 C   0  0  0  0  0  0  0  0  0  0  0  0
    5.0183   -1.6178    0.0000 C   0  0  0  0  0  0  0  0  0  0  0  0
    5.2986   -0.8419    0.0000 C   0  0  0  0  0  0  0  0  0  0  0  0
    6.1107   -0.6967    0.0000 C   0  0  0  0  0  0  0  0  0  0  0  0
    6.6425   -1.3274    0.0000 C   0  0  0  0  0  0  0  0  0  0  0  0
    7.4546   -1.1822    0.0000 C   0  0  0  0  0  0  0  0  0  0  0  0
    7.9864   -1.8129    0.0000 C   0  0  0  0  0  0  0  0  0  0  0  0
    8.7986   -1.6677    0.0000 O   0  0  0  0  0  0  0  0  0  0  0  0
    7.7061   -2.5888    0.0000 C   0  0  0  0  0  0  0  0  0  0  0  0
    6.8940   -2.7340    0.0000 C   0  0  0  0  0  0  0  0  0  0  0  0
    6.3622   -2.1033    0.0000 C   0  0  0  0  0  0  0  0  0  0  0  0
    4.2061   -1.7630    0.0000 C   0  0  0  0  0  0  0  0  0  0  0  0
    3.5548   -1.2567    0.0000 C   0  0  0  0  0  0  0  0  0  0  0  0
    2.8720   -1.7197    0.0000 C   0  0  0  0  0  0  0  0  0  0  0  0
    3.1013   -2.5122    0.0000 C   0  0  0  0  0  0  0  0  0  0  0  0
    2.3404   -2.8310    0.0000 O   0  0  0  0  0  0  0  0  0  0  0  0
    2.9799   -3.3282    0.0000 C   0  0  0  0  0  0  0  0  0  0  0  0
    2.8585   -4.1442    0.0000 C   0  0  0  0  0  0  0  0  0  0  0  0
    3.2467   -4.2262    0.0000 H   0  0  0  0  0  0  0  0  0  0  0  0
    4.0706   -4.7881    0.0000 H   0  0  0  0  0  0  0  0  0  0  0  0
    4.8337   -4.1460    0.0000 H   0  0  0  0  0  0  0  0  0  0  0  0
    2.9768   -3.8588    0.0000 H   0  0  0  0  0  0  0  0  0  0  0  0
    3.4838   -4.1022    0.0000 H   0  0  0  0  0  0  0  0  0  0  0  0
    4.9413   -3.8380    0.0000 H   0  0  0  0  0  0  0  0  0  0  0  0
    4.7380   -2.3938    0.0000 H   0  0  0  0  0  0  0  0  0  0  0  0
    6.3089   -4.3058    0.0000 H   0  0  0  0  0  0  0  0  0  0  0  0
    6.6014   -3.4529    0.0000 H   0  0  0  0  0  0  0  0  0  0  0  0
    5.8304   -1.4726    0.0000 H   0  0  0  0  0  0  0  0  0  0  0  0
    4.4864   -0.9871    0.0000 H   0  0  0  0  0  0  0  0  0  0  0  0
    5.4399   -0.0291    0.0000 H   0  0  0  0  0  0  0  0  0  0  0  0
    4.8843   -0.1284    0.0000 H   0  0  0  0  0  0  0  0  0  0  0  0
    6.8752   -0.3865    0.0000 H   0  0  0  0  0  0  0  0  0  0  0  0
    6.4827    0.0396    0.0000 H   0  0  0  0  0  0  0  0  0  0  0  0
    7.7349   -0.4063    0.0000 H   0  0  0  0  0  0  0  0  0  0  0  0
    7.8983   -3.3911    0.0000 H   0  0  0  0  0  0  0  0  0  0  0  0
    8.4644   -2.9138    0.0000 H   0  0  0  0  0  0  0  0  0  0  0  0
    6.0792   -2.8630    0.0000 H   0  0  0  0  0  0  0  0  0  0  0  0
    7.4131   -3.3752    0.0000 H   0  0  0  0  0  0  0  0  0  0  0  0
    7.1743   -1.9581    0.0000 H   0  0  0  0  0  0  0  0  0  0  0  0
    3.4136   -1.9924    0.0000 H   0  0  0  0  0  0  0  0  0  0  0  0
    3.5096   -0.4329    0.0000 H   0  0  0  0  0  0  0  0  0  0  0  0
    2.9501   -0.6955    0.0000 H   0  0  0  0  0  0  0  0  0  0  0  0
    2.3185   -1.1079    0.0000 H   0  0  0  0  0  0  0  0  0  0  0  0
    2.0553   -1.8365    0.0000 H   0  0  0  0  0  0  0  0  0  0  0  0
    1.5226   -2.7225    0.0000 H   0  0  0  0  0  0  0  0  0  0  0  0
    2.1811   -4.6151    0.0000 H   0  0  0  0  0  0  0  0  0  0  0  0
  1  2  1  0  0  0  0
  2  3  1  0  0  0  0
  3  4  1  0  0  0  0
  4  5  1  0  0  0  0
  5  6  2  0  0  0  0
  5  7  1  0  0  0  0
  7  8  1  0  0  0  0
  8  9  1  0  0  0  0
  9 10  1  0  0  0  0
 10 11  1  0  0  0  0
 11 12  2  0  0  0  0
 12 13  1  0  0  0  0
 13 14  2  0  0  0  0
 13 15  1  0  0  0  0
 15 16  1  0  0  0  0
 16 17  1  0  0  0  0
  7 17  1  0  0  0  0
 11 17  1  0  0  0  0
  8 18  1  0  0  0  0
  3 18  1  0  0  0  0
 18 19  1  0  0  0  0
 19 20  1  0  0  0  0
 20 21  1  0  0  0  0
  3 21  1  0  0  0  0
 21 22  1  0  0  0  0
 21 23  1  0  0  0  0
 23 24  3  0  0  0  0
  1 25  1  0  0  0  0
  1 26  1  0  0  0  0
  1 27  1  0  0  0  0
  2 28  1  0  0  0  0
  2 29  1  0  0  0  0
  4 30  1  0  0  0  0
  4 31  1  0  0  0  0
  6 32  1  0  0  0  0
  6 33  1  0  0  0  0
  7 34  1  0  0  0  0
  8 35  1  0  0  0  0
  9 36  1  0  0  0  0
  9 37  1  0  0  0  0
 10 38  1  0  0  0  0
 10 39  1  0  0  0  0
 12 40  1  0  0  0  0
 15 41  1  0  0  0  0
 15 42  1  0  0  0  0
 16 43  1  0  0  0  0
 16 44  1  0  0  0  0
 17 45  1  0  0  0  0
 18 46  1  0  0  0  0
 19 47  1  0  0  0  0
 19 48  1  0  0  0  0
 20 49  1  0  0  0  0
 20 50  1  0  0  0  0
 22 51  1  0  0  0  0
 24 52  1  0  0  0  0
M  END
>  <InChIKey>
InChI=1S/C22H28O2/c1-4-21-13-14(3)20-17-9-7-16(23)12-15(17)6-8-18(20)19(21)10-11-22(21,24)5-2/h2,12,17-20,24H,3-4,6-11,13H2,1H3

>  <CASRN>
54048-10-1

> <Outcome>
0

>  <Index>
1534

>  <StandardizerResult>
Clear Stereo (ID: ClearStereo)
Wedge Clean (ID: WedgeClean)
Mesomerize (ID: Mesomerize)
Tautomerize (ID: Tautomerize)
Add Explicit Hydrogens (ID: AddExplicitH)
Neutralize (ID: Neutralize)
Clean 2D (ID: Clean2D)

> <knn Distance>
4.12310552597046

> <CpId>
1534

$$$$
1553
  Mrv1532301301811342D          

 40 42  0  0  0  0            999 V2000
    2.8745    4.6189    0.0000 C   0  0  0  0  0  0  0  0  0  0  0  0
    3.5890    4.2064    0.0000 C   0  0  0  0  0  0  0  0  0  0  0  0
    3.5890    3.3814    0.0000 O   0  0  0  0  0  0  0  0  0  0  0  0
    4.3034    2.9689    0.0000 C   0  0  0  0  0  0  0  0  0  0  0  0
    5.0179    3.3814    0.0000 O   0  0  0  0  0  0  0  0  0  0  0  0
    4.3034    2.1439    0.0000 C   0  0  0  0  0  0  0  0  0  0  0  0
    5.0656    1.8282    0.0000 O   0  0  0  0  0  0  0  0  0  0  0  0
    5.3813    1.0660    0.0000 C   0  0  0  0  0  0  0  0  0  0  0  0
    6.1993    1.1737    0.0000 C   0  0  0  0  0  0  0  0  0  0  0  0
    6.7015    0.5192    0.0000 C   0  0  0  0  0  0  0  0  0  0  0  0
    6.3858   -0.2430    0.0000 C   0  0  0  0  0  0  0  0  0  0  0  0
    6.8880   -0.8976    0.0000 Cl  0  0  0  0  0  0  0  0  0  0  0  0
    5.5679   -0.3507    0.0000 C   0  0  0  0  0  0  0  0  0  0  0  0
    5.0656    0.3038    0.0000 C   0  0  0  0  0  0  0  0  0  0  0  0
    4.3034   -0.0119    0.0000 C   0  0  0  0  0  0  0  0  0  0  0  0
    4.3034   -0.8369    0.0000 C   0  0  0  0  0  0  0  0  0  0  0  0
    3.5412    0.3038    0.0000 C   0  0  0  0  0  0  0  0  0  0  0  0
    3.0390   -0.3507    0.0000 C   0  0  0  0  0  0  0  0  0  0  0  0
    2.2211   -0.2430    0.0000 C   0  0  0  0  0  0  0  0  0  0  0  0
    1.7188   -0.8976    0.0000 Cl  0  0  0  0  0  0  0  0  0  0  0  0
    1.9053    0.5192    0.0000 C   0  0  0  0  0  0  0  0  0  0  0  0
    2.4076    1.1737    0.0000 C   0  0  0  0  0  0  0  0  0  0  0  0
    3.2255    1.0660    0.0000 C   0  0  0  0  0  0  0  0  0  0  0  0
    3.5412    1.8282    0.0000 O   0  0  0  0  0  0  0  0  0  0  0  0
    3.2870    5.3334    0.0000 H   0  0  0  0  0  0  0  0  0  0  0  0
    2.1600    5.0314    0.0000 H   0  0  0  0  0  0  0  0  0  0  0  0
    2.4620    3.9044    0.0000 H   0  0  0  0  0  0  0  0  0  0  0  0
    4.4126    4.2544    0.0000 H   0  0  0  0  0  0  0  0  0  0  0  0
    4.0423    4.8957    0.0000 H   0  0  0  0  0  0  0  0  0  0  0  0
    4.3034    1.3189    0.0000 H   0  0  0  0  0  0  0  0  0  0  0  0
    6.5150    1.9359    0.0000 H   0  0  0  0  0  0  0  0  0  0  0  0
    7.5195    0.6268    0.0000 H   0  0  0  0  0  0  0  0  0  0  0  0
    5.2521   -1.1129    0.0000 H   0  0  0  0  0  0  0  0  0  0  0  0
    4.3034    0.8131    0.0000 H   0  0  0  0  0  0  0  0  0  0  0  0
    3.4784   -0.8369    0.0000 H   0  0  0  0  0  0  0  0  0  0  0  0
    4.3034   -1.6619    0.0000 H   0  0  0  0  0  0  0  0  0  0  0  0
    5.1284   -0.8369    0.0000 H   0  0  0  0  0  0  0  0  0  0  0  0
    2.6556   -1.0812    0.0000 H   0  0  0  0  0  0  0  0  0  0  0  0
    1.0874    0.6268    0.0000 H   0  0  0  0  0  0  0  0  0  0  0  0
    2.0919    1.9359    0.0000 H   0  0  0  0  0  0  0  0  0  0  0  0
  1  2  1  0  0  0  0
  2  3  1  0  0  0  0
  3  4  1  0  0  0  0
  4  5  2  0  0  0  0
  4  6  1  0  0  0  0
  6  7  1  0  0  0  0
  7  8  1  0  0  0  0
  8  9  4  0  0  0  0
  9 10  4  0  0  0  0
 10 11  4  0  0  0  0
 11 12  1  0  0  0  0
 11 13  4  0  0  0  0
 13 14  4  0  0  0  0
  8 14  4  0  0  0  0
 14 15  1  0  0  0  0
 15 16  1  0  0  0  0
 15 17  1  0  0  0  0
 17 18  4  0  0  0  0
 18 19  4  0  0  0  0
 19 20  1  0  0  0  0
 19 21  4  0  0  0  0
 21 22  4  0  0  0  0
 22 23  4  0  0  0  0
 17 23  4  0  0  0  0
 23 24  1  0  0  0  0
  6 24  1  0  0  0  0
  1 25  1  0  0  0  0
  1 26  1  0  0  0  0
  1 27  1  0  0  0  0
  2 28  1  0  0  0  0
  2 29  1  0  0  0  0
  6 30  1  0  0  0  0
  9 31  1  0  0  0  0
 10 32  1  0  0  0  0
 13 33  1  0  0  0  0
 15 34  1  0  0  0  0
 16 35  1  0  0  0  0
 16 36  1  0  0  0  0
 16 37  1  0  0  0  0
 18 38  1  0  0  0  0
 21 39  1  0  0  0  0
 22 40  1  0  0  0  0
M  END
>  <InChIKey>
InChI=1S/C18H16Cl2O4/c1-3-22-17(21)18-23-15-6-4-11(19)8-13(15)10(2)14-9-12(20)5-7-16(14)24-18/h4-10,18H,3H2,1-2H3

>  <CASRN>
53341-49-4

> <Outcome>
0

>  <Index>
1553

>  <StandardizerResult>
Dearomatize (ID: Dearomatize)
Clear Stereo (ID: ClearStereo)
Wedge Clean (ID: WedgeClean)
Mesomerize (ID: Mesomerize)
Tautomerize (ID: Tautomerize)
Aromatize (ID: Aromatize)
Add Explicit Hydrogens (ID: AddExplicitH)
Neutralize (ID: Neutralize)
Clean 2D (ID: Clean2D)

> <knn Distance>
4.12310552597046

> <CpId>
1553

$$$$
1623
  Mrv1532301301811342D          

 57 60  0  0  0  0            999 V2000
    1.5715    2.4493    0.0000 C   0  0  0  0  0  0  0  0  0  0  0  0
    1.8518    1.6734    0.0000 C   0  0  0  0  0  0  0  0  0  0  0  0
    2.6639    1.5282    0.0000 C   0  0  0  0  0  0  0  0  0  0  0  0
    2.9442    0.7522    0.0000 C   0  0  0  0  0  0  0  0  0  0  0  0
    3.7563    0.6070    0.0000 C   0  0  0  0  0  0  0  0  0  0  0  0
    4.4077    1.1134    0.0000 C   0  0  0  0  0  0  0  0  0  0  0  0
    5.0905    0.6504    0.0000 C   0  0  0  0  0  0  0  0  0  0  0  0
    4.8612   -0.1421    0.0000 C   0  0  0  0  0  0  0  0  0  0  0  0
    5.3676   -0.7934    0.0000 C   0  0  0  0  0  0  0  0  0  0  0  0
    6.1848   -0.6806    0.0000 C   0  0  0  0  0  0  0  0  0  0  0  0
    5.0567   -1.5576    0.0000 O   0  0  0  0  0  0  0  0  0  0  0  0
    4.0366   -0.1689    0.0000 C   0  0  0  0  0  0  0  0  0  0  0  0
    4.3965   -0.9113    0.0000 C   0  0  0  0  0  0  0  0  0  0  0  0
    3.5048   -0.7996    0.0000 C   0  0  0  0  0  0  0  0  0  0  0  0
    2.6927   -0.6544    0.0000 C   0  0  0  0  0  0  0  0  0  0  0  0
    2.1609   -1.2851    0.0000 O   0  0  0  0  0  0  0  0  0  0  0  0
    2.4124    0.1215    0.0000 C   0  0  0  0  0  0  0  0  0  0  0  0
    1.6003    0.2667    0.0000 C   0  0  0  0  0  0  0  0  0  0  0  0
    1.8806   -0.5092    0.0000 C   0  0  0  0  0  0  0  0  0  0  0  0
    1.0685   -0.3640    0.0000 C   0  0  0  0  0  0  0  0  0  0  0  0
    0.2563   -0.2187    0.0000 C   0  0  0  0  0  0  0  0  0  0  0  0
   -0.0240    0.5572    0.0000 C   0  0  0  0  0  0  0  0  0  0  0  0
   -0.8361    0.7024    0.0000 O   0  0  0  0  0  0  0  0  0  0  0  0
    0.5079    1.1879    0.0000 C   0  0  0  0  0  0  0  0  0  0  0  0
    1.3200    1.0427    0.0000 C   0  0  0  0  0  0  0  0  0  0  0  0
    2.3474    2.7296    0.0000 H   0  0  0  0  0  0  0  0  0  0  0  0
    1.2912    3.2252    0.0000 H   0  0  0  0  0  0  0  0  0  0  0  0
    0.7956    2.1690    0.0000 H   0  0  0  0  0  0  0  0  0  0  0  0
    1.0397    1.8186    0.0000 H   0  0  0  0  0  0  0  0  0  0  0  0
    3.4222    1.8531    0.0000 H   0  0  0  0  0  0  0  0  0  0  0  0
    2.8561    2.3305    0.0000 H   0  0  0  0  0  0  0  0  0  0  0  0
    3.2245   -0.0237    0.0000 H   0  0  0  0  0  0  0  0  0  0  0  0
    3.5587    1.4080    0.0000 H   0  0  0  0  0  0  0  0  0  0  0  0
    5.0237    1.6621    0.0000 H   0  0  0  0  0  0  0  0  0  0  0  0
    4.4792    1.9353    0.0000 H   0  0  0  0  0  0  0  0  0  0  0  0
    5.9072    0.5336    0.0000 H   0  0  0  0  0  0  0  0  0  0  0  0
    5.6440    1.2622    0.0000 H   0  0  0  0  0  0  0  0  0  0  0  0
    5.6714    0.0134    0.0000 H   0  0  0  0  0  0  0  0  0  0  0  0
    6.0774   -1.4986    0.0000 H   0  0  0  0  0  0  0  0  0  0  0  0
    6.9452   -1.0006    0.0000 H   0  0  0  0  0  0  0  0  0  0  0  0
    6.6946   -0.0319    0.0000 H   0  0  0  0  0  0  0  0  0  0  0  0
    3.7687   -1.4464    0.0000 H   0  0  0  0  0  0  0  0  0  0  0  0
    4.3681   -1.7358    0.0000 H   0  0  0  0  0  0  0  0  0  0  0  0
    5.2149   -0.8074    0.0000 H   0  0  0  0  0  0  0  0  0  0  0  0
    2.7950   -1.2200    0.0000 H   0  0  0  0  0  0  0  0  0  0  0  0
    3.2419   -1.5816    0.0000 H   0  0  0  0  0  0  0  0  0  0  0  0
    2.0620   -0.1226    0.0000 H   0  0  0  0  0  0  0  0  0  0  0  0
    1.7220   -1.9837    0.0000 H   0  0  0  0  0  0  0  0  0  0  0  0
    2.1321    0.8975    0.0000 H   0  0  0  0  0  0  0  0  0  0  0  0
    1.1047   -0.7895    0.0000 H   0  0  0  0  0  0  0  0  0  0  0  0
    1.3488   -1.1399    0.0000 H   0  0  0  0  0  0  0  0  0  0  0  0
    1.7354   -1.3213    0.0000 H   0  0  0  0  0  0  0  0  0  0  0  0
    0.7882    0.4120    0.0000 H   0  0  0  0  0  0  0  0  0  0  0  0
    0.4589   -0.9199    0.0000 H   0  0  0  0  0  0  0  0  0  0  0  0
   -0.5524   -0.0558    0.0000 H   0  0  0  0  0  0  0  0  0  0  0  0
   -0.3025   -0.8257    0.0000 H   0  0  0  0  0  0  0  0  0  0  0  0
   -0.1228    1.7197    0.0000 H   0  0  0  0  0  0  0  0  0  0  0  0
  1  2  1  0  0  0  0
  2  3  1  0  0  0  0
  3  4  1  0  0  0  0
  4  5  1  0  0  0  0
  5  6  1  0  0  0  0
  6  7  1  0  0  0  0
  7  8  1  0  0  0  0
  8  9  1  0  0  0  0
  9 10  1  0  0  0  0
  9 11  2  0  0  0  0
  8 12  1  0  0  0  0
  5 12  1  0  0  0  0
 12 13  1  0  0  0  0
 12 14  1  0  0  0  0
 14 15  1  0  0  0  0
 15 16  1  0  0  0  0
 15 17  1  0  0  0  0
  4 17  1  0  0  0  0
 17 18  1  0  0  0  0
 18 19  1  0  0  0  0
 18 20  1  0  0  0  0
 20 21  1  0  0  0  0
 21 22  1  0  0  0  0
 22 23  2  0  0  0  0
 22 24  1  0  0  0  0
 24 25  2  0  0  0  0
  2 25  1  0  0  0  0
 18 25  1  0  0  0  0
  1 26  1  0  0  0  0
  1 27  1  0  0  0  0
  1 28  1  0  0  0  0
  2 29  1  0  0  0  0
  3 30  1  0  0  0  0
  3 31  1  0  0  0  0
  4 32  1  0  0  0  0
  5 33  1  0  0  0  0
  6 34  1  0  0  0  0
  6 35  1  0  0  0  0
  7 36  1  0  0  0  0
  7 37  1  0  0  0  0
  8 38  1  0  0  0  0
 10 39  1  0  0  0  0
 10 40  1  0  0  0  0
 10 41  1  0  0  0  0
 13 42  1  0  0  0  0
 13 43  1  0  0  0  0
 13 44  1  0  0  0  0
 14 45  1  0  0  0  0
 14 46  1  0  0  0  0
 15 47  1  0  0  0  0
 16 48  1  0  0  0  0
 17 49  1  0  0  0  0
 19 50  1  0  0  0  0
 19 51  1  0  0  0  0
 19 52  1  0  0  0  0
 20 53  1  0  0  0  0
 20 54  1  0  0  0  0
 21 55  1  0  0  0  0
 21 56  1  0  0  0  0
 24 57  1  0  0  0  0
M  END
>  <InChIKey>
InChI=1S/C22H32O3/c1-12-9-15-17-6-5-16(13(2)23)22(17,4)11-19(25)20(15)21(3)8-7-14(24)10-18(12)21/h10,12,15-17,19-20,25H,5-9,11H2,1-4H3

>  <CASRN>
2668-66-8

> <Outcome>
0

>  <Index>
1623

>  <StandardizerResult>
Clear Stereo (ID: ClearStereo)
Wedge Clean (ID: WedgeClean)
Mesomerize (ID: Mesomerize)
Tautomerize (ID: Tautomerize)
Add Explicit Hydrogens (ID: AddExplicitH)
Neutralize (ID: Neutralize)
Clean 2D (ID: Clean2D)

> <knn Distance>
4.12310552597046

> <CpId>
1623

$$$$
1660
  Mrv1532301301811342D          

 58 59  0  0  0  0            999 V2000
  -12.1594    1.9553    0.0000 C   0  0  0  0  0  0  0  0  0  0  0  0
  -11.3748    1.7004    0.0000 C   0  0  0  0  0  0  0  0  0  0  0  0
  -10.5902    1.4454    0.0000 C   0  0  0  0  0  0  0  0  0  0  0  0
   -9.8055    1.1905    0.0000 C   0  0  0  0  0  0  0  0  0  0  0  0
   -9.1924    1.7425    0.0000 C   0  0  0  0  0  0  0  0  0  0  0  0
   -9.3640    2.5495    0.0000 C   0  0  0  0  0  0  0  0  0  0  0  0
   -8.4078    1.4876    0.0000 C   0  0  0  0  0  0  0  0  0  0  0  0
   -8.2363    0.6806    0.0000 O   0  0  0  0  0  0  0  0  0  0  0  0
   -7.7947    2.0396    0.0000 C   0  0  0  0  0  0  0  0  0  0  0  0
   -7.0101    1.7847    0.0000 C   0  0  0  0  0  0  0  0  0  0  0  0
   -6.3970    2.3367    0.0000 C   0  0  0  0  0  0  0  0  0  0  0  0
   -6.4832    3.1572    0.0000 C   0  0  0  0  0  0  0  0  0  0  0  0
   -7.1977    3.5697    0.0000 O   0  0  0  0  0  0  0  0  0  0  0  0
   -5.7296    3.4928    0.0000 C   0  0  0  0  0  0  0  0  0  0  0  0
   -5.1775    2.8797    0.0000 C   0  0  0  0  0  0  0  0  0  0  0  0
   -4.3706    2.7081    0.0000 C   0  0  0  0  0  0  0  0  0  0  0  0
   -4.2843    1.8877    0.0000 C   0  0  0  0  0  0  0  0  0  0  0  0
   -5.0380    1.5521    0.0000 C   0  0  0  0  0  0  0  0  0  0  0  0
   -5.5900    2.1652    0.0000 C   0  0  0  0  0  0  0  0  0  0  0  0
   -3.5699    1.4752    0.0000 C   0  0  0  0  0  0  0  0  0  0  0  0
   -2.8554    1.8877    0.0000 C   0  0  0  0  0  0  0  0  0  0  0  0
   -2.1409    1.4752    0.0000 C   0  0  0  0  0  0  0  0  0  0  0  0
   -1.4264    1.8877    0.0000 C   0  0  0  0  0  0  0  0  0  0  0  0
   -0.7120    1.4752    0.0000 C   0  0  0  0  0  0  0  0  0  0  0  0
    0.0025    1.8877    0.0000 O   0  0  0  0  0  0  0  0  0  0  0  0
   -0.7120    0.6502    0.0000 O   0  0  0  0  0  0  0  0  0  0  0  0
  -11.9045    2.7399    0.0000 H   0  0  0  0  0  0  0  0  0  0  0  0
  -12.9440    2.2103    0.0000 H   0  0  0  0  0  0  0  0  0  0  0  0
  -12.4143    1.1707    0.0000 H   0  0  0  0  0  0  0  0  0  0  0  0
  -10.0144    0.3924    0.0000 H   0  0  0  0  0  0  0  0  0  0  0  0
   -9.2901    0.5463    0.0000 H   0  0  0  0  0  0  0  0  0  0  0  0
   -9.9771    1.9975    0.0000 H   0  0  0  0  0  0  0  0  0  0  0  0
   -8.5401    2.5063    0.0000 H   0  0  0  0  0  0  0  0  0  0  0  0
   -9.1090    3.3341    0.0000 H   0  0  0  0  0  0  0  0  0  0  0  0
  -10.0559    2.9988    0.0000 H   0  0  0  0  0  0  0  0  0  0  0  0
   -9.0209    0.9356    0.0000 H   0  0  0  0  0  0  0  0  0  0  0  0
   -7.6843    0.0675    0.0000 H   0  0  0  0  0  0  0  0  0  0  0  0
   -7.4457    2.7872    0.0000 H   0  0  0  0  0  0  0  0  0  0  0  0
   -6.8386    0.9777    0.0000 H   0  0  0  0  0  0  0  0  0  0  0  0
   -6.1835    1.5398    0.0000 H   0  0  0  0  0  0  0  0  0  0  0  0
   -7.1752    2.7079    0.0000 H   0  0  0  0  0  0  0  0  0  0  0  0
   -7.4962    4.3388    0.0000 H   0  0  0  0  0  0  0  0  0  0  0  0
   -5.1993    4.1247    0.0000 H   0  0  0  0  0  0  0  0  0  0  0  0
   -5.9570    4.2858    0.0000 H   0  0  0  0  0  0  0  0  0  0  0  0
   -4.7650    3.5941    0.0000 H   0  0  0  0  0  0  0  0  0  0  0  0
   -3.5517    2.6076    0.0000 H   0  0  0  0  0  0  0  0  0  0  0  0
   -3.7117    3.2046    0.0000 H   0  0  0  0  0  0  0  0  0  0  0  0
   -5.5683    0.9201    0.0000 H   0  0  0  0  0  0  0  0  0  0  0  0
   -4.8106    0.7591    0.0000 H   0  0  0  0  0  0  0  0  0  0  0  0
   -5.9256    2.9189    0.0000 H   0  0  0  0  0  0  0  0  0  0  0  0
   -3.5699    0.6502    0.0000 H   0  0  0  0  0  0  0  0  0  0  0  0
   -2.4851    2.6249    0.0000 H   0  0  0  0  0  0  0  0  0  0  0  0
   -3.2256    2.6249    0.0000 H   0  0  0  0  0  0  0  0  0  0  0  0
   -2.5112    0.7379    0.0000 H   0  0  0  0  0  0  0  0  0  0  0  0
   -1.7707    0.7379    0.0000 H   0  0  0  0  0  0  0  0  0  0  0  0
   -1.0562    2.6249    0.0000 H   0  0  0  0  0  0  0  0  0  0  0  0
   -1.7967    2.6249    0.0000 H   0  0  0  0  0  0  0  0  0  0  0  0
    0.7170    1.4752    0.0000 H   0  0  0  0  0  0  0  0  0  0  0  0
  1  2  1  0  0  0  0
  2  3  3  0  0  0  0
  3  4  1  0  0  0  0
  4  5  1  0  0  0  0
  5  6  1  0  0  0  0
  5  7  1  0  0  0  0
  7  8  1  0  0  0  0
  9  7  1  4  0  0  0
  9 10  2  0  0  0  0
 10 11  1  0  0  0  0
 11 12  1  0  0  0  0
 12 13  1  0  0  0  0
 12 14  1  0  0  0  0
 14 15  1  0  0  0  0
 15 16  1  0  0  0  0
 16 17  1  0  0  0  0
 17 18  1  0  0  0  0
 18 19  1  0  0  0  0
 11 19  1  0  0  0  0
 15 19  1  0  0  0  0
 17 20  2  0  0  0  0
 20 21  1  4  0  0  0
 21 22  1  0  0  0  0
 22 23  1  0  0  0  0
 23 24  1  0  0  0  0
 24 25  1  0  0  0  0
 24 26  2  0  0  0  0
  1 27  1  0  0  0  0
  1 28  1  0  0  0  0
  1 29  1  0  0  0  0
  4 30  1  0  0  0  0
  4 31  1  0  0  0  0
  5 32  1  0  0  0  0
  6 33  1  0  0  0  0
  6 34  1  0  0  0  0
  6 35  1  0  0  0  0
  7 36  1  0  0  0  0
  8 37  1  0  0  0  0
  9 38  1  0  0  0  0
 10 39  1  0  0  0  0
 11 40  1  0  0  0  0
 12 41  1  0  0  0  0
 13 42  1  0  0  0  0
 14 43  1  0  0  0  0
 14 44  1  0  0  0  0
 15 45  1  0  0  0  0
 16 46  1  0  0  0  0
 16 47  1  0  0  0  0
 18 48  1  0  0  0  0
 18 49  1  0  0  0  0
 19 50  1  0  0  0  0
 20 51  1  0  0  0  0
 21 52  1  0  0  0  0
 21 53  1  0  0  0  0
 22 54  1  0  0  0  0
 22 55  1  0  0  0  0
 23 56  1  0  0  0  0
 23 57  1  0  0  0  0
 25 58  1  0  0  0  0
M  END
>  <InChIKey>
InChI=1S/C22H32O4/c1-3-4-7-15(2)20(23)11-10-18-19-13-16(8-5-6-9-22(25)26)12-17(19)14-21(18)24/h8,10-11,15,17-21,23-24H,5-7,9,12-14H2,1-2H3,(H,25,26)

>  <CASRN>
78919-13-8

> <Outcome>
0

>  <Index>
1660

>  <StandardizerResult>
Clear Stereo (ID: ClearStereo)
Wedge Clean (ID: WedgeClean)
Mesomerize (ID: Mesomerize)
Tautomerize (ID: Tautomerize)
Add Explicit Hydrogens (ID: AddExplicitH)
Neutralize (ID: Neutralize)
Clean 2D (ID: Clean2D)

> <knn Distance>
4.12310552597046

> <CpId>
1660

$$$$
1670
  Mrv1532301301811342D          

 74 76  0  0  0  0            999 V2000
   -2.7415   -1.4235    0.0000 C   0  0  0  0  0  0  0  0  0  0  0  0
   -1.9345   -1.2520    0.0000 C   0  0  0  0  0  0  0  0  0  0  0  0
   -1.6796   -0.4674    0.0000 C   0  0  0  0  0  0  0  0  0  0  0  0
   -1.3825   -1.8651    0.0000 C   0  0  0  0  0  0  0  0  0  0  0  0
   -1.6375   -2.6497    0.0000 C   0  0  0  0  0  0  0  0  0  0  0  0
   -0.5755   -1.6935    0.0000 C   0  0  0  0  0  0  0  0  0  0  0  0
   -0.0235   -2.3066    0.0000 C   0  0  0  0  0  0  0  0  0  0  0  0
    0.7835   -2.1351    0.0000 C   0  0  0  0  0  0  0  0  0  0  0  0
    1.3355   -2.7482    0.0000 C   0  0  0  0  0  0  0  0  0  0  0  0
    1.0384   -1.3505    0.0000 C   0  0  0  0  0  0  0  0  0  0  0  0
    0.5535   -0.6831    0.0000 C   0  0  0  0  0  0  0  0  0  0  0  0
    1.0384   -0.0156    0.0000 C   0  0  0  0  0  0  0  0  0  0  0  0
    1.8230   -0.2706    0.0000 C   0  0  0  0  0  0  0  0  0  0  0  0
    2.5375    0.1419    0.0000 C   0  0  0  0  0  0  0  0  0  0  0  0
    3.2520   -0.2706    0.0000 C   0  0  0  0  0  0  0  0  0  0  0  0
    3.2520   -1.0956    0.0000 C   0  0  0  0  0  0  0  0  0  0  0  0
    2.5375   -1.5081    0.0000 C   0  0  0  0  0  0  0  0  0  0  0  0
    1.8230   -1.0956    0.0000 C   0  0  0  0  0  0  0  0  0  0  0  0
    1.7368   -1.9160    0.0000 C   0  0  0  0  0  0  0  0  0  0  0  0
    2.5375    0.9669    0.0000 C   0  0  0  0  0  0  0  0  0  0  0  0
    1.8230    1.3794    0.0000 C   0  0  0  0  0  0  0  0  0  0  0  0
    1.8230    2.2044    0.0000 C   0  0  0  0  0  0  0  0  0  0  0  0
    1.1086    2.6169    0.0000 C   0  0  0  0  0  0  0  0  0  0  0  0
    1.1086    3.4419    0.0000 C   0  0  0  0  0  0  0  0  0  0  0  0
    0.3941    3.8544    0.0000 O   0  0  0  0  0  0  0  0  0  0  0  0
    1.8230    3.8544    0.0000 C   0  0  0  0  0  0  0  0  0  0  0  0
    2.5375    3.4419    0.0000 C   0  0  0  0  0  0  0  0  0  0  0  0
    3.2520    3.8544    0.0000 O   0  0  0  0  0  0  0  0  0  0  0  0
    2.5375    2.6169    0.0000 C   0  0  0  0  0  0  0  0  0  0  0  0
    3.2520    2.2044    0.0000 C   0  0  0  0  0  0  0  0  0  0  0  0
   -2.9130   -0.6165    0.0000 H   0  0  0  0  0  0  0  0  0  0  0  0
   -3.5485   -1.5950    0.0000 H   0  0  0  0  0  0  0  0  0  0  0  0
   -2.5700   -2.2305    0.0000 H   0  0  0  0  0  0  0  0  0  0  0  0
   -2.4866   -0.6389    0.0000 H   0  0  0  0  0  0  0  0  0  0  0  0
   -0.9877   -0.9167    0.0000 H   0  0  0  0  0  0  0  0  0  0  0  0
   -1.0665    0.0847    0.0000 H   0  0  0  0  0  0  0  0  0  0  0  0
   -2.0542    0.2677    0.0000 H   0  0  0  0  0  0  0  0  0  0  0  0
   -2.1895   -2.0366    0.0000 H   0  0  0  0  0  0  0  0  0  0  0  0
   -2.3725   -3.0242    0.0000 H   0  0  0  0  0  0  0  0  0  0  0  0
   -1.4659   -3.4567    0.0000 H   0  0  0  0  0  0  0  0  0  0  0  0
   -0.8136   -2.6929    0.0000 H   0  0  0  0  0  0  0  0  0  0  0  0
    0.1005   -1.2207    0.0000 H   0  0  0  0  0  0  0  0  0  0  0  0
    0.2454   -3.0866    0.0000 H   0  0  0  0  0  0  0  0  0  0  0  0
    0.5285   -2.9197    0.0000 H   0  0  0  0  0  0  0  0  0  0  0  0
    1.0542   -3.5238    0.0000 H   0  0  0  0  0  0  0  0  0  0  0  0
    1.8449   -3.3972    0.0000 H   0  0  0  0  0  0  0  0  0  0  0  0
    2.1557   -2.6592    0.0000 H   0  0  0  0  0  0  0  0  0  0  0  0
    1.2933   -0.5659    0.0000 H   0  0  0  0  0  0  0  0  0  0  0  0
    0.2361    0.0784    0.0000 H   0  0  0  0  0  0  0  0  0  0  0  0
   -0.2619   -0.5576    0.0000 H   0  0  0  0  0  0  0  0  0  0  0  0
    1.4950    0.6715    0.0000 H   0  0  0  0  0  0  0  0  0  0  0  0
    0.9106    0.7994    0.0000 H   0  0  0  0  0  0  0  0  0  0  0  0
    2.5375   -0.6831    0.0000 H   0  0  0  0  0  0  0  0  0  0  0  0
    4.0756   -0.2226    0.0000 H   0  0  0  0  0  0  0  0  0  0  0  0
    3.7053    0.4187    0.0000 H   0  0  0  0  0  0  0  0  0  0  0  0
    3.7053   -1.7848    0.0000 H   0  0  0  0  0  0  0  0  0  0  0  0
    4.0756   -1.1435    0.0000 H   0  0  0  0  0  0  0  0  0  0  0  0
    2.6547   -2.3247    0.0000 H   0  0  0  0  0  0  0  0  0  0  0  0
    3.1586   -2.0511    0.0000 H   0  0  0  0  0  0  0  0  0  0  0  0
    0.9144   -1.8501    0.0000 H   0  0  0  0  0  0  0  0  0  0  0  0
    1.0211   -2.3265    0.0000 H   0  0  0  0  0  0  0  0  0  0  0  0
    2.5266   -2.1544    0.0000 H   0  0  0  0  0  0  0  0  0  0  0  0
    3.2520    1.3794    0.0000 H   0  0  0  0  0  0  0  0  0  0  0  0
    1.0174    1.5571    0.0000 H   0  0  0  0  0  0  0  0  0  0  0  0
    0.2849    2.5690    0.0000 H   0  0  0  0  0  0  0  0  0  0  0  0
    0.6552    1.9277    0.0000 H   0  0  0  0  0  0  0  0  0  0  0  0
    1.1086    4.2669    0.0000 H   0  0  0  0  0  0  0  0  0  0  0  0
   -0.4309    3.8544    0.0000 H   0  0  0  0  0  0  0  0  0  0  0  0
    2.4550    4.3847    0.0000 H   0  0  0  0  0  0  0  0  0  0  0  0
    1.9663    4.6669    0.0000 H   0  0  0  0  0  0  0  0  0  0  0  0
    3.2520    3.0294    0.0000 H   0  0  0  0  0  0  0  0  0  0  0  0
    3.9792    4.2440    0.0000 H   0  0  0  0  0  0  0  0  0  0  0  0
    4.0272    1.9223    0.0000 H   0  0  0  0  0  0  0  0  0  0  0  0
    4.0272    2.4866    0.0000 H   0  0  0  0  0  0  0  0  0  0  0  0
  1  2  1  0  0  0  0
  2  3  1  0  0  0  0
  2  4  1  0  0  0  0
  4  5  1  0  0  0  0
  6  4  1  4  0  0  0
  6  7  2  0  0  0  0
  7  8  1  0  0  0  0
  8  9  1  0  0  0  0
  8 10  1  0  0  0  0
 10 11  1  0  0  0  0
 11 12  1  0  0  0  0
 12 13  1  0  0  0  0
 13 14  1  0  0  0  0
 14 15  1  0  0  0  0
 15 16  1  0  0  0  0
 16 17  1  0  0  0  0
 17 18  1  0  0  0  0
 10 18  1  0  0  0  0
 13 18  1  0  0  0  0
 18 19  1  0  0  0  0
 14 20  2  0  0  0  0
 20 21  1  4  0  0  0
 21 22  2  0  0  0  0
 22 23  1  4  0  0  0
 23 24  1  0  0  0  0
 24 25  1  0  0  0  0
 24 26  1  0  0  0  0
 26 27  1  0  0  0  0
 27 28  1  0  0  0  0
 27 29  1  0  0  0  0
 22 29  1  0  0  0  0
 29 30  2  0  0  0  0
  1 31  1  0  0  0  0
  1 32  1  0  0  0  0
  1 33  1  0  0  0  0
  2 34  1  0  0  0  0
  3 35  1  0  0  0  0
  3 36  1  0  0  0  0
  3 37  1  0  0  0  0
  4 38  1  0  0  0  0
  5 39  1  0  0  0  0
  5 40  1  0  0  0  0
  5 41  1  0  0  0  0
  6 42  1  0  0  0  0
  7 43  1  0  0  0  0
  8 44  1  0  0  0  0
  9 45  1  0  0  0  0
  9 46  1  0  0  0  0
  9 47  1  0  0  0  0
 10 48  1  0  0  0  0
 11 49  1  0  0  0  0
 11 50  1  0  0  0  0
 12 51  1  0  0  0  0
 12 52  1  0  0  0  0
 13 53  1  0  0  0  0
 15 54  1  0  0  0  0
 15 55  1  0  0  0  0
 16 56  1  0  0  0  0
 16 57  1  0  0  0  0
 17 58  1  0  0  0  0
 17 59  1  0  0  0  0
 19 60  1  0  0  0  0
 19 61  1  0  0  0  0
 19 62  1  0  0  0  0
 20 63  1  0  0  0  0
 21 64  1  0  0  0  0
 23 65  1  0  0  0  0
 23 66  1  0  0  0  0
 24 67  1  0  0  0  0
 25 68  1  0  0  0  0
 26 69  1  0  0  0  0
 26 70  1  0  0  0  0
 27 71  1  0  0  0  0
 28 72  1  0  0  0  0
 30 73  1  0  0  0  0
 30 74  1  0  0  0  0
M  END
>  <InChIKey>
InChI=1S/C28H44O2/c1-18(2)19(3)9-10-20(4)25-13-14-26-22(8-7-15-28(25,26)6)11-12-23-16-24(29)17-27(30)21(23)5/h9-12,18-20,24-27,29-30H,5,7-8,13-17H2,1-4,6H3

>  <CASRN>
54573-75-0

> <Outcome>
0

>  <Index>
1670

>  <StandardizerResult>
Clear Stereo (ID: ClearStereo)
Wedge Clean (ID: WedgeClean)
Mesomerize (ID: Mesomerize)
Tautomerize (ID: Tautomerize)
Add Explicit Hydrogens (ID: AddExplicitH)
Neutralize (ID: Neutralize)
Clean 2D (ID: Clean2D)

> <knn Distance>
4.12310552597046

> <CpId>
1670

$$$$
1742
  Mrv1532301301811342D          

 56 59  0  0  0  0            999 V2000
    3.1464   -3.2605    0.0000 C   0  0  0  0  0  0  0  0  0  0  0  0
    3.0869   -2.4376    0.0000 C   0  0  0  0  0  0  0  0  0  0  0  0
    2.2747   -2.5828    0.0000 O   0  0  0  0  0  0  0  0  0  0  0  0
    2.8576   -1.6451    0.0000 C   0  0  0  0  0  0  0  0  0  0  0  0
    3.5404   -1.1822    0.0000 C   0  0  0  0  0  0  0  0  0  0  0  0
    4.1917   -1.6885    0.0000 C   0  0  0  0  0  0  0  0  0  0  0  0
    5.0038   -1.5433    0.0000 C   0  0  0  0  0  0  0  0  0  0  0  0
    5.2841   -0.7674    0.0000 C   0  0  0  0  0  0  0  0  0  0  0  0
    6.0963   -0.6222    0.0000 C   0  0  0  0  0  0  0  0  0  0  0  0
    6.6281   -1.2529    0.0000 C   0  0  0  0  0  0  0  0  0  0  0  0
    7.4402   -1.1077    0.0000 C   0  0  0  0  0  0  0  0  0  0  0  0
    7.9720   -1.7384    0.0000 C   0  0  0  0  0  0  0  0  0  0  0  0
    8.7841   -1.5931    0.0000 O   0  0  0  0  0  0  0  0  0  0  0  0
    7.6917   -2.5143    0.0000 C   0  0  0  0  0  0  0  0  0  0  0  0
    6.8796   -2.6595    0.0000 C   0  0  0  0  0  0  0  0  0  0  0  0
    6.3478   -2.0288    0.0000 C   0  0  0  0  0  0  0  0  0  0  0  0
    6.0675   -2.8047    0.0000 C   0  0  0  0  0  0  0  0  0  0  0  0
    5.5357   -2.1740    0.0000 C   0  0  0  0  0  0  0  0  0  0  0  0
    5.2554   -2.9499    0.0000 C   0  0  0  0  0  0  0  0  0  0  0  0
    4.4433   -3.0951    0.0000 C   0  0  0  0  0  0  0  0  0  0  0  0
    3.9114   -2.4644    0.0000 C   0  0  0  0  0  0  0  0  0  0  0  0
    3.5516   -3.2068    0.0000 C   0  0  0  0  0  0  0  0  0  0  0  0
    8.2235   -3.1450    0.0000 C   0  0  0  0  0  0  0  0  0  0  0  0
    9.0357   -2.9998    0.0000 O   0  0  0  0  0  0  0  0  0  0  0  0
    2.3596   -3.0123    0.0000 H   0  0  0  0  0  0  0  0  0  0  0  0
    2.6254   -3.9002    0.0000 H   0  0  0  0  0  0  0  0  0  0  0  0
    3.5488   -3.9807    0.0000 H   0  0  0  0  0  0  0  0  0  0  0  0
    1.5935   -2.1175    0.0000 H   0  0  0  0  0  0  0  0  0  0  0  0
    2.3040   -1.0334    0.0000 H   0  0  0  0  0  0  0  0  0  0  0  0
    2.0409   -1.7619    0.0000 H   0  0  0  0  0  0  0  0  0  0  0  0
    3.9512   -0.4667    0.0000 H   0  0  0  0  0  0  0  0  0  0  0  0
    3.1770   -0.4415    0.0000 H   0  0  0  0  0  0  0  0  0  0  0  0
    4.7235   -2.3192    0.0000 H   0  0  0  0  0  0  0  0  0  0  0  0
    4.4720   -0.9126    0.0000 H   0  0  0  0  0  0  0  0  0  0  0  0
    5.4255    0.0454    0.0000 H   0  0  0  0  0  0  0  0  0  0  0  0
    4.8699   -0.0539    0.0000 H   0  0  0  0  0  0  0  0  0  0  0  0
    6.8607   -0.3120    0.0000 H   0  0  0  0  0  0  0  0  0  0  0  0
    6.4683    0.1142    0.0000 H   0  0  0  0  0  0  0  0  0  0  0  0
    7.1599   -1.8836    0.0000 H   0  0  0  0  0  0  0  0  0  0  0  0
    8.0389   -0.5401    0.0000 H   0  0  0  0  0  0  0  0  0  0  0  0
    7.3425   -0.2885    0.0000 H   0  0  0  0  0  0  0  0  0  0  0  0
    9.3160   -2.2239    0.0000 H   0  0  0  0  0  0  0  0  0  0  0  0
    6.7383   -3.4723    0.0000 H   0  0  0  0  0  0  0  0  0  0  0  0
    7.2938   -3.3730    0.0000 H   0  0  0  0  0  0  0  0  0  0  0  0
    5.4485   -3.3502    0.0000 H   0  0  0  0  0  0  0  0  0  0  0  0
    5.8213   -3.5921    0.0000 H   0  0  0  0  0  0  0  0  0  0  0  0
    6.2655   -3.6056    0.0000 H   0  0  0  0  0  0  0  0  0  0  0  0
    5.8160   -1.3981    0.0000 H   0  0  0  0  0  0  0  0  0  0  0  0
    4.6755   -3.5368    0.0000 H   0  0  0  0  0  0  0  0  0  0  0  0
    5.1200   -3.7637    0.0000 H   0  0  0  0  0  0  0  0  0  0  0  0
    3.8499   -3.6683    0.0000 H   0  0  0  0  0  0  0  0  0  0  0  0
    4.3124   -3.9097    0.0000 H   0  0  0  0  0  0  0  0  0  0  0  0
    3.7836   -3.9985    0.0000 H   0  0  0  0  0  0  0  0  0  0  0  0
    2.8079   -2.8496    0.0000 H   0  0  0  0  0  0  0  0  0  0  0  0
    3.0067   -3.8263    0.0000 H   0  0  0  0  0  0  0  0  0  0  0  0
    8.3945   -3.9521    0.0000 H   0  0  0  0  0  0  0  0  0  0  0  0
  1  2  1  0  0  0  0
  2  3  1  0  0  0  0
  2  4  1  0  0  0  0
  4  5  1  0  0  0  0
  5  6  1  0  0  0  0
  6  7  1  0  0  0  0
  7  8  1  0  0  0  0
  8  9  1  0  0  0  0
  9 10  1  0  0  0  0
 10 11  1  0  0  0  0
 11 12  1  0  0  0  0
 12 13  1  0  0  0  0
 12 14  2  0  0  0  0
 14 15  1  0  0  0  0
 15 16  1  0  0  0  0
 10 16  1  0  0  0  0
 16 17  1  0  0  0  0
 16 18  1  0  0  0  0
  7 18  1  0  0  0  0
 18 19  1  0  0  0  0
 19 20  1  0  0  0  0
 20 21  1  0  0  0  0
  2 21  1  0  0  0  0
  6 21  1  0  0  0  0
 21 22  1  0  0  0  0
 14 23  1  0  0  0  0
 23 24  2  0  0  0  0
  1 25  1  0  0  0  0
  1 26  1  0  0  0  0
  1 27  1  0  0  0  0
  3 28  1  0  0  0  0
  4 29  1  0  0  0  0
  4 30  1  0  0  0  0
  5 31  1  0  0  0  0
  5 32  1  0  0  0  0
  6 33  1  0  0  0  0
  7 34  1  0  0  0  0
  8 35  1  0  0  0  0
  8 36  1  0  0  0  0
  9 37  1  0  0  0  0
  9 38  1  0  0  0  0
 10 39  1  0  0  0  0
 11 40  1  0  0  0  0
 11 41  1  0  0  0  0
 13 42  1  0  0  0  0
 15 43  1  0  0  0  0
 15 44  1  0  0  0  0
 17 45  1  0  0  0  0
 17 46  1  0  0  0  0
 17 47  1  0  0  0  0
 18 48  1  0  0  0  0
 19 49  1  0  0  0  0
 19 50  1  0  0  0  0
 20 51  1  0  0  0  0
 20 52  1  0  0  0  0
 22 53  1  0  0  0  0
 22 54  1  0  0  0  0
 22 55  1  0  0  0  0
 23 56  1  0  0  0  0
M  END
>  <InChIKey>
InChI=1S/C21H32O3/c1-19-11-13(12-22)18(23)10-14(19)4-5-15-16(19)6-8-20(2)17(15)7-9-21(20,3)24/h12,14-17,23-24H,4-11H2,1-3H3

>  <CASRN>
434-07-1

> <Outcome>
0

>  <Index>
1742

>  <StandardizerResult>
Clear Stereo (ID: ClearStereo)
Wedge Clean (ID: WedgeClean)
Mesomerize (ID: Mesomerize)
Tautomerize (ID: Tautomerize)
Add Explicit Hydrogens (ID: AddExplicitH)
Neutralize (ID: Neutralize)
Clean 2D (ID: Clean2D)

> <knn Distance>
4.12310552597046

> <CpId>
1742

$$$$
1767
  Mrv1532301301811342D          

 57 60  0  0  0  0            999 V2000
    2.5205   -4.4584    0.0000 C   0  0  0  0  0  0  0  0  0  0  0  0
    2.4610   -3.6355    0.0000 C   0  0  0  0  0  0  0  0  0  0  0  0
    1.7186   -3.2756    0.0000 O   0  0  0  0  0  0  0  0  0  0  0  0
    3.1438   -3.1725    0.0000 O   0  0  0  0  0  0  0  0  0  0  0  0
    3.0843   -2.3497    0.0000 C   0  0  0  0  0  0  0  0  0  0  0  0
    2.8550   -1.5572    0.0000 C   0  0  0  0  0  0  0  0  0  0  0  0
    3.5378   -1.0942    0.0000 C   0  0  0  0  0  0  0  0  0  0  0  0
    4.1892   -1.6006    0.0000 C   0  0  0  0  0  0  0  0  0  0  0  0
    5.0013   -1.4553    0.0000 C   0  0  0  0  0  0  0  0  0  0  0  0
    5.2816   -0.6794    0.0000 C   0  0  0  0  0  0  0  0  0  0  0  0
    6.0937   -0.5342    0.0000 C   0  0  0  0  0  0  0  0  0  0  0  0
    6.3740    0.2417    0.0000 C   0  0  0  0  0  0  0  0  0  0  0  0
    6.6255   -1.1649    0.0000 C   0  0  0  0  0  0  0  0  0  0  0  0
    7.4376   -1.0197    0.0000 C   0  0  0  0  0  0  0  0  0  0  0  0
    7.9695   -1.6504    0.0000 C   0  0  0  0  0  0  0  0  0  0  0  0
    8.7816   -1.5052    0.0000 O   0  0  0  0  0  0  0  0  0  0  0  0
    7.6892   -2.4263    0.0000 C   0  0  0  0  0  0  0  0  0  0  0  0
    6.8770   -2.5715    0.0000 C   0  0  0  0  0  0  0  0  0  0  0  0
    6.3452   -1.9408    0.0000 C   0  0  0  0  0  0  0  0  0  0  0  0
    5.5331   -2.0861    0.0000 C   0  0  0  0  0  0  0  0  0  0  0  0
    5.2528   -2.8620    0.0000 C   0  0  0  0  0  0  0  0  0  0  0  0
    4.4407   -3.0072    0.0000 C   0  0  0  0  0  0  0  0  0  0  0  0
    3.9089   -2.3765    0.0000 C   0  0  0  0  0  0  0  0  0  0  0  0
    3.5490   -3.1189    0.0000 C   0  0  0  0  0  0  0  0  0  0  0  0
    2.2722   -2.4949    0.0000 C   0  0  0  0  0  0  0  0  0  0  0  0
    1.7404   -1.8642    0.0000 C   0  0  0  0  0  0  0  0  0  0  0  0
    1.5893   -2.9579    0.0000 O   0  0  0  0  0  0  0  0  0  0  0  0
    1.6977   -4.5179    0.0000 H   0  0  0  0  0  0  0  0  0  0  0  0
    2.5801   -5.2812    0.0000 H   0  0  0  0  0  0  0  0  0  0  0  0
    3.3434   -4.3988    0.0000 H   0  0  0  0  0  0  0  0  0  0  0  0
    2.3015   -0.9454    0.0000 H   0  0  0  0  0  0  0  0  0  0  0  0
    2.0383   -1.6740    0.0000 H   0  0  0  0  0  0  0  0  0  0  0  0
    3.9486   -0.3787    0.0000 H   0  0  0  0  0  0  0  0  0  0  0  0
    3.1744   -0.3536    0.0000 H   0  0  0  0  0  0  0  0  0  0  0  0
    4.7210   -2.2313    0.0000 H   0  0  0  0  0  0  0  0  0  0  0  0
    4.4695   -0.8246    0.0000 H   0  0  0  0  0  0  0  0  0  0  0  0
    5.1364    0.1327    0.0000 H   0  0  0  0  0  0  0  0  0  0  0  0
    7.1499   -0.0386    0.0000 H   0  0  0  0  0  0  0  0  0  0  0  0
    6.6543    1.0176    0.0000 H   0  0  0  0  0  0  0  0  0  0  0  0
    5.5981    0.5220    0.0000 H   0  0  0  0  0  0  0  0  0  0  0  0
    7.7179   -0.2438    0.0000 H   0  0  0  0  0  0  0  0  0  0  0  0
    7.8814   -3.2286    0.0000 H   0  0  0  0  0  0  0  0  0  0  0  0
    8.4475   -2.7513    0.0000 H   0  0  0  0  0  0  0  0  0  0  0  0
    6.2783   -3.1391    0.0000 H   0  0  0  0  0  0  0  0  0  0  0  0
    6.9748   -3.3907    0.0000 H   0  0  0  0  0  0  0  0  0  0  0  0
    6.0649   -2.7168    0.0000 H   0  0  0  0  0  0  0  0  0  0  0  0
    5.8134   -1.3101    0.0000 H   0  0  0  0  0  0  0  0  0  0  0  0
    5.1115   -3.6748    0.0000 H   0  0  0  0  0  0  0  0  0  0  0  0
    5.6670   -3.5755    0.0000 H   0  0  0  0  0  0  0  0  0  0  0  0
    3.9082   -3.6374    0.0000 H   0  0  0  0  0  0  0  0  0  0  0  0
    4.4763   -3.8314    0.0000 H   0  0  0  0  0  0  0  0  0  0  0  0
    2.8887   -3.6135    0.0000 H   0  0  0  0  0  0  0  0  0  0  0  0
    3.2152   -3.8733    0.0000 H   0  0  0  0  0  0  0  0  0  0  0  0
    3.6270   -3.9402    0.0000 H   0  0  0  0  0  0  0  0  0  0  0  0
    1.5695   -1.0571    0.0000 H   0  0  0  0  0  0  0  0  0  0  0  0
    0.9248   -1.7401    0.0000 H   0  0  0  0  0  0  0  0  0  0  0  0
    1.3372   -2.5839    0.0000 H   0  0  0  0  0  0  0  0  0  0  0  0
  1  2  1  0  0  0  0
  2  3  2  0  0  0  0
  2  4  1  0  0  0  0
  4  5  1  0  0  0  0
  5  6  1  0  0  0  0
  6  7  1  0  0  0  0
  7  8  1  0  0  0  0
  8  9  1  0  0  0  0
  9 10  1  0  0  0  0
 10 11  2  0  0  0  0
 11 12  1  0  0  0  0
 11 13  1  0  0  0  0
 13 14  2  0  0  0  0
 14 15  1  0  0  0  0
 15 16  2  0  0  0  0
 15 17  1  0  0  0  0
 17 18  1  0  0  0  0
 18 19  1  0  0  0  0
 13 19  1  0  0  0  0
 19 20  1  0  0  0  0
  9 20  1  0  0  0  0
 20 21  1  0  0  0  0
 21 22  1  0  0  0  0
 22 23  1  0  0  0  0
  5 23  1  0  0  0  0
  8 23  1  0  0  0  0
 23 24  1  0  0  0  0
  5 25  1  0  0  0  0
 25 26  1  0  0  0  0
 25 27  2  0  0  0  0
  1 28  1  0  0  0  0
  1 29  1  0  0  0  0
  1 30  1  0  0  0  0
  6 31  1  0  0  0  0
  6 32  1  0  0  0  0
  7 33  1  0  0  0  0
  7 34  1  0  0  0  0
  8 35  1  0  0  0  0
  9 36  1  0  0  0  0
 10 37  1  0  0  0  0
 12 38  1  0  0  0  0
 12 39  1  0  0  0  0
 12 40  1  0  0  0  0
 14 41  1  0  0  0  0
 17 42  1  0  0  0  0
 17 43  1  0  0  0  0
 18 44  1  0  0  0  0
 18 45  1  0  0  0  0
 19 46  1  0  0  0  0
 20 47  1  0  0  0  0
 21 48  1  0  0  0  0
 21 49  1  0  0  0  0
 22 50  1  0  0  0  0
 22 51  1  0  0  0  0
 24 52  1  0  0  0  0
 24 53  1  0  0  0  0
 24 54  1  0  0  0  0
 26 55  1  0  0  0  0
 26 56  1  0  0  0  0
 26 57  1  0  0  0  0
M  END
>  <InChIKey>
InChI=1S/C23H30O4/c1-13-11-20-18(17-6-5-16(26)12-19(13)17)7-9-22(4)21(20)8-10-23(22,14(2)24)27-15(3)25/h11-12,17-18,20-21H,5-10H2,1-4H3

>  <CASRN>
58652-20-3

> <Outcome>
0

>  <Index>
1767

>  <StandardizerResult>
Clear Stereo (ID: ClearStereo)
Wedge Clean (ID: WedgeClean)
Mesomerize (ID: Mesomerize)
Tautomerize (ID: Tautomerize)
Add Explicit Hydrogens (ID: AddExplicitH)
Neutralize (ID: Neutralize)
Clean 2D (ID: Clean2D)

> <knn Distance>
4.12310552597046

> <CpId>
1767

$$$$
1782
  Mrv1532301301811342D          

 53 56  0  0  0  0            999 V2000
    2.4733   -4.4901    0.0000 C   0  0  0  0  0  0  0  0  0  0  0  0
    2.4138   -3.6673    0.0000 C   0  0  0  0  0  0  0  0  0  0  0  0
    1.6714   -3.3074    0.0000 O   0  0  0  0  0  0  0  0  0  0  0  0
    3.0966   -3.2043    0.0000 O   0  0  0  0  0  0  0  0  0  0  0  0
    3.0371   -2.3814    0.0000 C   0  0  0  0  0  0  0  0  0  0  0  0
    2.8078   -1.5889    0.0000 C   0  0  0  0  0  0  0  0  0  0  0  0
    3.4906   -1.1260    0.0000 C   0  0  0  0  0  0  0  0  0  0  0  0
    4.1420   -1.6323    0.0000 C   0  0  0  0  0  0  0  0  0  0  0  0
    4.9541   -1.4871    0.0000 C   0  0  0  0  0  0  0  0  0  0  0  0
    5.2344   -0.7112    0.0000 C   0  0  0  0  0  0  0  0  0  0  0  0
    6.0465   -0.5660    0.0000 C   0  0  0  0  0  0  0  0  0  0  0  0
    6.5783   -1.1967    0.0000 C   0  0  0  0  0  0  0  0  0  0  0  0
    7.3904   -1.0515    0.0000 C   0  0  0  0  0  0  0  0  0  0  0  0
    7.9223   -1.6822    0.0000 C   0  0  0  0  0  0  0  0  0  0  0  0
    8.7344   -1.5370    0.0000 O   0  0  0  0  0  0  0  0  0  0  0  0
    7.6420   -2.4581    0.0000 C   0  0  0  0  0  0  0  0  0  0  0  0
    6.8298   -2.6033    0.0000 C   0  0  0  0  0  0  0  0  0  0  0  0
    6.2980   -1.9726    0.0000 C   0  0  0  0  0  0  0  0  0  0  0  0
    5.4859   -2.1178    0.0000 C   0  0  0  0  0  0  0  0  0  0  0  0
    5.2056   -2.8937    0.0000 C   0  0  0  0  0  0  0  0  0  0  0  0
    4.3935   -3.0390    0.0000 C   0  0  0  0  0  0  0  0  0  0  0  0
    3.8617   -2.4082    0.0000 C   0  0  0  0  0  0  0  0  0  0  0  0
    3.5018   -3.1506    0.0000 C   0  0  0  0  0  0  0  0  0  0  0  0
    2.2250   -2.5267    0.0000 C   0  0  0  0  0  0  0  0  0  0  0  0
    1.4129   -2.6719    0.0000 C   0  0  0  0  0  0  0  0  0  0  0  0
    1.6505   -4.5496    0.0000 H   0  0  0  0  0  0  0  0  0  0  0  0
    2.5328   -5.3130    0.0000 H   0  0  0  0  0  0  0  0  0  0  0  0
    3.2962   -4.4306    0.0000 H   0  0  0  0  0  0  0  0  0  0  0  0
    2.2543   -0.9772    0.0000 H   0  0  0  0  0  0  0  0  0  0  0  0
    1.9911   -1.7057    0.0000 H   0  0  0  0  0  0  0  0  0  0  0  0
    3.9014   -0.4105    0.0000 H   0  0  0  0  0  0  0  0  0  0  0  0
    3.1272   -0.3853    0.0000 H   0  0  0  0  0  0  0  0  0  0  0  0
    4.6738   -2.2630    0.0000 H   0  0  0  0  0  0  0  0  0  0  0  0
    4.4223   -0.8564    0.0000 H   0  0  0  0  0  0  0  0  0  0  0  0
    5.3757    0.1016    0.0000 H   0  0  0  0  0  0  0  0  0  0  0  0
    4.8202    0.0023    0.0000 H   0  0  0  0  0  0  0  0  0  0  0  0
    6.8110   -0.2558    0.0000 H   0  0  0  0  0  0  0  0  0  0  0  0
    6.4186    0.1704    0.0000 H   0  0  0  0  0  0  0  0  0  0  0  0
    7.6707   -0.2755    0.0000 H   0  0  0  0  0  0  0  0  0  0  0  0
    7.8342   -3.2604    0.0000 H   0  0  0  0  0  0  0  0  0  0  0  0
    8.4003   -2.7830    0.0000 H   0  0  0  0  0  0  0  0  0  0  0  0
    6.2311   -3.1709    0.0000 H   0  0  0  0  0  0  0  0  0  0  0  0
    6.9276   -3.4225    0.0000 H   0  0  0  0  0  0  0  0  0  0  0  0
    6.0177   -2.7485    0.0000 H   0  0  0  0  0  0  0  0  0  0  0  0
    5.7662   -1.3419    0.0000 H   0  0  0  0  0  0  0  0  0  0  0  0
    5.0643   -3.7065    0.0000 H   0  0  0  0  0  0  0  0  0  0  0  0
    5.6198   -3.6072    0.0000 H   0  0  0  0  0  0  0  0  0  0  0  0
    3.8610   -3.6691    0.0000 H   0  0  0  0  0  0  0  0  0  0  0  0
    4.4291   -3.8632    0.0000 H   0  0  0  0  0  0  0  0  0  0  0  0
    2.8415   -3.6453    0.0000 H   0  0  0  0  0  0  0  0  0  0  0  0
    3.1680   -3.9051    0.0000 H   0  0  0  0  0  0  0  0  0  0  0  0
    3.5798   -3.9719    0.0000 H   0  0  0  0  0  0  0  0  0  0  0  0
    0.6903   -2.2736    0.0000 H   0  0  0  0  0  0  0  0  0  0  0  0
  1  2  1  0  0  0  0
  2  3  2  0  0  0  0
  2  4  1  0  0  0  0
  4  5  1  0  0  0  0
  5  6  1  0  0  0  0
  6  7  1  0  0  0  0
  7  8  1  0  0  0  0
  8  9  1  0  0  0  0
  9 10  1  0  0  0  0
 10 11  1  0  0  0  0
 11 12  1  0  0  0  0
 12 13  2  0  0  0  0
 13 14  1  0  0  0  0
 14 15  2  0  0  0  0
 14 16  1  0  0  0  0
 16 17  1  0  0  0  0
 17 18  1  0  0  0  0
 12 18  1  0  0  0  0
 18 19  1  0  0  0  0
  9 19  1  0  0  0  0
 19 20  1  0  0  0  0
 20 21  1  0  0  0  0
 21 22  1  0  0  0  0
  5 22  1  0  0  0  0
  8 22  1  0  0  0  0
 22 23  1  0  0  0  0
  5 24  1  0  0  0  0
 24 25  3  0  0  0  0
  1 26  1  0  0  0  0
  1 27  1  0  0  0  0
  1 28  1  0  0  0  0
  6 29  1  0  0  0  0
  6 30  1  0  0  0  0
  7 31  1  0  0  0  0
  7 32  1  0  0  0  0
  8 33  1  0  0  0  0
  9 34  1  0  0  0  0
 10 35  1  0  0  0  0
 10 36  1  0  0  0  0
 11 37  1  0  0  0  0
 11 38  1  0  0  0  0
 13 39  1  0  0  0  0
 16 40  1  0  0  0  0
 16 41  1  0  0  0  0
 17 42  1  0  0  0  0
 17 43  1  0  0  0  0
 18 44  1  0  0  0  0
 19 45  1  0  0  0  0
 20 46  1  0  0  0  0
 20 47  1  0  0  0  0
 21 48  1  0  0  0  0
 21 49  1  0  0  0  0
 23 50  1  0  0  0  0
 23 51  1  0  0  0  0
 23 52  1  0  0  0  0
 25 53  1  0  0  0  0
M  END
>  <InChIKey>
InChI=1S/C22H28O3/c1-4-22(25-14(2)23)12-10-20-19-7-5-15-13-16(24)6-8-17(15)18(19)9-11-21(20,22)3/h1,13,17-20H,5-12H2,2-3H3

>  <CASRN>
51-98-9

> <Outcome>
0

>  <Index>
1782

>  <StandardizerResult>
Clear Stereo (ID: ClearStereo)
Wedge Clean (ID: WedgeClean)
Mesomerize (ID: Mesomerize)
Tautomerize (ID: Tautomerize)
Add Explicit Hydrogens (ID: AddExplicitH)
Neutralize (ID: Neutralize)
Clean 2D (ID: Clean2D)

> <knn Distance>
4.12310552597046

> <CpId>
1782

$$$$
1791
  Mrv1532301301811342D          

 14 14  0  0  0  0            999 V2000
   -0.0000    2.4750    0.0000 N   0  0  0  0  0  0  0  0  0  0  0  0
    0.7145    2.0625    0.0000 C   0  0  0  0  0  0  0  0  0  0  0  0
    1.4289    2.4750    0.0000 O   0  0  0  0  0  0  0  0  0  0  0  0
    0.7145    1.2375    0.0000 C   0  0  0  0  0  0  0  0  0  0  0  0
    1.4289    0.8250    0.0000 C   0  0  0  0  0  0  0  0  0  0  0  0
    1.4289   -0.0000    0.0000 N   0  0  0  0  0  0  0  0  0  0  0  0
    0.7145   -0.4125    0.0000 C   0  0  0  0  0  0  0  0  0  0  0  0
   -0.0000   -0.0000    0.0000 C   0  0  0  0  0  0  0  0  0  0  0  0
   -0.0000    0.8250    0.0000 N   0  0  0  0  0  0  0  0  0  0  0  0
   -0.0000    3.3000    0.0000 H   0  0  0  0  0  0  0  0  0  0  0  0
   -0.7145    2.0625    0.0000 H   0  0  0  0  0  0  0  0  0  0  0  0
    2.1434    1.2375    0.0000 H   0  0  0  0  0  0  0  0  0  0  0  0
    0.7145   -1.2375    0.0000 H   0  0  0  0  0  0  0  0  0  0  0  0
   -0.7145   -0.4125    0.0000 H   0  0  0  0  0  0  0  0  0  0  0  0
  1  2  1  0  0  0  0
  2  3  2  0  0  0  0
  2  4  1  0  0  0  0
  4  5  4  0  0  0  0
  5  6  4  0  0  0  0
  6  7  4  0  0  0  0
  7  8  4  0  0  0  0
  8  9  4  0  0  0  0
  4  9  4  0  0  0  0
  1 10  1  0  0  0  0
  1 11  1  0  0  0  0
  5 12  1  0  0  0  0
  7 13  1  0  0  0  0
  8 14  1  0  0  0  0
M  END
>  <InChIKey>
InChI=1S/C5H5N3O/c6-5(9)4-3-7-1-2-8-4/h1-3H,(H2,6,9)

>  <CASRN>
98-96-4

> <Outcome>
0

>  <Index>
1791

>  <StandardizerResult>
Dearomatize (ID: Dearomatize)
Clear Stereo (ID: ClearStereo)
Wedge Clean (ID: WedgeClean)
Mesomerize (ID: Mesomerize)
Tautomerize (ID: Tautomerize)
Aromatize (ID: Aromatize)
Add Explicit Hydrogens (ID: AddExplicitH)
Neutralize (ID: Neutralize)
Clean 2D (ID: Clean2D)

> <knn Distance>
4.12310552597046

> <CpId>
1791

$$$$
1855
  Mrv1532301301811342D          

 45 46  0  0  0  0            999 V2000
   -2.3147   -2.7568    0.0000 O   0  0  0  0  0  0  0  0  0  0  0  0
   -1.6003   -3.1693    0.0000 C   0  0  0  0  0  0  0  0  0  0  0  0
   -1.6003   -3.9943    0.0000 C   0  0  0  0  0  0  0  0  0  0  0  0
   -2.2677   -4.4792    0.0000 O   0  0  0  0  0  0  0  0  0  0  0  0
   -2.0128   -5.2638    0.0000 C   0  0  0  0  0  0  0  0  0  0  0  0
   -2.8197   -5.4354    0.0000 O   0  0  0  0  0  0  0  0  0  0  0  0
   -1.9265   -6.0843    0.0000 C   0  0  0  0  0  0  0  0  0  0  0  0
   -1.1728   -6.4199    0.0000 O   0  0  0  0  0  0  0  0  0  0  0  0
   -1.1878   -5.2638    0.0000 C   0  0  0  0  0  0  0  0  0  0  0  0
   -0.7028   -5.9313    0.0000 O   0  0  0  0  0  0  0  0  0  0  0  0
   -0.9328   -4.4792    0.0000 C   0  0  0  0  0  0  0  0  0  0  0  0
   -0.1482   -4.2243    0.0000 O   0  0  0  0  0  0  0  0  0  0  0  0
    0.0233   -3.4173    0.0000 C   0  0  0  0  0  0  0  0  0  0  0  0
   -0.5898   -2.8653    0.0000 O   0  0  0  0  0  0  0  0  0  0  0  0
   -0.4182   -2.0583    0.0000 C   0  0  0  0  0  0  0  0  0  0  0  0
   -1.0313   -1.5063    0.0000 C   0  0  0  0  0  0  0  0  0  0  0  0
   -1.8160   -1.7612    0.0000 O   0  0  0  0  0  0  0  0  0  0  0  0
    0.3664   -1.8034    0.0000 C   0  0  0  0  0  0  0  0  0  0  0  0
    0.5379   -0.9964    0.0000 O   0  0  0  0  0  0  0  0  0  0  0  0
    0.9795   -2.3554    0.0000 C   0  0  0  0  0  0  0  0  0  0  0  0
    1.7641   -2.1004    0.0000 O   0  0  0  0  0  0  0  0  0  0  0  0
    0.8079   -3.1624    0.0000 C   0  0  0  0  0  0  0  0  0  0  0  0
    1.4210   -3.7144    0.0000 O   0  0  0  0  0  0  0  0  0  0  0  0
   -2.3147   -1.9318    0.0000 H   0  0  0  0  0  0  0  0  0  0  0  0
   -0.7767   -3.1213    0.0000 H   0  0  0  0  0  0  0  0  0  0  0  0
   -1.1469   -2.4800    0.0000 H   0  0  0  0  0  0  0  0  0  0  0  0
   -0.8652   -3.6197    0.0000 H   0  0  0  0  0  0  0  0  0  0  0  0
   -3.3718   -4.8223    0.0000 H   0  0  0  0  0  0  0  0  0  0  0  0
   -2.7406   -6.2181    0.0000 H   0  0  0  0  0  0  0  0  0  0  0  0
   -2.3053   -6.8172    0.0000 H   0  0  0  0  0  0  0  0  0  0  0  0
   -1.0146   -7.2296    0.0000 H   0  0  0  0  0  0  0  0  0  0  0  0
   -0.3729   -5.1348    0.0000 H   0  0  0  0  0  0  0  0  0  0  0  0
   -0.0125   -6.3829    0.0000 H   0  0  0  0  0  0  0  0  0  0  0  0
   -1.7174   -4.7341    0.0000 H   0  0  0  0  0  0  0  0  0  0  0  0
    0.6364   -3.9693    0.0000 H   0  0  0  0  0  0  0  0  0  0  0  0
   -0.2467   -1.2513    0.0000 H   0  0  0  0  0  0  0  0  0  0  0  0
   -1.0025   -0.6818    0.0000 H   0  0  0  0  0  0  0  0  0  0  0  0
   -1.5393   -0.8561    0.0000 H   0  0  0  0  0  0  0  0  0  0  0  0
   -1.5550   -2.5438    0.0000 H   0  0  0  0  0  0  0  0  0  0  0  0
    1.1510   -1.5484    0.0000 H   0  0  0  0  0  0  0  0  0  0  0  0
    0.7094   -0.1894    0.0000 H   0  0  0  0  0  0  0  0  0  0  0  0
    1.5926   -2.9074    0.0000 H   0  0  0  0  0  0  0  0  0  0  0  0
    2.5487   -1.8455    0.0000 H   0  0  0  0  0  0  0  0  0  0  0  0
    0.1949   -2.6103    0.0000 H   0  0  0  0  0  0  0  0  0  0  0  0
    2.0341   -4.2664    0.0000 H   0  0  0  0  0  0  0  0  0  0  0  0
  1  2  1  0  0  0  0
  2  3  1  0  0  0  0
  3  4  1  0  0  0  0
  4  5  1  0  0  0  0
  5  6  1  0  0  0  0
  5  7  1  0  0  0  0
  7  8  1  0  0  0  0
  5  9  1  0  0  0  0
  9 10  1  0  0  0  0
  9 11  1  0  0  0  0
  3 11  1  0  0  0  0
 11 12  1  0  0  0  0
 12 13  1  0  0  0  0
 13 14  1  0  0  0  0
 14 15  1  0  0  0  0
 15 16  1  0  0  0  0
 16 17  1  0  0  0  0
 15 18  1  0  0  0  0
 18 19  1  0  0  0  0
 18 20  1  0  0  0  0
 20 21  1  0  0  0  0
 20 22  1  0  0  0  0
 13 22  1  0  0  0  0
 22 23  1  0  0  0  0
  1 24  1  0  0  0  0
  2 25  1  0  0  0  0
  2 26  1  0  0  0  0
  3 27  1  0  0  0  0
  6 28  1  0  0  0  0
  7 29  1  0  0  0  0
  7 30  1  0  0  0  0
  8 31  1  0  0  0  0
  9 32  1  0  0  0  0
 10 33  1  0  0  0  0
 11 34  1  0  0  0  0
 13 35  1  0  0  0  0
 15 36  1  0  0  0  0
 16 37  1  0  0  0  0
 16 38  1  0  0  0  0
 17 39  1  0  0  0  0
 18 40  1  0  0  0  0
 19 41  1  0  0  0  0
 20 42  1  0  0  0  0
 21 43  1  0  0  0  0
 22 44  1  0  0  0  0
 23 45  1  0  0  0  0
M  END
>  <InChIKey>
InChI=1S/C12H22O11/c13-1-4-6(16)7(17)8(18)11(21-4)22-9-5(2-14)23-12(20,3-15)10(9)19/h4-11,13-20H,1-3H2

>  <CASRN>
4618-18-2

> <Outcome>
0

>  <Index>
1855

>  <StandardizerResult>
Clear Stereo (ID: ClearStereo)
Wedge Clean (ID: WedgeClean)
Mesomerize (ID: Mesomerize)
Tautomerize (ID: Tautomerize)
Add Explicit Hydrogens (ID: AddExplicitH)
Neutralize (ID: Neutralize)
Clean 2D (ID: Clean2D)

> <knn Distance>
4.12310552597046

> <CpId>
1855

$$$$
2029
  Mrv1532301301811342D          

 39 39  0  0  0  0            999 V2000
   -0.9156   -1.6393    0.0000 C   0  0  0  0  0  0  0  0  0  0  0  0
   -0.0906   -1.6393    0.0000 C   0  0  0  0  0  0  0  0  0  0  0  0
    0.3219   -0.9248    0.0000 C   0  0  0  0  0  0  0  0  0  0  0  0
    1.1469   -0.9248    0.0000 C   0  0  0  0  0  0  0  0  0  0  0  0
    1.5594   -0.2104    0.0000 C   0  0  0  0  0  0  0  0  0  0  0  0
    1.5594   -1.6393    0.0000 C   0  0  0  0  0  0  0  0  0  0  0  0
    2.3844   -1.6393    0.0000 N   0  0  0  0  0  0  0  0  0  0  0  0
    2.7969   -2.3538    0.0000 C   0  0  0  0  0  0  0  0  0  0  0  0
    2.7969   -0.9248    0.0000 C   0  0  0  0  0  0  0  0  0  0  0  0
   -0.0906   -0.2104    0.0000 C   0  0  0  0  0  0  0  0  0  0  0  0
   -0.9156   -0.2104    0.0000 C   0  0  0  0  0  0  0  0  0  0  0  0
   -1.3281    0.5041    0.0000 C   0  0  0  0  0  0  0  0  0  0  0  0
   -0.9156    1.2186    0.0000 C   0  0  0  0  0  0  0  0  0  0  0  0
   -0.0906    1.2186    0.0000 C   0  0  0  0  0  0  0  0  0  0  0  0
    0.3219    1.9330    0.0000 O   0  0  0  0  0  0  0  0  0  0  0  0
    0.3219    0.5041    0.0000 C   0  0  0  0  0  0  0  0  0  0  0  0
   -0.9156   -0.8143    0.0000 H   0  0  0  0  0  0  0  0  0  0  0  0
   -1.7406   -1.6393    0.0000 H   0  0  0  0  0  0  0  0  0  0  0  0
   -0.9156   -2.4643    0.0000 H   0  0  0  0  0  0  0  0  0  0  0  0
   -0.0426   -2.4629    0.0000 H   0  0  0  0  0  0  0  0  0  0  0  0
    0.5987   -2.0927    0.0000 H   0  0  0  0  0  0  0  0  0  0  0  0
    0.7344   -1.6393    0.0000 H   0  0  0  0  0  0  0  0  0  0  0  0
    0.7344   -0.2104    0.0000 H   0  0  0  0  0  0  0  0  0  0  0  0
    2.1428   -0.7937    0.0000 H   0  0  0  0  0  0  0  0  0  0  0  0
    2.2739    0.2021    0.0000 H   0  0  0  0  0  0  0  0  0  0  0  0
    1.3459    0.5865    0.0000 H   0  0  0  0  0  0  0  0  0  0  0  0
    1.2772   -2.4146    0.0000 H   0  0  0  0  0  0  0  0  0  0  0  0
    1.8416   -2.4146    0.0000 H   0  0  0  0  0  0  0  0  0  0  0  0
    2.6216   -3.1599    0.0000 H   0  0  0  0  0  0  0  0  0  0  0  0
    3.5241   -2.7434    0.0000 H   0  0  0  0  0  0  0  0  0  0  0  0
    3.3709   -1.7612    0.0000 H   0  0  0  0  0  0  0  0  0  0  0  0
    3.3507   -1.5363    0.0000 H   0  0  0  0  0  0  0  0  0  0  0  0
    3.5486   -0.5849    0.0000 H   0  0  0  0  0  0  0  0  0  0  0  0
    2.7035   -0.1051    0.0000 H   0  0  0  0  0  0  0  0  0  0  0  0
   -1.7125   -0.4239    0.0000 H   0  0  0  0  0  0  0  0  0  0  0  0
   -2.1531    0.5041    0.0000 H   0  0  0  0  0  0  0  0  0  0  0  0
   -1.3281    1.9330    0.0000 H   0  0  0  0  0  0  0  0  0  0  0  0
    1.1469    1.9330    0.0000 H   0  0  0  0  0  0  0  0  0  0  0  0
    1.0364    0.9166    0.0000 H   0  0  0  0  0  0  0  0  0  0  0  0
  1  2  1  0  0  0  0
  2  3  1  0  0  0  0
  3  4  1  0  0  0  0
  4  5  1  0  0  0  0
  4  6  1  0  0  0  0
  6  7  1  0  0  0  0
  7  8  1  0  0  0  0
  7  9  1  0  0  0  0
  3 10  1  0  0  0  0
 10 11  4  0  0  0  0
 11 12  4  0  0  0  0
 12 13  4  0  0  0  0
 13 14  4  0  0  0  0
 14 15  1  0  0  0  0
 14 16  4  0  0  0  0
 10 16  4  0  0  0  0
  1 17  1  0  0  0  0
  1 18  1  0  0  0  0
  1 19  1  0  0  0  0
  2 20  1  0  0  0  0
  2 21  1  0  0  0  0
  3 22  1  0  0  0  0
  4 23  1  0  0  0  0
  5 24  1  0  0  0  0
  5 25  1  0  0  0  0
  5 26  1  0  0  0  0
  6 27  1  0  0  0  0
  6 28  1  0  0  0  0
  8 29  1  0  0  0  0
  8 30  1  0  0  0  0
  8 31  1  0  0  0  0
  9 32  1  0  0  0  0
  9 33  1  0  0  0  0
  9 34  1  0  0  0  0
 11 35  1  0  0  0  0
 12 36  1  0  0  0  0
 13 37  1  0  0  0  0
 15 38  1  0  0  0  0
 16 39  1  0  0  0  0
M  END
>  <InChIKey>
InChI=1S/C14H23NO/c1-5-14(11(2)10-15(3)4)12-7-6-8-13(16)9-12/h6-9,11,14,16H,5,10H2,1-4H3

>  <CASRN>
175591-23-8

> <Outcome>
0

>  <Index>
2029

>  <StandardizerResult>
Dearomatize (ID: Dearomatize)
Clear Stereo (ID: ClearStereo)
Wedge Clean (ID: WedgeClean)
Mesomerize (ID: Mesomerize)
Tautomerize (ID: Tautomerize)
Aromatize (ID: Aromatize)
Add Explicit Hydrogens (ID: AddExplicitH)
Neutralize (ID: Neutralize)
Clean 2D (ID: Clean2D)

> <knn Distance>
4.12310552597046

> <CpId>
2029

$$$$
2033
  Mrv1532301301811342D          

 66 66  0  0  0  0            999 V2000
    2.7325   -6.6646    0.0000 C   0  0  0  0  0  0  0  0  0  0  0  0
    2.1194   -6.1125    0.0000 C   0  0  0  0  0  0  0  0  0  0  0  0
    2.2909   -5.3056    0.0000 C   0  0  0  0  0  0  0  0  0  0  0  0
    1.6778   -4.7535    0.0000 C   0  0  0  0  0  0  0  0  0  0  0  0
    1.8493   -3.9465    0.0000 C   0  0  0  0  0  0  0  0  0  0  0  0
    2.6563   -4.1181    0.0000 C   0  0  0  0  0  0  0  0  0  0  0  0
    1.0424   -3.7750    0.0000 C   0  0  0  0  0  0  0  0  0  0  0  0
    2.0209   -3.1396    0.0000 C   0  0  0  0  0  0  0  0  0  0  0  0
    2.8055   -2.8846    0.0000 O   0  0  0  0  0  0  0  0  0  0  0  0
    1.4078   -2.5875    0.0000 C   0  0  0  0  0  0  0  0  0  0  0  0
    1.5793   -1.7806    0.0000 C   0  0  0  0  0  0  0  0  0  0  0  0
    0.9662   -1.2285    0.0000 C   0  0  0  0  0  0  0  0  0  0  0  0
    0.1592   -1.4001    0.0000 C   0  0  0  0  0  0  0  0  0  0  0  0
   -0.1763   -2.1537    0.0000 O   0  0  0  0  0  0  0  0  0  0  0  0
   -0.2533   -0.6856    0.0000 C   0  0  0  0  0  0  0  0  0  0  0  0
    0.2988   -0.0725    0.0000 C   0  0  0  0  0  0  0  0  0  0  0  0
    0.1272    0.7345    0.0000 O   0  0  0  0  0  0  0  0  0  0  0  0
    1.0524   -0.4081    0.0000 C   0  0  0  0  0  0  0  0  0  0  0  0
    1.7669    0.0044    0.0000 C   0  0  0  0  0  0  0  0  0  0  0  0
    2.4814   -0.4081    0.0000 C   0  0  0  0  0  0  0  0  0  0  0  0
    3.1958    0.0044    0.0000 C   0  0  0  0  0  0  0  0  0  0  0  0
    3.9103   -0.4081    0.0000 C   0  0  0  0  0  0  0  0  0  0  0  0
    4.6248    0.0044    0.0000 C   0  0  0  0  0  0  0  0  0  0  0  0
    5.3393   -0.4081    0.0000 C   0  0  0  0  0  0  0  0  0  0  0  0
    6.0537    0.0044    0.0000 C   0  0  0  0  0  0  0  0  0  0  0  0
    6.0537    0.8294    0.0000 O   0  0  0  0  0  0  0  0  0  0  0  0
    6.7682   -0.4081    0.0000 O   0  0  0  0  0  0  0  0  0  0  0  0
    7.4827    0.0044    0.0000 C   0  0  0  0  0  0  0  0  0  0  0  0
    2.1804   -7.2777    0.0000 H   0  0  0  0  0  0  0  0  0  0  0  0
    3.3456   -7.2166    0.0000 H   0  0  0  0  0  0  0  0  0  0  0  0
    3.2845   -6.0515    0.0000 H   0  0  0  0  0  0  0  0  0  0  0  0
    1.3038   -5.9882    0.0000 H   0  0  0  0  0  0  0  0  0  0  0  0
    1.5326   -6.6925    0.0000 H   0  0  0  0  0  0  0  0  0  0  0  0
    3.1065   -5.4299    0.0000 H   0  0  0  0  0  0  0  0  0  0  0  0
    2.8776   -4.7256    0.0000 H   0  0  0  0  0  0  0  0  0  0  0  0
    0.8622   -4.6292    0.0000 H   0  0  0  0  0  0  0  0  0  0  0  0
    1.0911   -5.3335    0.0000 H   0  0  0  0  0  0  0  0  0  0  0  0
    3.4675   -4.2682    0.0000 H   0  0  0  0  0  0  0  0  0  0  0  0
    3.1975   -3.4954    0.0000 H   0  0  0  0  0  0  0  0  0  0  0  0
    2.3945   -3.3357    0.0000 H   0  0  0  0  0  0  0  0  0  0  0  0
    1.5094   -3.0949    0.0000 H   0  0  0  0  0  0  0  0  0  0  0  0
    0.5925   -3.0835    0.0000 H   0  0  0  0  0  0  0  0  0  0  0  0
    0.2314   -3.9263    0.0000 H   0  0  0  0  0  0  0  0  0  0  0  0
    2.1924   -2.3326    0.0000 H   0  0  0  0  0  0  0  0  0  0  0  0
    3.4343   -2.3505    0.0000 H   0  0  0  0  0  0  0  0  0  0  0  0
    0.7348   -2.1103    0.0000 H   0  0  0  0  0  0  0  0  0  0  0  0
    2.1313   -1.1675    0.0000 H   0  0  0  0  0  0  0  0  0  0  0  0
    1.7364   -0.9329    0.0000 H   0  0  0  0  0  0  0  0  0  0  0  0
   -0.6646   -1.4432    0.0000 H   0  0  0  0  0  0  0  0  0  0  0  0
   -0.5430   -2.8928    0.0000 H   0  0  0  0  0  0  0  0  0  0  0  0
   -0.7056    0.0043    0.0000 H   0  0  0  0  0  0  0  0  0  0  0  0
   -1.0546   -0.4895    0.0000 H   0  0  0  0  0  0  0  0  0  0  0  0
    1.0093    0.4158    0.0000 H   0  0  0  0  0  0  0  0  0  0  0  0
    2.3935    0.5411    0.0000 H   0  0  0  0  0  0  0  0  0  0  0  0
    1.8972    0.8191    0.0000 H   0  0  0  0  0  0  0  0  0  0  0  0
    2.8104   -1.1646    0.0000 H   0  0  0  0  0  0  0  0  0  0  0  0
    3.2649   -0.6664    0.0000 H   0  0  0  0  0  0  0  0  0  0  0  0
    3.9192    0.4011    0.0000 H   0  0  0  0  0  0  0  0  0  0  0  0
    3.2321    0.8286    0.0000 H   0  0  0  0  0  0  0  0  0  0  0  0
    3.9822   -1.2299    0.0000 H   0  0  0  0  0  0  0  0  0  0  0  0
    4.5119   -0.9726    0.0000 H   0  0  0  0  0  0  0  0  0  0  0  0
    5.0332    0.7213    0.0000 H   0  0  0  0  0  0  0  0  0  0  0  0
    5.3393   -1.2331    0.0000 H   0  0  0  0  0  0  0  0  0  0  0  0
    7.8952   -0.7100    0.0000 H   0  0  0  0  0  0  0  0  0  0  0  0
    8.1971    0.4169    0.0000 H   0  0  0  0  0  0  0  0  0  0  0  0
    7.0702    0.7189    0.0000 H   0  0  0  0  0  0  0  0  0  0  0  0
  1  2  1  0  0  0  0
  2  3  1  0  0  0  0
  3  4  1  0  0  0  0
  4  5  1  0  0  0  0
  5  6  1  0  0  0  0
  5  7  1  0  0  0  0
  5  8  1  0  0  0  0
  8  9  1  0  0  0  0
 10  8  1  4  0  0  0
 10 11  2  0  0  0  0
 11 12  1  0  0  0  0
 12 13  1  0  0  0  0
 13 14  1  0  0  0  0
 13 15  1  0  0  0  0
 15 16  1  0  0  0  0
 16 17  2  0  0  0  0
 16 18  1  0  0  0  0
 12 18  1  0  0  0  0
 18 19  1  0  0  0  0
 19 20  1  0  0  0  0
 20 21  1  0  0  0  0
 21 22  1  0  0  0  0
 23 22  1  4  0  0  0
 23 24  2  0  0  0  0
 24 25  1  0  0  0  0
 25 26  2  0  0  0  0
 25 27  1  0  0  0  0
 27 28  1  0  0  0  0
  1 29  1  0  0  0  0
  1 30  1  0  0  0  0
  1 31  1  0  0  0  0
  2 32  1  0  0  0  0
  2 33  1  0  0  0  0
  3 34  1  0  0  0  0
  3 35  1  0  0  0  0
  4 36  1  0  0  0  0
  4 37  1  0  0  0  0
  6 38  1  0  0  0  0
  6 39  1  0  0  0  0
  6 40  1  0  0  0  0
  7 41  1  0  0  0  0
  7 42  1  0  0  0  0
  7 43  1  0  0  0  0
  8 44  1  0  0  0  0
  9 45  1  0  0  0  0
 10 46  1  0  0  0  0
 11 47  1  0  0  0  0
 12 48  1  0  0  0  0
 13 49  1  0  0  0  0
 14 50  1  0  0  0  0
 15 51  1  0  0  0  0
 15 52  1  0  0  0  0
 18 53  1  0  0  0  0
 19 54  1  0  0  0  0
 19 55  1  0  0  0  0
 20 56  1  0  0  0  0
 20 57  1  0  0  0  0
 21 58  1  0  0  0  0
 21 59  1  0  0  0  0
 22 60  1  0  0  0  0
 22 61  1  0  0  0  0
 23 62  1  0  0  0  0
 24 63  1  0  0  0  0
 28 64  1  0  0  0  0
 28 65  1  0  0  0  0
 28 66  1  0  0  0  0
M  END
>  <InChIKey>
InChI=1S/C23H38O5/c1-5-6-15-23(2,3)21(26)14-13-18-17(19(24)16-20(18)25)11-9-7-8-10-12-22(27)28-4/h10,12-14,17-18,20-21,25-26H,5-9,11,15-16H2,1-4H3

>  <CASRN>
64318-79-2

> <Outcome>
0

>  <Index>
2033

>  <StandardizerResult>
Clear Stereo (ID: ClearStereo)
Wedge Clean (ID: WedgeClean)
Mesomerize (ID: Mesomerize)
Tautomerize (ID: Tautomerize)
Add Explicit Hydrogens (ID: AddExplicitH)
Neutralize (ID: Neutralize)
Clean 2D (ID: Clean2D)

> <knn Distance>
4.12310552597046

> <CpId>
2033

$$$$
2057
  Mrv1532301301811342D          

 24 24  0  0  0  0            999 V2000
   -0.7145    3.7125    0.0000 C   0  0  0  0  0  0  0  0  0  0  0  0
   -0.7145    2.8875    0.0000 O   0  0  0  0  0  0  0  0  0  0  0  0
   -0.0000    2.4750    0.0000 P   0  0  0  0  0  0  0  0  0  0  0  0
   -0.4125    1.7605    0.0000 S   0  0  0  0  0  0  0  0  0  0  0  0
    0.4125    3.1895    0.0000 O   0  0  0  0  0  0  0  0  0  0  0  0
    1.2375    3.1895    0.0000 C   0  0  0  0  0  0  0  0  0  0  0  0
    0.7145    2.0625    0.0000 O   0  0  0  0  0  0  0  0  0  0  0  0
    0.7145    1.2375    0.0000 C   0  0  0  0  0  0  0  0  0  0  0  0
    1.4289    0.8250    0.0000 C   0  0  0  0  0  0  0  0  0  0  0  0
    1.4289    0.0000    0.0000 C   0  0  0  0  0  0  0  0  0  0  0  0
    2.1434   -0.4125    0.0000 Cl  0  0  0  0  0  0  0  0  0  0  0  0
    0.7145   -0.4125    0.0000 C   0  0  0  0  0  0  0  0  0  0  0  0
    0.7145   -1.2375    0.0000 I   0  0  0  0  0  0  0  0  0  0  0  0
   -0.0000    0.0000    0.0000 C   0  0  0  0  0  0  0  0  0  0  0  0
   -0.0000    0.8250    0.0000 C   0  0  0  0  0  0  0  0  0  0  0  0
   -0.7145    1.2375    0.0000 Cl  0  0  0  0  0  0  0  0  0  0  0  0
    0.1105    3.7125    0.0000 H   0  0  0  0  0  0  0  0  0  0  0  0
   -0.7145    4.5375    0.0000 H   0  0  0  0  0  0  0  0  0  0  0  0
   -1.5395    3.7125    0.0000 H   0  0  0  0  0  0  0  0  0  0  0  0
    1.2375    2.3645    0.0000 H   0  0  0  0  0  0  0  0  0  0  0  0
    2.0625    3.1895    0.0000 H   0  0  0  0  0  0  0  0  0  0  0  0
    1.2375    4.0145    0.0000 H   0  0  0  0  0  0  0  0  0  0  0  0
    2.1434    1.2375    0.0000 H   0  0  0  0  0  0  0  0  0  0  0  0
   -0.7145   -0.4125    0.0000 H   0  0  0  0  0  0  0  0  0  0  0  0
  1  2  1  0  0  0  0
  2  3  1  0  0  0  0
  3  4  2  0  0  0  0
  3  5  1  0  0  0  0
  5  6  1  0  0  0  0
  3  7  1  0  0  0  0
  7  8  1  0  0  0  0
  8  9  4  0  0  0  0
  9 10  4  0  0  0  0
 10 11  1  0  0  0  0
 10 12  4  0  0  0  0
 12 13  1  0  0  0  0
 12 14  4  0  0  0  0
 14 15  4  0  0  0  0
  8 15  4  0  0  0  0
 15 16  1  0  0  0  0
  1 17  1  0  0  0  0
  1 18  1  0  0  0  0
  1 19  1  0  0  0  0
  6 20  1  0  0  0  0
  6 21  1  0  0  0  0
  6 22  1  0  0  0  0
  9 23  1  0  0  0  0
 14 24  1  0  0  0  0
M  END
>  <InChIKey>
InChI=1S/C8H8Cl2IO3PS/c1-12-15(16,13-2)14-8-4-5(9)7(11)3-6(8)10/h3-4H,1-2H3

>  <CASRN>
18181-70-9

> <Outcome>
0

>  <Index>
2057

>  <StandardizerResult>
Dearomatize (ID: Dearomatize)
Clear Stereo (ID: ClearStereo)
Wedge Clean (ID: WedgeClean)
Mesomerize (ID: Mesomerize)
Tautomerize (ID: Tautomerize)
Aromatize (ID: Aromatize)
Add Explicit Hydrogens (ID: AddExplicitH)
Neutralize (ID: Neutralize)
Clean 2D (ID: Clean2D)

> <knn Distance>
4.12310552597046

> <CpId>
2057

$$$$
2096
  Mrv1532301301811342D          

 30 31  0  0  0  0            999 V2000
   -0.0365    0.0024    0.0000 O   0  0  0  0  0  0  0  0  0  0  0  0
   -0.7509   -0.4101    0.0000 C   0  0  0  0  0  0  0  0  0  0  0  0
   -1.4654    0.0024    0.0000 O   0  0  0  0  0  0  0  0  0  0  0  0
   -0.7509   -1.2351    0.0000 C   0  0  0  0  0  0  0  0  0  0  0  0
   -0.0365   -1.6476    0.0000 C   0  0  0  0  0  0  0  0  0  0  0  0
   -0.0365   -2.4726    0.0000 C   0  0  0  0  0  0  0  0  0  0  0  0
   -0.7509   -2.8851    0.0000 C   0  0  0  0  0  0  0  0  0  0  0  0
   -1.4654   -2.4726    0.0000 C   0  0  0  0  0  0  0  0  0  0  0  0
   -1.4654   -1.6476    0.0000 C   0  0  0  0  0  0  0  0  0  0  0  0
   -2.1799   -1.2351    0.0000 N   0  0  0  0  0  0  0  0  0  0  0  0
   -2.8943   -1.6476    0.0000 C   0  0  0  0  0  0  0  0  0  0  0  0
   -2.8943   -2.4726    0.0000 C   0  0  0  0  0  0  0  0  0  0  0  0
   -3.6088   -2.8851    0.0000 C   0  0  0  0  0  0  0  0  0  0  0  0
   -4.3233   -2.4726    0.0000 C   0  0  0  0  0  0  0  0  0  0  0  0
   -4.3233   -1.6476    0.0000 C   0  0  0  0  0  0  0  0  0  0  0  0
   -3.6088   -1.2351    0.0000 C   0  0  0  0  0  0  0  0  0  0  0  0
   -5.0377   -1.2351    0.0000 C   0  0  0  0  0  0  0  0  0  0  0  0
   -5.7522   -0.8226    0.0000 F   0  0  0  0  0  0  0  0  0  0  0  0
   -4.6252   -0.5207    0.0000 F   0  0  0  0  0  0  0  0  0  0  0  0
   -5.4502   -1.9496    0.0000 F   0  0  0  0  0  0  0  0  0  0  0  0
    0.6780   -0.4101    0.0000 H   0  0  0  0  0  0  0  0  0  0  0  0
    0.6780   -1.2351    0.0000 H   0  0  0  0  0  0  0  0  0  0  0  0
    0.6780   -2.8851    0.0000 H   0  0  0  0  0  0  0  0  0  0  0  0
   -0.7509   -3.7101    0.0000 H   0  0  0  0  0  0  0  0  0  0  0  0
   -2.1799   -2.8851    0.0000 H   0  0  0  0  0  0  0  0  0  0  0  0
   -2.1799   -0.4101    0.0000 H   0  0  0  0  0  0  0  0  0  0  0  0
   -2.1799   -2.0601    0.0000 H   0  0  0  0  0  0  0  0  0  0  0  0
   -3.6088   -3.7101    0.0000 H   0  0  0  0  0  0  0  0  0  0  0  0
   -5.0377   -2.8851    0.0000 H   0  0  0  0  0  0  0  0  0  0  0  0
   -3.6088   -0.4101    0.0000 H   0  0  0  0  0  0  0  0  0  0  0  0
  1  2  1  0  0  0  0
  2  3  2  0  0  0  0
  2  4  1  0  0  0  0
  4  5  4  0  0  0  0
  5  6  4  0  0  0  0
  6  7  4  0  0  0  0
  7  8  4  0  0  0  0
  8  9  4  0  0  0  0
  4  9  4  0  0  0  0
  9 10  1  0  0  0  0
 10 11  1  0  0  0  0
 11 12  4  0  0  0  0
 12 13  4  0  0  0  0
 13 14  4  0  0  0  0
 14 15  4  0  0  0  0
 15 16  4  0  0  0  0
 11 16  4  0  0  0  0
 15 17  1  0  0  0  0
 17 18  1  0  0  0  0
 17 19  1  0  0  0  0
 17 20  1  0  0  0  0
  1 21  1  0  0  0  0
  5 22  1  0  0  0  0
  6 23  1  0  0  0  0
  7 24  1  0  0  0  0
  8 25  1  0  0  0  0
 10 26  1  0  0  0  0
 12 27  1  0  0  0  0
 13 28  1  0  0  0  0
 14 29  1  0  0  0  0
 16 30  1  0  0  0  0
M  END
>  <InChIKey>
InChI=1S/C14H10F3NO2/c15-14(16,17)9-4-3-5-10(8-9)18-12-7-2-1-6-11(12)13(19)20/h1-8,18H,(H,19,20)

>  <CASRN>
530-78-9

> <Outcome>
0

>  <Index>
2096

>  <StandardizerResult>
Dearomatize (ID: Dearomatize)
Clear Stereo (ID: ClearStereo)
Wedge Clean (ID: WedgeClean)
Mesomerize (ID: Mesomerize)
Tautomerize (ID: Tautomerize)
Aromatize (ID: Aromatize)
Add Explicit Hydrogens (ID: AddExplicitH)
Neutralize (ID: Neutralize)
Clean 2D (ID: Clean2D)

> <knn Distance>
4.12310552597046

> <CpId>
2096

$$$$
2186
  Mrv1532301301811342D          

 30 30  0  0  0  0            999 V2000
   -0.7359    3.7434    0.0000 C   0  0  0  0  0  0  0  0  0  0  0  0
   -0.0214    3.3309    0.0000 C   0  0  0  0  0  0  0  0  0  0  0  0
    0.6931    3.7434    0.0000 C   0  0  0  0  0  0  0  0  0  0  0  0
   -0.0214    2.5059    0.0000 C   0  0  0  0  0  0  0  0  0  0  0  0
   -0.7359    2.0934    0.0000 O   0  0  0  0  0  0  0  0  0  0  0  0
    0.6931    2.0934    0.0000 N   0  0  0  0  0  0  0  0  0  0  0  0
    0.6931    1.2684    0.0000 C   0  0  0  0  0  0  0  0  0  0  0  0
    1.4075    0.8559    0.0000 C   0  0  0  0  0  0  0  0  0  0  0  0
    1.4075    0.0309    0.0000 C   0  0  0  0  0  0  0  0  0  0  0  0
    0.6931   -0.3816    0.0000 C   0  0  0  0  0  0  0  0  0  0  0  0
   -0.0214    0.0309    0.0000 C   0  0  0  0  0  0  0  0  0  0  0  0
   -0.0214    0.8559    0.0000 C   0  0  0  0  0  0  0  0  0  0  0  0
   -0.7359   -0.3816    0.0000 C   0  0  0  0  0  0  0  0  0  0  0  0
   -1.4503   -0.7941    0.0000 F   0  0  0  0  0  0  0  0  0  0  0  0
   -1.1484    0.3328    0.0000 F   0  0  0  0  0  0  0  0  0  0  0  0
   -0.3234   -1.0961    0.0000 F   0  0  0  0  0  0  0  0  0  0  0  0
    0.6931   -1.2066    0.0000 N   0  0  0  0  0  0  0  0  0  0  0  0
    1.4075   -1.6191    0.0000 O   0  0  0  0  0  0  0  0  0  0  0  0
   -0.0214   -1.6191    0.0000 O   0  0  0  0  0  0  0  0  0  0  0  0
   -0.3234    4.4578    0.0000 H   0  0  0  0  0  0  0  0  0  0  0  0
   -1.4503    4.1559    0.0000 H   0  0  0  0  0  0  0  0  0  0  0  0
   -1.1484    3.0289    0.0000 H   0  0  0  0  0  0  0  0  0  0  0  0
   -0.0214    4.1559    0.0000 H   0  0  0  0  0  0  0  0  0  0  0  0
    0.9066    2.9465    0.0000 H   0  0  0  0  0  0  0  0  0  0  0  0
    1.5181    3.7434    0.0000 H   0  0  0  0  0  0  0  0  0  0  0  0
    0.9066    4.5403    0.0000 H   0  0  0  0  0  0  0  0  0  0  0  0
    1.5119    1.9925    0.0000 H   0  0  0  0  0  0  0  0  0  0  0  0
    2.1220    1.2684    0.0000 H   0  0  0  0  0  0  0  0  0  0  0  0
    2.1220   -0.3816    0.0000 H   0  0  0  0  0  0  0  0  0  0  0  0
   -0.7359    1.2684    0.0000 H   0  0  0  0  0  0  0  0  0  0  0  0
  1  2  1  0  0  0  0
  2  3  1  0  0  0  0
  2  4  1  0  0  0  0
  4  5  2  0  0  0  0
  4  6  1  0  0  0  0
  6  7  1  0  0  0  0
  7  8  4  0  0  0  0
  8  9  4  0  0  0  0
  9 10  4  0  0  0  0
 10 11  4  0  0  0  0
 11 12  4  0  0  0  0
  7 12  4  0  0  0  0
 11 13  1  0  0  0  0
 13 14  1  0  0  0  0
 13 15  1  0  0  0  0
 13 16  1  0  0  0  0
 10 17  1  0  0  0  0
 17 18  2  0  0  0  0
 17 19  2  0  0  0  0
  1 20  1  0  0  0  0
  1 21  1  0  0  0  0
  1 22  1  0  0  0  0
  2 23  1  0  0  0  0
  3 24  1  0  0  0  0
  3 25  1  0  0  0  0
  3 26  1  0  0  0  0
  6 27  1  0  0  0  0
  8 28  1  0  0  0  0
  9 29  1  0  0  0  0
 12 30  1  0  0  0  0
M  END
>  <InChIKey>
InChI=1S/C11H11F3N2O3/c1-6(2)10(17)15-7-3-4-9(16(18)19)8(5-7)11(12,13)14/h3-6H,1-2H3,(H,15,17)

>  <CASRN>
13311-84-7

> <Outcome>
0

>  <Index>
2186

>  <StandardizerResult>
Dearomatize (ID: Dearomatize)
Clear Stereo (ID: ClearStereo)
Wedge Clean (ID: WedgeClean)
Mesomerize (ID: Mesomerize)
Tautomerize (ID: Tautomerize)
Aromatize (ID: Aromatize)
Add Explicit Hydrogens (ID: AddExplicitH)
Neutralize (ID: Neutralize)
Clean 2D (ID: Clean2D)

> <knn Distance>
4.12310552597046

> <CpId>
2186

$$$$
2278
  Mrv1532301301811342D          

 27 27  0  0  0  0            999 V2000
    1.8629    1.7255    0.0000 C   0  0  0  0  0  0  0  0  0  0  0  0
    1.4504    2.4399    0.0000 C   0  0  0  0  0  0  0  0  0  0  0  0
    1.0379    3.1544    0.0000 N   0  0  0  0  0  0  0  0  0  0  0  0
    0.7359    2.0274    0.0000 C   0  0  0  0  0  0  0  0  0  0  0  0
    0.7359    1.2024    0.0000 C   0  0  0  0  0  0  0  0  0  0  0  0
    1.4504    0.7899    0.0000 C   0  0  0  0  0  0  0  0  0  0  0  0
    1.4504   -0.0351    0.0000 C   0  0  0  0  0  0  0  0  0  0  0  0
    0.7359   -0.4476    0.0000 C   0  0  0  0  0  0  0  0  0  0  0  0
    0.7359   -1.2726    0.0000 O   0  0  0  0  0  0  0  0  0  0  0  0
    0.0215   -0.0351    0.0000 C   0  0  0  0  0  0  0  0  0  0  0  0
    0.0215    0.7899    0.0000 C   0  0  0  0  0  0  0  0  0  0  0  0
    2.1649    2.8524    0.0000 C   0  0  0  0  0  0  0  0  0  0  0  0
    2.1649    3.6774    0.0000 O   0  0  0  0  0  0  0  0  0  0  0  0
    2.8794    2.4399    0.0000 O   0  0  0  0  0  0  0  0  0  0  0  0
    1.1484    1.3130    0.0000 H   0  0  0  0  0  0  0  0  0  0  0  0
    2.2754    1.0110    0.0000 H   0  0  0  0  0  0  0  0  0  0  0  0
    2.5774    2.1380    0.0000 H   0  0  0  0  0  0  0  0  0  0  0  0
    1.4504    3.8689    0.0000 H   0  0  0  0  0  0  0  0  0  0  0  0
    0.2129    3.1544    0.0000 H   0  0  0  0  0  0  0  0  0  0  0  0
    0.2826    2.7167    0.0000 H   0  0  0  0  0  0  0  0  0  0  0  0
   -0.0877    2.0754    0.0000 H   0  0  0  0  0  0  0  0  0  0  0  0
    1.7661    1.5521    0.0000 H   0  0  0  0  0  0  0  0  0  0  0  0
    2.1649   -0.4476    0.0000 H   0  0  0  0  0  0  0  0  0  0  0  0
    0.0215   -1.6851    0.0000 H   0  0  0  0  0  0  0  0  0  0  0  0
   -0.6930   -0.4476    0.0000 H   0  0  0  0  0  0  0  0  0  0  0  0
   -0.6930    1.2024    0.0000 H   0  0  0  0  0  0  0  0  0  0  0  0
    2.8194    4.1797    0.0000 H   0  0  0  0  0  0  0  0  0  0  0  0
  1  2  1  0  0  0  0
  2  3  1  0  0  0  0
  2  4  1  0  0  0  0
  4  5  1  0  0  0  0
  5  6  4  0  0  0  0
  6  7  4  0  0  0  0
  7  8  4  0  0  0  0
  8  9  1  0  0  0  0
  8 10  4  0  0  0  0
 10 11  4  0  0  0  0
  5 11  4  0  0  0  0
  2 12  1  0  0  0  0
 12 13  1  0  0  0  0
 12 14  2  0  0  0  0
  1 15  1  0  0  0  0
  1 16  1  0  0  0  0
  1 17  1  0  0  0  0
  3 18  1  0  0  0  0
  3 19  1  0  0  0  0
  4 20  1  0  0  0  0
  4 21  1  0  0  0  0
  6 22  1  0  0  0  0
  7 23  1  0  0  0  0
  9 24  1  0  0  0  0
 10 25  1  0  0  0  0
 11 26  1  0  0  0  0
 13 27  1  0  0  0  0
M  END
>  <InChIKey>
InChI=1S/C10H13NO3/c1-10(11,9(13)14)6-7-2-4-8(12)5-3-7/h2-5,12H,6,11H2,1H3,(H,13,14)

>  <CASRN>
672-87-7

> <Outcome>
0

>  <Index>
2278

>  <StandardizerResult>
Dearomatize (ID: Dearomatize)
Clear Stereo (ID: ClearStereo)
Wedge Clean (ID: WedgeClean)
Mesomerize (ID: Mesomerize)
Tautomerize (ID: Tautomerize)
Aromatize (ID: Aromatize)
Add Explicit Hydrogens (ID: AddExplicitH)
Neutralize (ID: Neutralize)
Clean 2D (ID: Clean2D)

> <knn Distance>
4.12310552597046

> <CpId>
2278

$$$$
2326
  Mrv1532301301811342D          

 67 67  0  0  0  0            999 V2000
    8.0980   -8.7034    0.0000 C   0  0  0  0  0  0  0  0  0  0  0  0
    8.8125   -9.1159    0.0000 C   0  0  0  0  0  0  0  0  0  0  0  0
    9.5269   -8.7034    0.0000 C   0  0  0  0  0  0  0  0  0  0  0  0
   10.2414   -9.1159    0.0000 C   0  0  0  0  0  0  0  0  0  0  0  0
   10.9559   -8.7034    0.0000 C   0  0  0  0  0  0  0  0  0  0  0  0
   11.6704   -9.1159    0.0000 C   0  0  0  0  0  0  0  0  0  0  0  0
   12.3848   -8.7034    0.0000 C   0  0  0  0  0  0  0  0  0  0  0  0
   13.0993   -9.1159    0.0000 C   0  0  0  0  0  0  0  0  0  0  0  0
   13.8138   -8.7034    0.0000 C   0  0  0  0  0  0  0  0  0  0  0  0
   14.5282   -9.1159    0.0000 C   0  0  0  0  0  0  0  0  0  0  0  0
   15.2427   -8.7034    0.0000 C   0  0  0  0  0  0  0  0  0  0  0  0
   15.9572   -9.1159    0.0000 C   0  0  0  0  0  0  0  0  0  0  0  0
   16.6717   -8.7034    0.0000 C   0  0  0  0  0  0  0  0  0  0  0  0
   17.3861   -9.1159    0.0000 C   0  0  0  0  0  0  0  0  0  0  0  0
   18.1006   -8.7034    0.0000 C   0  0  0  0  0  0  0  0  0  0  0  0
   18.8151   -9.1159    0.0000 C   0  0  0  0  0  0  0  0  0  0  0  0
   18.8151   -9.9409    0.0000 O   0  0  0  0  0  0  0  0  0  0  0  0
   19.5295   -8.7034    0.0000 O   0  0  0  0  0  0  0  0  0  0  0  0
   20.2440   -9.1159    0.0000 C   0  0  0  0  0  0  0  0  0  0  0  0
   20.9585   -8.7034    0.0000 C   0  0  0  0  0  0  0  0  0  0  0  0
   20.9585   -7.8784    0.0000 O   0  0  0  0  0  0  0  0  0  0  0  0
   21.6730   -9.1159    0.0000 C   0  0  0  0  0  0  0  0  0  0  0  0
   22.4266   -8.7803    0.0000 C   0  0  0  0  0  0  0  0  0  0  0  0
   22.5982   -7.9733    0.0000 O   0  0  0  0  0  0  0  0  0  0  0  0
   22.9787   -9.3934    0.0000 C   0  0  0  0  0  0  0  0  0  0  0  0
   23.7991   -9.3072    0.0000 O   0  0  0  0  0  0  0  0  0  0  0  0
   22.5662  -10.1079    0.0000 C   0  0  0  0  0  0  0  0  0  0  0  0
   22.9017  -10.8616    0.0000 O   0  0  0  0  0  0  0  0  0  0  0  0
   21.7592   -9.9364    0.0000 O   0  0  0  0  0  0  0  0  0  0  0  0
    8.5105   -7.9889    0.0000 H   0  0  0  0  0  0  0  0  0  0  0  0
    7.3835   -8.2909    0.0000 H   0  0  0  0  0  0  0  0  0  0  0  0
    7.6855   -9.4179    0.0000 H   0  0  0  0  0  0  0  0  0  0  0  0
    8.4422   -9.8531    0.0000 H   0  0  0  0  0  0  0  0  0  0  0  0
    9.1827   -9.8531    0.0000 H   0  0  0  0  0  0  0  0  0  0  0  0
    9.8972   -7.9661    0.0000 H   0  0  0  0  0  0  0  0  0  0  0  0
    9.1567   -7.9661    0.0000 H   0  0  0  0  0  0  0  0  0  0  0  0
    9.8712   -9.8531    0.0000 H   0  0  0  0  0  0  0  0  0  0  0  0
   10.6117   -9.8531    0.0000 H   0  0  0  0  0  0  0  0  0  0  0  0
   11.3261   -7.9661    0.0000 H   0  0  0  0  0  0  0  0  0  0  0  0
   10.5856   -7.9661    0.0000 H   0  0  0  0  0  0  0  0  0  0  0  0
   11.3001   -9.8531    0.0000 H   0  0  0  0  0  0  0  0  0  0  0  0
   12.0406   -9.8531    0.0000 H   0  0  0  0  0  0  0  0  0  0  0  0
   12.7551   -7.9661    0.0000 H   0  0  0  0  0  0  0  0  0  0  0  0
   12.0146   -7.9661    0.0000 H   0  0  0  0  0  0  0  0  0  0  0  0
   12.7290   -9.8531    0.0000 H   0  0  0  0  0  0  0  0  0  0  0  0
   13.4696   -9.8531    0.0000 H   0  0  0  0  0  0  0  0  0  0  0  0
   14.1840   -7.9661    0.0000 H   0  0  0  0  0  0  0  0  0  0  0  0
   13.4435   -7.9661    0.0000 H   0  0  0  0  0  0  0  0  0  0  0  0
   14.1580   -9.8531    0.0000 H   0  0  0  0  0  0  0  0  0  0  0  0
   14.8985   -9.8531    0.0000 H   0  0  0  0  0  0  0  0  0  0  0  0
   15.6130   -7.9661    0.0000 H   0  0  0  0  0  0  0  0  0  0  0  0
   14.8725   -7.9661    0.0000 H   0  0  0  0  0  0  0  0  0  0  0  0
   15.5869   -9.8531    0.0000 H   0  0  0  0  0  0  0  0  0  0  0  0
   16.3274   -9.8531    0.0000 H   0  0  0  0  0  0  0  0  0  0  0  0
   17.0419   -7.9661    0.0000 H   0  0  0  0  0  0  0  0  0  0  0  0
   16.3014   -7.9661    0.0000 H   0  0  0  0  0  0  0  0  0  0  0  0
   17.0159   -9.8531    0.0000 H   0  0  0  0  0  0  0  0  0  0  0  0
   17.7564   -9.8531    0.0000 H   0  0  0  0  0  0  0  0  0  0  0  0
   18.4709   -7.9661    0.0000 H   0  0  0  0  0  0  0  0  0  0  0  0
   17.7303   -7.9661    0.0000 H   0  0  0  0  0  0  0  0  0  0  0  0
   19.8738   -9.8531    0.0000 H   0  0  0  0  0  0  0  0  0  0  0  0
   20.6143   -9.8531    0.0000 H   0  0  0  0  0  0  0  0  0  0  0  0
   23.3828   -7.7184    0.0000 H   0  0  0  0  0  0  0  0  0  0  0  0
   23.4280  -10.0853    0.0000 H   0  0  0  0  0  0  0  0  0  0  0  0
   24.4729   -8.8310    0.0000 H   0  0  0  0  0  0  0  0  0  0  0  0
   22.0470  -10.7490    0.0000 H   0  0  0  0  0  0  0  0  0  0  0  0
   23.2397  -11.6142    0.0000 H   0  0  0  0  0  0  0  0  0  0  0  0
  1  2  1  0  0  0  0
  2  3  1  0  0  0  0
  3  4  1  0  0  0  0
  4  5  1  0  0  0  0
  5  6  1  0  0  0  0
  6  7  1  0  0  0  0
  7  8  1  0  0  0  0
  8  9  1  0  0  0  0
  9 10  1  0  0  0  0
 10 11  1  0  0  0  0
 11 12  1  0  0  0  0
 12 13  1  0  0  0  0
 13 14  1  0  0  0  0
 14 15  1  0  0  0  0
 15 16  1  0  0  0  0
 16 17  2  0  0  0  0
 16 18  1  0  0  0  0
 18 19  1  0  0  0  0
 19 20  1  0  0  0  0
 20 21  2  0  0  0  0
 20 22  1  0  0  0  0
 22 23  2  0  0  0  0
 23 24  1  0  0  0  0
 23 25  1  0  0  0  0
 25 26  1  0  0  0  0
 25 27  1  0  0  0  0
 27 28  1  0  0  0  0
 27 29  1  0  0  0  0
 22 29  1  0  0  0  0
  1 30  1  0  0  0  0
  1 31  1  0  0  0  0
  1 32  1  0  0  0  0
  2 33  1  0  0  0  0
  2 34  1  0  0  0  0
  3 35  1  0  0  0  0
  3 36  1  0  0  0  0
  4 37  1  0  0  0  0
  4 38  1  0  0  0  0
  5 39  1  0  0  0  0
  5 40  1  0  0  0  0
  6 41  1  0  0  0  0
  6 42  1  0  0  0  0
  7 43  1  0  0  0  0
  7 44  1  0  0  0  0
  8 45  1  0  0  0  0
  8 46  1  0  0  0  0
  9 47  1  0  0  0  0
  9 48  1  0  0  0  0
 10 49  1  0  0  0  0
 10 50  1  0  0  0  0
 11 51  1  0  0  0  0
 11 52  1  0  0  0  0
 12 53  1  0  0  0  0
 12 54  1  0  0  0  0
 13 55  1  0  0  0  0
 13 56  1  0  0  0  0
 14 57  1  0  0  0  0
 14 58  1  0  0  0  0
 15 59  1  0  0  0  0
 15 60  1  0  0  0  0
 19 61  1  0  0  0  0
 19 62  1  0  0  0  0
 24 63  1  0  0  0  0
 25 64  1  0  0  0  0
 26 65  1  0  0  0  0
 27 66  1  0  0  0  0
 28 67  1  0  0  0  0
M  END
>  <InChIKey>
InChI=1S/C22H38O7/c1-2-3-4-5-6-7-8-9-10-11-12-13-14-15-18(24)28-16-17(23)21-19(25)20(26)22(27)29-21/h20,22,25-27H,2-16H2,1H3

>  <CASRN>
137-66-6

> <Outcome>
0

>  <Index>
2326

>  <StandardizerResult>
Clear Stereo (ID: ClearStereo)
Wedge Clean (ID: WedgeClean)
Mesomerize (ID: Mesomerize)
Tautomerize (ID: Tautomerize)
Add Explicit Hydrogens (ID: AddExplicitH)
Neutralize (ID: Neutralize)
Clean 2D (ID: Clean2D)

> <knn Distance>
4.12310552597046

> <CpId>
2326

$$$$
2405
  Mrv1532301301811342D          

 60 63  0  0  0  0            999 V2000
   -2.0548   -3.2561    0.0000 C   0  0  0  0  0  0  0  0  0  0  0  0
   -1.2427   -3.1109    0.0000 C   0  0  0  0  0  0  0  0  0  0  0  0
   -0.7109   -3.7416    0.0000 O   0  0  0  0  0  0  0  0  0  0  0  0
   -0.9624   -2.3350    0.0000 O   0  0  0  0  0  0  0  0  0  0  0  0
   -0.1503   -2.1897    0.0000 C   0  0  0  0  0  0  0  0  0  0  0  0
    0.1300   -1.4138    0.0000 C   0  0  0  0  0  0  0  0  0  0  0  0
    0.9421   -1.2686    0.0000 C   0  0  0  0  0  0  0  0  0  0  0  0
    1.4739   -1.8993    0.0000 C   0  0  0  0  0  0  0  0  0  0  0  0
    2.2861   -1.7541    0.0000 C   0  0  0  0  0  0  0  0  0  0  0  0
    2.5664   -0.9782    0.0000 C   0  0  0  0  0  0  0  0  0  0  0  0
    3.3785   -0.8330    0.0000 C   0  0  0  0  0  0  0  0  0  0  0  0
    3.9103   -1.4637    0.0000 C   0  0  0  0  0  0  0  0  0  0  0  0
    4.2702   -0.7213    0.0000 C   0  0  0  0  0  0  0  0  0  0  0  0
    3.6300   -2.2396    0.0000 C   0  0  0  0  0  0  0  0  0  0  0  0
    4.2813   -2.7459    0.0000 C   0  0  0  0  0  0  0  0  0  0  0  0
    4.9642   -2.2830    0.0000 C   0  0  0  0  0  0  0  0  0  0  0  0
    4.7349   -1.4905    0.0000 C   0  0  0  0  0  0  0  0  0  0  0  0
    5.4957   -1.1716    0.0000 O   0  0  0  0  0  0  0  0  0  0  0  0
    6.1523   -1.6711    0.0000 C   0  0  0  0  0  0  0  0  0  0  0  0
    6.9132   -1.3522    0.0000 C   0  0  0  0  0  0  0  0  0  0  0  0
    6.0481   -2.4895    0.0000 O   0  0  0  0  0  0  0  0  0  0  0  0
    4.8563   -0.6745    0.0000 C   0  0  0  0  0  0  0  0  0  0  0  0
    4.9777    0.1416    0.0000 C   0  0  0  0  0  0  0  0  0  0  0  0
    2.8179   -2.3848    0.0000 C   0  0  0  0  0  0  0  0  0  0  0  0
    2.5376   -3.1607    0.0000 C   0  0  0  0  0  0  0  0  0  0  0  0
    1.7255   -3.3059    0.0000 C   0  0  0  0  0  0  0  0  0  0  0  0
    1.1936   -2.6752    0.0000 C   0  0  0  0  0  0  0  0  0  0  0  0
    0.3815   -2.8205    0.0000 C   0  0  0  0  0  0  0  0  0  0  0  0
   -2.2001   -2.4440    0.0000 H   0  0  0  0  0  0  0  0  0  0  0  0
   -2.8670   -3.4013    0.0000 H   0  0  0  0  0  0  0  0  0  0  0  0
   -1.9096   -4.0682    0.0000 H   0  0  0  0  0  0  0  0  0  0  0  0
   -0.4306   -2.9657    0.0000 H   0  0  0  0  0  0  0  0  0  0  0  0
   -0.0622   -0.6115    0.0000 H   0  0  0  0  0  0  0  0  0  0  0  0
   -0.6283   -1.0889    0.0000 H   0  0  0  0  0  0  0  0  0  0  0  0
    1.5408   -0.7010    0.0000 H   0  0  0  0  0  0  0  0  0  0  0  0
    0.8444   -0.4494    0.0000 H   0  0  0  0  0  0  0  0  0  0  0  0
    2.0058   -2.5300    0.0000 H   0  0  0  0  0  0  0  0  0  0  0  0
    1.7542   -1.1234    0.0000 H   0  0  0  0  0  0  0  0  0  0  0  0
    2.7077   -0.1654    0.0000 H   0  0  0  0  0  0  0  0  0  0  0  0
    2.1521   -0.2647    0.0000 H   0  0  0  0  0  0  0  0  0  0  0  0
    3.6452   -0.0523    0.0000 H   0  0  0  0  0  0  0  0  0  0  0  0
    3.0982   -1.6089    0.0000 H   0  0  0  0  0  0  0  0  0  0  0  0
    4.9317   -0.2284    0.0000 H   0  0  0  0  0  0  0  0  0  0  0  0
    4.5684    0.0479    0.0000 H   0  0  0  0  0  0  0  0  0  0  0  0
    4.1137    0.0887    0.0000 H   0  0  0  0  0  0  0  0  0  0  0  0
    3.4323   -3.0406    0.0000 H   0  0  0  0  0  0  0  0  0  0  0  0
    4.3528   -3.5678    0.0000 H   0  0  0  0  0  0  0  0  0  0  0  0
    4.8973   -3.2947    0.0000 H   0  0  0  0  0  0  0  0  0  0  0  0
    5.5177   -2.8947    0.0000 H   0  0  0  0  0  0  0  0  0  0  0  0
    5.7809   -2.1662    0.0000 H   0  0  0  0  0  0  0  0  0  0  0  0
    7.2321   -2.1131    0.0000 H   0  0  0  0  0  0  0  0  0  0  0  0
    7.6741   -1.0334    0.0000 H   0  0  0  0  0  0  0  0  0  0  0  0
    6.5943   -0.5913    0.0000 H   0  0  0  0  0  0  0  0  0  0  0  0
    5.5790    0.7064    0.0000 H   0  0  0  0  0  0  0  0  0  0  0  0
    2.9843   -3.1928    0.0000 H   0  0  0  0  0  0  0  0  0  0  0  0
    2.1940   -3.9108    0.0000 H   0  0  0  0  0  0  0  0  0  0  0  0
    2.9580   -3.8706    0.0000 H   0  0  0  0  0  0  0  0  0  0  0  0
    0.9114   -3.4399    0.0000 H   0  0  0  0  0  0  0  0  0  0  0  0
    1.4238   -4.0738    0.0000 H   0  0  0  0  0  0  0  0  0  0  0  0
    0.1040   -3.5974    0.0000 H   0  0  0  0  0  0  0  0  0  0  0  0
  1  2  1  0  0  0  0
  2  3  2  0  0  0  0
  2  4  1  0  0  0  0
  4  5  1  0  0  0  0
  5  6  1  0  0  0  0
  6  7  1  0  0  0  0
  7  8  1  0  0  0  0
  8  9  1  0  0  0  0
  9 10  1  0  0  0  0
 10 11  1  0  0  0  0
 11 12  1  0  0  0  0
 12 13  1  0  0  0  0
 12 14  1  0  0  0  0
 14 15  1  0  0  0  0
 15 16  1  0  0  0  0
 16 17  1  0  0  0  0
 12 17  1  0  0  0  0
 17 18  1  0  0  0  0
 18 19  1  0  0  0  0
 19 20  1  0  0  0  0
 19 21  2  0  0  0  0
 17 22  1  0  0  0  0
 22 23  3  0  0  0  0
 14 24  1  0  0  0  0
  9 24  1  0  0  0  0
 24 25  1  0  0  0  0
 25 26  1  0  0  0  0
 26 27  1  0  0  0  0
  8 27  1  0  0  0  0
 27 28  2  0  0  0  0
  5 28  1  0  0  0  0
  1 29  1  0  0  0  0
  1 30  1  0  0  0  0
  1 31  1  0  0  0  0
  5 32  1  0  0  0  0
  6 33  1  0  0  0  0
  6 34  1  0  0  0  0
  7 35  1  0  0  0  0
  7 36  1  0  0  0  0
  8 37  1  0  0  0  0
  9 38  1  0  0  0  0
 10 39  1  0  0  0  0
 10 40  1  0  0  0  0
 11 41  1  0  0  0  0
 11 42  1  0  0  0  0
 13 43  1  0  0  0  0
 13 44  1  0  0  0  0
 13 45  1  0  0  0  0
 14 46  1  0  0  0  0
 15 47  1  0  0  0  0
 15 48  1  0  0  0  0
 16 49  1  0  0  0  0
 16 50  1  0  0  0  0
 20 51  1  0  0  0  0
 20 52  1  0  0  0  0
 20 53  1  0  0  0  0
 23 54  1  0  0  0  0
 24 55  1  0  0  0  0
 25 56  1  0  0  0  0
 25 57  1  0  0  0  0
 26 58  1  0  0  0  0
 26 59  1  0  0  0  0
 28 60  1  0  0  0  0
M  END
>  <InChIKey>
InChI=1S/C24H32O4/c1-5-24(28-16(3)26)13-11-22-21-8-6-17-14-18(27-15(2)25)7-9-19(17)20(21)10-12-23(22,24)4/h1,14,18-22H,6-13H2,2-4H3

>  <CASRN>
297-76-7

> <Outcome>
0

>  <Index>
2405

>  <StandardizerResult>
Clear Stereo (ID: ClearStereo)
Wedge Clean (ID: WedgeClean)
Mesomerize (ID: Mesomerize)
Tautomerize (ID: Tautomerize)
Add Explicit Hydrogens (ID: AddExplicitH)
Neutralize (ID: Neutralize)
Clean 2D (ID: Clean2D)

> <knn Distance>
4.12310552597046

> <CpId>
2405

$$$$
2441
  Mrv1532301301811342D          

 44 46  0  0  0  0            999 V2000
    1.5004   -0.0268    0.0000 C   0  0  0  0  0  0  0  0  0  0  0  0
    0.7859   -0.4393    0.0000 N   0  0  0  0  0  0  0  0  0  0  0  0
    0.7859   -1.2643    0.0000 C   0  0  0  0  0  0  0  0  0  0  0  0
    0.0715   -1.6768    0.0000 C   0  0  0  0  0  0  0  0  0  0  0  0
   -0.6430   -1.2643    0.0000 C   0  0  0  0  0  0  0  0  0  0  0  0
   -0.6430   -0.4393    0.0000 C   0  0  0  0  0  0  0  0  0  0  0  0
    0.0715   -0.0268    0.0000 C   0  0  0  0  0  0  0  0  0  0  0  0
   -1.3575   -1.6768    0.0000 O   0  0  0  0  0  0  0  0  0  0  0  0
   -1.3575   -2.5018    0.0000 C   0  0  0  0  0  0  0  0  0  0  0  0
   -2.0719   -2.9143    0.0000 C   0  0  0  0  0  0  0  0  0  0  0  0
   -2.0719   -3.7393    0.0000 C   0  0  0  0  0  0  0  0  0  0  0  0
   -2.7864   -4.1518    0.0000 C   0  0  0  0  0  0  0  0  0  0  0  0
   -3.5009   -3.7393    0.0000 C   0  0  0  0  0  0  0  0  0  0  0  0
   -3.5009   -2.9143    0.0000 C   0  0  0  0  0  0  0  0  0  0  0  0
   -2.7864   -2.5018    0.0000 C   0  0  0  0  0  0  0  0  0  0  0  0
   -0.6430   -2.9143    0.0000 C   0  0  0  0  0  0  0  0  0  0  0  0
    0.0715   -2.5018    0.0000 C   0  0  0  0  0  0  0  0  0  0  0  0
    0.7859   -2.9143    0.0000 C   0  0  0  0  0  0  0  0  0  0  0  0
    0.7859   -3.7393    0.0000 C   0  0  0  0  0  0  0  0  0  0  0  0
    0.0715   -4.1518    0.0000 C   0  0  0  0  0  0  0  0  0  0  0  0
   -0.6430   -3.7393    0.0000 C   0  0  0  0  0  0  0  0  0  0  0  0
    1.9129   -0.7412    0.0000 H   0  0  0  0  0  0  0  0  0  0  0  0
    2.2149    0.3857    0.0000 H   0  0  0  0  0  0  0  0  0  0  0  0
    1.0879    0.6877    0.0000 H   0  0  0  0  0  0  0  0  0  0  0  0
    1.2393   -1.9535    0.0000 H   0  0  0  0  0  0  0  0  0  0  0  0
    1.6095   -1.3122    0.0000 H   0  0  0  0  0  0  0  0  0  0  0  0
   -0.6430   -2.0893    0.0000 H   0  0  0  0  0  0  0  0  0  0  0  0
    0.0715   -0.8518    0.0000 H   0  0  0  0  0  0  0  0  0  0  0  0
   -1.3575   -0.8518    0.0000 H   0  0  0  0  0  0  0  0  0  0  0  0
   -0.7863    0.3732    0.0000 H   0  0  0  0  0  0  0  0  0  0  0  0
   -1.2750    0.0910    0.0000 H   0  0  0  0  0  0  0  0  0  0  0  0
    0.6851    0.5247    0.0000 H   0  0  0  0  0  0  0  0  0  0  0  0
    0.1712    0.7922    0.0000 H   0  0  0  0  0  0  0  0  0  0  0  0
   -2.0719   -2.0893    0.0000 H   0  0  0  0  0  0  0  0  0  0  0  0
   -1.3575   -4.1518    0.0000 H   0  0  0  0  0  0  0  0  0  0  0  0
   -2.7864   -4.9768    0.0000 H   0  0  0  0  0  0  0  0  0  0  0  0
   -4.2154   -4.1518    0.0000 H   0  0  0  0  0  0  0  0  0  0  0  0
   -4.2154   -2.5018    0.0000 H   0  0  0  0  0  0  0  0  0  0  0  0
   -3.1989   -1.7873    0.0000 H   0  0  0  0  0  0  0  0  0  0  0  0
    0.7859   -2.0893    0.0000 H   0  0  0  0  0  0  0  0  0  0  0  0
    1.6109   -2.9143    0.0000 H   0  0  0  0  0  0  0  0  0  0  0  0
    1.5004   -4.1518    0.0000 H   0  0  0  0  0  0  0  0  0  0  0  0
    0.0715   -4.9768    0.0000 H   0  0  0  0  0  0  0  0  0  0  0  0
   -1.3575   -3.3268    0.0000 H   0  0  0  0  0  0  0  0  0  0  0  0
  1  2  1  0  0  0  0
  2  3  1  0  0  0  0
  3  4  1  0  0  0  0
  4  5  1  0  0  0  0
  5  6  1  0  0  0  0
  6  7  1  0  0  0  0
  2  7  1  0  0  0  0
  5  8  1  0  0  0  0
  8  9  1  0  0  0  0
  9 10  1  0  0  0  0
 10 11  4  0  0  0  0
 11 12  4  0  0  0  0
 12 13  4  0  0  0  0
 13 14  4  0  0  0  0
 14 15  4  0  0  0  0
 10 15  4  0  0  0  0
  9 16  1  0  0  0  0
 16 17  4  0  0  0  0
 17 18  4  0  0  0  0
 18 19  4  0  0  0  0
 19 20  4  0  0  0  0
 20 21  4  0  0  0  0
 16 21  4  0  0  0  0
  1 22  1  0  0  0  0
  1 23  1  0  0  0  0
  1 24  1  0  0  0  0
  3 25  1  0  0  0  0
  3 26  1  0  0  0  0
  4 27  1  0  0  0  0
  4 28  1  0  0  0  0
  5 29  1  0  0  0  0
  6 30  1  0  0  0  0
  6 31  1  0  0  0  0
  7 32  1  0  0  0  0
  7 33  1  0  0  0  0
  9 34  1  0  0  0  0
 11 35  1  0  0  0  0
 12 36  1  0  0  0  0
 13 37  1  0  0  0  0
 14 38  1  0  0  0  0
 15 39  1  0  0  0  0
 17 40  1  0  0  0  0
 18 41  1  0  0  0  0
 19 42  1  0  0  0  0
 20 43  1  0  0  0  0
 21 44  1  0  0  0  0
M  END
>  <InChIKey>
InChI=1S/C19H23NO/c1-20-14-12-18(13-15-20)21-19(16-8-4-2-5-9-16)17-10-6-3-7-11-17/h2-11,18-19H,12-15H2,1H3

>  <CASRN>
147-20-6

> <Outcome>
0

>  <Index>
2441

>  <StandardizerResult>
Dearomatize (ID: Dearomatize)
Clear Stereo (ID: ClearStereo)
Wedge Clean (ID: WedgeClean)
Mesomerize (ID: Mesomerize)
Tautomerize (ID: Tautomerize)
Aromatize (ID: Aromatize)
Add Explicit Hydrogens (ID: AddExplicitH)
Neutralize (ID: Neutralize)
Clean 2D (ID: Clean2D)

> <knn Distance>
4.12310552597046

> <CpId>
2441

$$$$
2481
  Mrv1532301301811342D          

 26 25  0  0  0  0            999 V2000
    0.3981    3.7139    0.0000 C   0  0  0  0  0  0  0  0  0  0  0  0
    0.8106    2.9995    0.0000 N   0  3  0  0  0  0  0  0  0  0  0  0
    0.0961    2.5870    0.0000 C   0  0  0  0  0  0  0  0  0  0  0  0
    1.5250    3.4120    0.0000 C   0  0  0  0  0  0  0  0  0  0  0  0
    1.2231    2.2850    0.0000 C   0  0  0  0  0  0  0  0  0  0  0  0
    0.8106    1.5705    0.0000 C   0  0  0  0  0  0  0  0  0  0  0  0
   -0.0144    1.5705    0.0000 O   0  0  0  0  0  0  0  0  0  0  0  0
    1.2231    0.8561    0.0000 C   0  0  0  0  0  0  0  0  0  0  0  0
    0.8106    0.1416    0.0000 C   0  0  0  0  0  0  0  0  0  0  0  0
    1.2231   -0.5729    0.0000 O   0  5  0  0  0  0  0  0  0  0  0  0
   -0.0144    0.1416    0.0000 O   0  0  0  0  0  0  0  0  0  0  0  0
    1.1125    4.1264    0.0000 H   0  0  0  0  0  0  0  0  0  0  0  0
   -0.0144    4.4284    0.0000 H   0  0  0  0  0  0  0  0  0  0  0  0
   -0.3164    3.3014    0.0000 H   0  0  0  0  0  0  0  0  0  0  0  0
   -0.7219    2.4793    0.0000 H   0  0  0  0  0  0  0  0  0  0  0  0
   -0.1174    1.7901    0.0000 H   0  0  0  0  0  0  0  0  0  0  0  0
    0.7506    2.0847    0.0000 H   0  0  0  0  0  0  0  0  0  0  0  0
    1.6327    2.5940    0.0000 H   0  0  0  0  0  0  0  0  0  0  0  0
    2.3219    3.1985    0.0000 H   0  0  0  0  0  0  0  0  0  0  0  0
    2.0273    4.0665    0.0000 H   0  0  0  0  0  0  0  0  0  0  0  0
    1.5367    1.5219    0.0000 H   0  0  0  0  0  0  0  0  0  0  0  0
    2.0188    2.0671    0.0000 H   0  0  0  0  0  0  0  0  0  0  0  0
    0.3981    0.8561    0.0000 H   0  0  0  0  0  0  0  0  0  0  0  0
   -0.7458    1.1887    0.0000 H   0  0  0  0  0  0  0  0  0  0  0  0
    1.7736    0.2416    0.0000 H   0  0  0  0  0  0  0  0  0  0  0  0
    2.0418    0.7544    0.0000 H   0  0  0  0  0  0  0  0  0  0  0  0
  1  2  1  0  0  0  0
  2  3  1  0  0  0  0
  2  4  1  0  0  0  0
  2  5  1  0  0  0  0
  5  6  1  0  0  0  0
  6  7  1  0  0  0  0
  6  8  1  0  0  0  0
  8  9  1  0  0  0  0
  9 10  1  0  0  0  0
  9 11  2  0  0  0  0
  1 12  1  0  0  0  0
  1 13  1  0  0  0  0
  1 14  1  0  0  0  0
  3 15  1  0  0  0  0
  3 16  1  0  0  0  0
  3 17  1  0  0  0  0
  4 18  1  0  0  0  0
  4 19  1  0  0  0  0
  4 20  1  0  0  0  0
  5 21  1  0  0  0  0
  5 22  1  0  0  0  0
  6 23  1  0  0  0  0
  7 24  1  0  0  0  0
  8 25  1  0  0  0  0
  8 26  1  0  0  0  0
M  CHG  2   2   1  10  -1
M  END
>  <InChIKey>
InChI=1S/C7H15NO3/c1-8(2,3)5-6(9)4-7(10)11/h6,9H,4-5H2,1-3H3

>  <CASRN>
541-15-1

> <Outcome>
0

>  <Index>
2481

>  <StandardizerResult>
Clear Stereo (ID: ClearStereo)
Wedge Clean (ID: WedgeClean)
Mesomerize (ID: Mesomerize)
Tautomerize (ID: Tautomerize)
Add Explicit Hydrogens (ID: AddExplicitH)
Clean 2D (ID: Clean2D)

> <knn Distance>
4.12310552597046

> <CpId>
2481

$$$$
2508
  Mrv1532301301811342D          

 23 24  0  0  0  0            999 V2000
   -0.6523    8.8051    0.0000 Cl  0  0  0  0  0  0  0  0  0  0  0  0
   -0.6523    7.9801    0.0000 C   0  0  0  0  0  0  0  0  0  0  0  0
    0.0621    7.5676    0.0000 C   0  0  0  0  0  0  0  0  0  0  0  0
    0.0621    6.7426    0.0000 C   0  0  0  0  0  0  0  0  0  0  0  0
   -0.6523    6.3301    0.0000 C   0  0  0  0  0  0  0  0  0  0  0  0
   -0.6523    5.5051    0.0000 N   0  0  0  0  0  0  0  0  0  0  0  0
    0.0621    5.0926    0.0000 C   0  0  0  0  0  0  0  0  0  0  0  0
    0.7766    5.5051    0.0000 O   0  0  0  0  0  0  0  0  0  0  0  0
    0.0621    4.2676    0.0000 C   0  0  0  0  0  0  0  0  0  0  0  0
    0.4746    3.5531    0.0000 C   0  0  0  0  0  0  0  0  0  0  0  0
   -0.3504    3.5531    0.0000 C   0  0  0  0  0  0  0  0  0  0  0  0
   -1.3668    6.7426    0.0000 C   0  0  0  0  0  0  0  0  0  0  0  0
   -1.3668    7.5676    0.0000 C   0  0  0  0  0  0  0  0  0  0  0  0
   -2.0813    7.9801    0.0000 Cl  0  0  0  0  0  0  0  0  0  0  0  0
    0.7766    7.9801    0.0000 H   0  0  0  0  0  0  0  0  0  0  0  0
    0.7766    6.3301    0.0000 H   0  0  0  0  0  0  0  0  0  0  0  0
   -1.3668    5.0926    0.0000 H   0  0  0  0  0  0  0  0  0  0  0  0
   -0.7348    4.4811    0.0000 H   0  0  0  0  0  0  0  0  0  0  0  0
    0.8449    2.8158    0.0000 H   0  0  0  0  0  0  0  0  0  0  0  0
    1.2982    3.6011    0.0000 H   0  0  0  0  0  0  0  0  0  0  0  0
   -1.1740    3.6011    0.0000 H   0  0  0  0  0  0  0  0  0  0  0  0
   -0.7206    2.8158    0.0000 H   0  0  0  0  0  0  0  0  0  0  0  0
   -2.0813    6.3301    0.0000 H   0  0  0  0  0  0  0  0  0  0  0  0
  1  2  1  0  0  0  0
  2  3  4  0  0  0  0
  3  4  4  0  0  0  0
  4  5  4  0  0  0  0
  5  6  1  0  0  0  0
  6  7  1  0  0  0  0
  7  8  2  0  0  0  0
  7  9  1  0  0  0  0
  9 10  1  0  0  0  0
 10 11  1  0  0  0  0
  9 11  1  0  0  0  0
  5 12  4  0  0  0  0
 12 13  4  0  0  0  0
  2 13  4  0  0  0  0
 13 14  1  0  0  0  0
  3 15  1  0  0  0  0
  4 16  1  0  0  0  0
  6 17  1  0  0  0  0
  9 18  1  0  0  0  0
 10 19  1  0  0  0  0
 10 20  1  0  0  0  0
 11 21  1  0  0  0  0
 11 22  1  0  0  0  0
 12 23  1  0  0  0  0
M  END
>  <InChIKey>
InChI=1S/C10H9Cl2NO/c11-8-4-3-7(5-9(8)12)13-10(14)6-1-2-6/h3-6H,1-2H2,(H,13,14)

>  <CASRN>
2759-71-9

> <Outcome>
0

>  <Index>
2508

>  <StandardizerResult>
Dearomatize (ID: Dearomatize)
Clear Stereo (ID: ClearStereo)
Wedge Clean (ID: WedgeClean)
Mesomerize (ID: Mesomerize)
Tautomerize (ID: Tautomerize)
Aromatize (ID: Aromatize)
Add Explicit Hydrogens (ID: AddExplicitH)
Neutralize (ID: Neutralize)
Clean 2D (ID: Clean2D)

> <knn Distance>
4.12310552597046

> <CpId>
2508

$$$$
2538
  Mrv1532301301811342D          

 62 65  0  0  0  0            999 V2000
    1.5841    2.4787    0.0000 C   0  0  0  0  0  0  0  0  0  0  0  0
    1.8644    1.7028    0.0000 C   0  0  0  0  0  0  0  0  0  0  0  0
    2.6765    1.5576    0.0000 C   0  0  0  0  0  0  0  0  0  0  0  0
    2.9568    0.7816    0.0000 C   0  0  0  0  0  0  0  0  0  0  0  0
    3.7689    0.6364    0.0000 C   0  0  0  0  0  0  0  0  0  0  0  0
    4.4202    1.1428    0.0000 C   0  0  0  0  0  0  0  0  0  0  0  0
    5.1031    0.6798    0.0000 C   0  0  0  0  0  0  0  0  0  0  0  0
    4.8738   -0.1127    0.0000 C   0  0  0  0  0  0  0  0  0  0  0  0
    4.8143   -0.9355    0.0000 O   0  0  0  0  0  0  0  0  0  0  0  0
    5.4971   -1.3985    0.0000 C   0  0  0  0  0  0  0  0  0  0  0  0
    5.4376   -2.2214    0.0000 C   0  0  0  0  0  0  0  0  0  0  0  0
    6.2395   -1.0387    0.0000 O   0  0  0  0  0  0  0  0  0  0  0  0
    5.6859   -0.2579    0.0000 C   0  0  0  0  0  0  0  0  0  0  0  0
    6.2177    0.3728    0.0000 C   0  0  0  0  0  0  0  0  0  0  0  0
    6.3687   -0.7209    0.0000 O   0  0  0  0  0  0  0  0  0  0  0  0
    4.0492   -0.1395    0.0000 C   0  0  0  0  0  0  0  0  0  0  0  0
    4.4091   -0.8819    0.0000 C   0  0  0  0  0  0  0  0  0  0  0  0
    3.5174   -0.7702    0.0000 C   0  0  0  0  0  0  0  0  0  0  0  0
    2.7053   -0.6250    0.0000 C   0  0  0  0  0  0  0  0  0  0  0  0
    2.4250    0.1509    0.0000 C   0  0  0  0  0  0  0  0  0  0  0  0
    1.6129    0.2961    0.0000 C   0  0  0  0  0  0  0  0  0  0  0  0
    1.8932   -0.4798    0.0000 C   0  0  0  0  0  0  0  0  0  0  0  0
    1.0810   -0.3346    0.0000 C   0  0  0  0  0  0  0  0  0  0  0  0
    0.2689   -0.1893    0.0000 C   0  0  0  0  0  0  0  0  0  0  0  0
   -0.0114    0.5866    0.0000 C   0  0  0  0  0  0  0  0  0  0  0  0
   -0.8235    0.7318    0.0000 O   0  0  0  0  0  0  0  0  0  0  0  0
    0.5204    1.2173    0.0000 C   0  0  0  0  0  0  0  0  0  0  0  0
    1.3326    1.0721    0.0000 C   0  0  0  0  0  0  0  0  0  0  0  0
    2.3600    2.7590    0.0000 H   0  0  0  0  0  0  0  0  0  0  0  0
    1.3038    3.2546    0.0000 H   0  0  0  0  0  0  0  0  0  0  0  0
    0.8082    2.1984    0.0000 H   0  0  0  0  0  0  0  0  0  0  0  0
    1.0523    1.8480    0.0000 H   0  0  0  0  0  0  0  0  0  0  0  0
    3.4348    1.8825    0.0000 H   0  0  0  0  0  0  0  0  0  0  0  0
    2.8687    2.3599    0.0000 H   0  0  0  0  0  0  0  0  0  0  0  0
    3.2371    0.0057    0.0000 H   0  0  0  0  0  0  0  0  0  0  0  0
    3.5713    1.4374    0.0000 H   0  0  0  0  0  0  0  0  0  0  0  0
    5.0363    1.6915    0.0000 H   0  0  0  0  0  0  0  0  0  0  0  0
    4.4917    1.9647    0.0000 H   0  0  0  0  0  0  0  0  0  0  0  0
    5.9198    0.5630    0.0000 H   0  0  0  0  0  0  0  0  0  0  0  0
    5.6566    1.2916    0.0000 H   0  0  0  0  0  0  0  0  0  0  0  0
    4.6147   -2.1618    0.0000 H   0  0  0  0  0  0  0  0  0  0  0  0
    5.3780   -3.0442    0.0000 H   0  0  0  0  0  0  0  0  0  0  0  0
    6.2604   -2.2809    0.0000 H   0  0  0  0  0  0  0  0  0  0  0  0
    6.6209   -0.3470    0.0000 H   0  0  0  0  0  0  0  0  0  0  0  0
    7.0333    0.4969    0.0000 H   0  0  0  0  0  0  0  0  0  0  0  0
    6.3886    1.1799    0.0000 H   0  0  0  0  0  0  0  0  0  0  0  0
    3.7569   -1.3871    0.0000 H   0  0  0  0  0  0  0  0  0  0  0  0
    4.3037   -1.7001    0.0000 H   0  0  0  0  0  0  0  0  0  0  0  0
    4.9120   -1.5359    0.0000 H   0  0  0  0  0  0  0  0  0  0  0  0
    2.8052   -1.1866    0.0000 H   0  0  0  0  0  0  0  0  0  0  0  0
    3.2456   -1.5492    0.0000 H   0  0  0  0  0  0  0  0  0  0  0  0
    1.9676   -0.9944    0.0000 H   0  0  0  0  0  0  0  0  0  0  0  0
    2.3352   -1.3623    0.0000 H   0  0  0  0  0  0  0  0  0  0  0  0
    2.1447    0.9269    0.0000 H   0  0  0  0  0  0  0  0  0  0  0  0
    1.1040   -0.7204    0.0000 H   0  0  0  0  0  0  0  0  0  0  0  0
    1.3002   -1.0534    0.0000 H   0  0  0  0  0  0  0  0  0  0  0  0
    1.6265   -1.2605    0.0000 H   0  0  0  0  0  0  0  0  0  0  0  0
    0.8007    0.4414    0.0000 H   0  0  0  0  0  0  0  0  0  0  0  0
    0.4644   -0.8827    0.0000 H   0  0  0  0  0  0  0  0  0  0  0  0
   -0.5395   -0.0247    0.0000 H   0  0  0  0  0  0  0  0  0  0  0  0
   -0.2925   -0.7939    0.0000 H   0  0  0  0  0  0  0  0  0  0  0  0
   -0.1103    1.7491    0.0000 H   0  0  0  0  0  0  0  0  0  0  0  0
  1  2  1  0  0  0  0
  2  3  1  0  0  0  0
  3  4  1  0  0  0  0
  4  5  1  0  0  0  0
  5  6  1  0  0  0  0
  6  7  1  0  0  0  0
  7  8  1  0  0  0  0
  8  9  1  0  0  0  0
  9 10  1  0  0  0  0
 10 11  1  0  0  0  0
 10 12  2  0  0  0  0
  8 13  1  0  0  0  0
 13 14  1  0  0  0  0
 13 15  2  0  0  0  0
  8 16  1  0  0  0  0
  5 16  1  0  0  0  0
 16 17  1  0  0  0  0
 16 18  1  0  0  0  0
 18 19  1  0  0  0  0
 19 20  1  0  0  0  0
  4 20  1  0  0  0  0
 20 21  1  0  0  0  0
 21 22  1  0  0  0  0
 21 23  1  0  0  0  0
 23 24  1  0  0  0  0
 24 25  1  0  0  0  0
 25 26  2  0  0  0  0
 25 27  1  0  0  0  0
 27 28  2  0  0  0  0
  2 28  1  0  0  0  0
 21 28  1  0  0  0  0
  1 29  1  0  0  0  0
  1 30  1  0  0  0  0
  1 31  1  0  0  0  0
  2 32  1  0  0  0  0
  3 33  1  0  0  0  0
  3 34  1  0  0  0  0
  4 35  1  0  0  0  0
  5 36  1  0  0  0  0
  6 37  1  0  0  0  0
  6 38  1  0  0  0  0
  7 39  1  0  0  0  0
  7 40  1  0  0  0  0
 11 41  1  0  0  0  0
 11 42  1  0  0  0  0
 11 43  1  0  0  0  0
 14 44  1  0  0  0  0
 14 45  1  0  0  0  0
 14 46  1  0  0  0  0
 17 47  1  0  0  0  0
 17 48  1  0  0  0  0
 17 49  1  0  0  0  0
 18 50  1  0  0  0  0
 18 51  1  0  0  0  0
 19 52  1  0  0  0  0
 19 53  1  0  0  0  0
 20 54  1  0  0  0  0
 22 55  1  0  0  0  0
 22 56  1  0  0  0  0
 22 57  1  0  0  0  0
 23 58  1  0  0  0  0
 23 59  1  0  0  0  0
 24 60  1  0  0  0  0
 24 61  1  0  0  0  0
 27 62  1  0  0  0  0
M  END
>  <InChIKey>
InChI=1S/C24H34O4/c1-14-12-18-19(22(4)9-6-17(27)13-21(14)22)7-10-23(5)20(18)8-11-24(23,15(2)25)28-16(3)26/h13-14,18-20H,6-12H2,1-5H3

>  <CASRN>
71-58-9

> <Outcome>
0

>  <Index>
2538

>  <StandardizerResult>
Clear Stereo (ID: ClearStereo)
Wedge Clean (ID: WedgeClean)
Mesomerize (ID: Mesomerize)
Tautomerize (ID: Tautomerize)
Add Explicit Hydrogens (ID: AddExplicitH)
Neutralize (ID: Neutralize)
Clean 2D (ID: Clean2D)

> <knn Distance>
4.12310552597046

> <CpId>
2538

$$$$
2544
  Mrv1532301301811342D          

 57 58  0  0  0  0            999 V2000
   -0.3776   -9.5699    0.0000 C   0  0  0  0  0  0  0  0  0  0  0  0
    0.3369   -9.1574    0.0000 O   0  0  0  0  0  0  0  0  0  0  0  0
    1.0513   -9.5699    0.0000 C   0  0  0  0  0  0  0  0  0  0  0  0
    1.0513  -10.3949    0.0000 O   0  0  0  0  0  0  0  0  0  0  0  0
    1.7658   -9.1574    0.0000 C   0  0  0  0  0  0  0  0  0  0  0  0
    2.4803   -9.5699    0.0000 C   0  0  0  0  0  0  0  0  0  0  0  0
    3.1947   -9.1574    0.0000 C   0  0  0  0  0  0  0  0  0  0  0  0
    3.9092   -9.5699    0.0000 C   0  0  0  0  0  0  0  0  0  0  0  0
    4.6237   -9.9824    0.0000 C   0  0  0  0  0  0  0  0  0  0  0  0
    5.3382   -9.5699    0.0000 C   0  0  0  0  0  0  0  0  0  0  0  0
    6.0526   -9.9824    0.0000 C   0  0  0  0  0  0  0  0  0  0  0  0
    6.8063   -9.6468    0.0000 C   0  0  0  0  0  0  0  0  0  0  0  0
    6.9778   -8.8398    0.0000 C   0  0  0  0  0  0  0  0  0  0  0  0
    7.7625   -8.5849    0.0000 C   0  0  0  0  0  0  0  0  0  0  0  0
    7.9340   -7.7779    0.0000 C   0  0  0  0  0  0  0  0  0  0  0  0
    7.3209   -7.2259    0.0000 O   0  0  0  0  0  0  0  0  0  0  0  0
    8.7186   -7.5230    0.0000 C   0  0  0  0  0  0  0  0  0  0  0  0
    8.8901   -6.7160    0.0000 O   0  0  0  0  0  0  0  0  0  0  0  0
    9.6747   -6.4611    0.0000 C   0  0  0  0  0  0  0  0  0  0  0  0
    9.8463   -5.6541    0.0000 C   0  0  0  0  0  0  0  0  0  0  0  0
   10.6309   -5.3992    0.0000 C   0  0  0  0  0  0  0  0  0  0  0  0
   11.2440   -5.9512    0.0000 C   0  0  0  0  0  0  0  0  0  0  0  0
   11.0725   -6.7582    0.0000 C   0  0  0  0  0  0  0  0  0  0  0  0
   10.2878   -7.0131    0.0000 C   0  0  0  0  0  0  0  0  0  0  0  0
    7.3583  -10.2599    0.0000 C   0  0  0  0  0  0  0  0  0  0  0  0
    8.1788  -10.1737    0.0000 O   0  0  0  0  0  0  0  0  0  0  0  0
    6.9458  -10.9744    0.0000 C   0  0  0  0  0  0  0  0  0  0  0  0
    6.1389  -10.8028    0.0000 C   0  0  0  0  0  0  0  0  0  0  0  0
    5.5258  -11.3549    0.0000 O   0  0  0  0  0  0  0  0  0  0  0  0
   -0.7901   -8.8554    0.0000 H   0  0  0  0  0  0  0  0  0  0  0  0
   -1.0921   -9.9824    0.0000 H   0  0  0  0  0  0  0  0  0  0  0  0
    0.0349  -10.2843    0.0000 H   0  0  0  0  0  0  0  0  0  0  0  0
    2.1361   -8.4201    0.0000 H   0  0  0  0  0  0  0  0  0  0  0  0
    1.3955   -8.4201    0.0000 H   0  0  0  0  0  0  0  0  0  0  0  0
    2.1100  -10.3071    0.0000 H   0  0  0  0  0  0  0  0  0  0  0  0
    2.8505  -10.3071    0.0000 H   0  0  0  0  0  0  0  0  0  0  0  0
    3.1947   -8.3324    0.0000 H   0  0  0  0  0  0  0  0  0  0  0  0
    4.6237  -10.8074    0.0000 H   0  0  0  0  0  0  0  0  0  0  0  0
    5.7084   -8.8326    0.0000 H   0  0  0  0  0  0  0  0  0  0  0  0
    4.9679   -8.8326    0.0000 H   0  0  0  0  0  0  0  0  0  0  0  0
    5.3607  -10.4317    0.0000 H   0  0  0  0  0  0  0  0  0  0  0  0
    6.1652   -9.1276    0.0000 H   0  0  0  0  0  0  0  0  0  0  0  0
    6.7126   -8.0586    0.0000 H   0  0  0  0  0  0  0  0  0  0  0  0
    8.3755   -9.1369    0.0000 H   0  0  0  0  0  0  0  0  0  0  0  0
    7.1494   -8.0329    0.0000 H   0  0  0  0  0  0  0  0  0  0  0  0
    7.0659   -6.4413    0.0000 H   0  0  0  0  0  0  0  0  0  0  0  0
    9.0187   -8.2914    0.0000 H   0  0  0  0  0  0  0  0  0  0  0  0
    9.5142   -7.7411    0.0000 H   0  0  0  0  0  0  0  0  0  0  0  0
    9.2332   -5.1021    0.0000 H   0  0  0  0  0  0  0  0  0  0  0  0
   10.8024   -4.5922    0.0000 H   0  0  0  0  0  0  0  0  0  0  0  0
   12.0286   -5.6962    0.0000 H   0  0  0  0  0  0  0  0  0  0  0  0
   11.6856   -7.3102    0.0000 H   0  0  0  0  0  0  0  0  0  0  0  0
   10.1163   -7.8201    0.0000 H   0  0  0  0  0  0  0  0  0  0  0  0
    7.8077  -10.9518    0.0000 H   0  0  0  0  0  0  0  0  0  0  0  0
    8.8525   -9.6975    0.0000 H   0  0  0  0  0  0  0  0  0  0  0  0
    6.5745  -11.7111    0.0000 H   0  0  0  0  0  0  0  0  0  0  0  0
    7.1767  -11.7664    0.0000 H   0  0  0  0  0  0  0  0  0  0  0  0
  1  2  1  0  0  0  0
  2  3  1  0  0  0  0
  3  4  2  0  0  0  0
  3  5  1  0  0  0  0
  5  6  1  0  0  0  0
  6  7  1  0  0  0  0
  7  8  2  0  0  0  0
  8  9  2  0  0  0  0
  9 10  1  0  0  0  0
 10 11  1  0  0  0  0
 11 12  1  0  0  0  0
 13 12  1  4  0  0  0
 13 14  2  0  0  0  0
 14 15  1  0  0  0  0
 15 16  1  0  0  0  0
 15 17  1  0  0  0  0
 17 18  1  0  0  0  0
 18 19  1  0  0  0  0
 19 20  4  0  0  0  0
 20 21  4  0  0  0  0
 21 22  4  0  0  0  0
 22 23  4  0  0  0  0
 23 24  4  0  0  0  0
 19 24  4  0  0  0  0
 12 25  1  0  0  0  0
 25 26  1  0  0  0  0
 25 27  1  0  0  0  0
 27 28  1  0  0  0  0
 11 28  1  0  0  0  0
 28 29  2  0  0  0  0
  1 30  1  0  0  0  0
  1 31  1  0  0  0  0
  1 32  1  0  0  0  0
  5 33  1  0  0  0  0
  5 34  1  0  0  0  0
  6 35  1  0  0  0  0
  6 36  1  0  0  0  0
  7 37  1  0  0  0  0
  9 38  1  0  0  0  0
 10 39  1  0  0  0  0
 10 40  1  0  0  0  0
 11 41  1  0  0  0  0
 12 42  1  0  0  0  0
 13 43  1  0  0  0  0
 14 44  1  0  0  0  0
 15 45  1  0  0  0  0
 16 46  1  0  0  0  0
 17 47  1  0  0  0  0
 17 48  1  0  0  0  0
 20 49  1  0  0  0  0
 21 50  1  0  0  0  0
 22 51  1  0  0  0  0
 23 52  1  0  0  0  0
 24 53  1  0  0  0  0
 25 54  1  0  0  0  0
 26 55  1  0  0  0  0
 27 56  1  0  0  0  0
 27 57  1  0  0  0  0
M  END
>  <InChIKey>
InChI=1S/C23H28O6/c1-28-23(27)12-8-3-2-7-11-19-20(22(26)15-21(19)25)14-13-17(24)16-29-18-9-5-4-6-10-18/h3-7,9-10,13-14,17,19-20,22,24,26H,8,11-12,15-16H2,1H3

>  <CASRN>
73121-56-9

> <Outcome>
0

>  <Index>
2544

>  <StandardizerResult>
Dearomatize (ID: Dearomatize)
Clear Stereo (ID: ClearStereo)
Wedge Clean (ID: WedgeClean)
Mesomerize (ID: Mesomerize)
Tautomerize (ID: Tautomerize)
Aromatize (ID: Aromatize)
Add Explicit Hydrogens (ID: AddExplicitH)
Neutralize (ID: Neutralize)
Clean 2D (ID: Clean2D)

> <knn Distance>
4.12310552597046

> <CpId>
2544

$$$$
2666
  Mrv1532301301811342D          

 35 35  0  0  0  0            999 V2000
    1.8624    3.2951    0.0000 C   0  0  0  0  0  0  0  0  0  0  0  0
    1.8624    2.4701    0.0000 C   0  0  0  0  0  0  0  0  0  0  0  0
    1.1480    2.0576    0.0000 N   0  0  0  0  0  0  0  0  0  0  0  0
    0.4335    2.4701    0.0000 C   0  0  0  0  0  0  0  0  0  0  0  0
   -0.2810    2.0576    0.0000 C   0  0  0  0  0  0  0  0  0  0  0  0
    1.1480    1.2326    0.0000 C   0  0  0  0  0  0  0  0  0  0  0  0
    1.8624    0.8201    0.0000 O   0  0  0  0  0  0  0  0  0  0  0  0
    0.4335    0.8201    0.0000 N   0  0  0  0  0  0  0  0  0  0  0  0
    0.4335   -0.0049    0.0000 C   0  0  0  0  0  0  0  0  0  0  0  0
   -0.2810   -0.4174    0.0000 C   0  0  0  0  0  0  0  0  0  0  0  0
   -0.9954   -0.0049    0.0000 N   0  0  0  0  0  0  0  0  0  0  0  0
   -1.7099   -0.4174    0.0000 C   0  0  0  0  0  0  0  0  0  0  0  0
   -0.9954    0.8201    0.0000 C   0  0  0  0  0  0  0  0  0  0  0  0
   -0.2810    1.2326    0.0000 C   0  0  0  0  0  0  0  0  0  0  0  0
    2.6874    3.2951    0.0000 H   0  0  0  0  0  0  0  0  0  0  0  0
    1.8624    4.1201    0.0000 H   0  0  0  0  0  0  0  0  0  0  0  0
    1.0374    3.2951    0.0000 H   0  0  0  0  0  0  0  0  0  0  0  0
    2.3158    1.7808    0.0000 H   0  0  0  0  0  0  0  0  0  0  0  0
    2.6860    2.4221    0.0000 H   0  0  0  0  0  0  0  0  0  0  0  0
    0.8038    3.2073    0.0000 H   0  0  0  0  0  0  0  0  0  0  0  0
    0.0632    3.2073    0.0000 H   0  0  0  0  0  0  0  0  0  0  0  0
   -0.2810    2.8826    0.0000 H   0  0  0  0  0  0  0  0  0  0  0  0
   -0.9954    2.4701    0.0000 H   0  0  0  0  0  0  0  0  0  0  0  0
   -0.9954    1.6451    0.0000 H   0  0  0  0  0  0  0  0  0  0  0  0
    0.8868   -0.6942    0.0000 H   0  0  0  0  0  0  0  0  0  0  0  0
    1.2571   -0.0529    0.0000 H   0  0  0  0  0  0  0  0  0  0  0  0
   -0.6512   -1.1547    0.0000 H   0  0  0  0  0  0  0  0  0  0  0  0
    0.0893   -1.1547    0.0000 H   0  0  0  0  0  0  0  0  0  0  0  0
   -2.1224    0.2970    0.0000 H   0  0  0  0  0  0  0  0  0  0  0  0
   -2.4244   -0.8299    0.0000 H   0  0  0  0  0  0  0  0  0  0  0  0
   -1.2974   -1.1319    0.0000 H   0  0  0  0  0  0  0  0  0  0  0  0
   -1.7707    1.1022    0.0000 H   0  0  0  0  0  0  0  0  0  0  0  0
   -1.7707    0.5379    0.0000 H   0  0  0  0  0  0  0  0  0  0  0  0
    0.4335    1.6451    0.0000 H   0  0  0  0  0  0  0  0  0  0  0  0
   -0.2810    0.4076    0.0000 H   0  0  0  0  0  0  0  0  0  0  0  0
  1  2  1  0  0  0  0
  2  3  1  0  0  0  0
  3  4  1  0  0  0  0
  4  5  1  0  0  0  0
  3  6  1  0  0  0  0
  6  7  2  0  0  0  0
  6  8  1  0  0  0  0
  8  9  1  0  0  0  0
  9 10  1  0  0  0  0
 10 11  1  0  0  0  0
 11 12  1  0  0  0  0
 11 13  1  0  0  0  0
 13 14  1  0  0  0  0
  8 14  1  0  0  0  0
  1 15  1  0  0  0  0
  1 16  1  0  0  0  0
  1 17  1  0  0  0  0
  2 18  1  0  0  0  0
  2 19  1  0  0  0  0
  4 20  1  0  0  0  0
  4 21  1  0  0  0  0
  5 22  1  0  0  0  0
  5 23  1  0  0  0  0
  5 24  1  0  0  0  0
  9 25  1  0  0  0  0
  9 26  1  0  0  0  0
 10 27  1  0  0  0  0
 10 28  1  0  0  0  0
 12 29  1  0  0  0  0
 12 30  1  0  0  0  0
 12 31  1  0  0  0  0
 13 32  1  0  0  0  0
 13 33  1  0  0  0  0
 14 34  1  0  0  0  0
 14 35  1  0  0  0  0
M  END
>  <InChIKey>
InChI=1S/C10H21N3O/c1-4-12(5-2)10(14)13-8-6-11(3)7-9-13/h4-9H2,1-3H3

>  <CASRN>
90-89-1

> <Outcome>
0

>  <Index>
2666

>  <StandardizerResult>
Clear Stereo (ID: ClearStereo)
Wedge Clean (ID: WedgeClean)
Mesomerize (ID: Mesomerize)
Tautomerize (ID: Tautomerize)
Add Explicit Hydrogens (ID: AddExplicitH)
Neutralize (ID: Neutralize)
Clean 2D (ID: Clean2D)

> <knn Distance>
4.12310552597046

> <CpId>
2666

$$$$
2725
  Mrv1532301301811342D          

 53 56  0  0  0  0            999 V2000
    4.0536   -4.0276    0.0000 C   0  0  0  0  0  0  0  0  0  0  0  0
    3.5907   -3.3448    0.0000 C   0  0  0  0  0  0  0  0  0  0  0  0
    3.9505   -2.6024    0.0000 C   0  0  0  0  0  0  0  0  0  0  0  0
    4.4824   -3.2331    0.0000 C   0  0  0  0  0  0  0  0  0  0  0  0
    5.2945   -3.0879    0.0000 C   0  0  0  0  0  0  0  0  0  0  0  0
    5.8263   -3.7186    0.0000 C   0  0  0  0  0  0  0  0  0  0  0  0
    5.5748   -2.3120    0.0000 C   0  0  0  0  0  0  0  0  0  0  0  0
    5.0430   -1.6813    0.0000 C   0  0  0  0  0  0  0  0  0  0  0  0
    5.3233   -0.9053    0.0000 C   0  0  0  0  0  0  0  0  0  0  0  0
    6.1354   -0.7601    0.0000 C   0  0  0  0  0  0  0  0  0  0  0  0
    6.6672   -1.3908    0.0000 C   0  0  0  0  0  0  0  0  0  0  0  0
    7.4793   -1.2456    0.0000 C   0  0  0  0  0  0  0  0  0  0  0  0
    8.0111   -1.8763    0.0000 C   0  0  0  0  0  0  0  0  0  0  0  0
    7.7308   -2.6523    0.0000 C   0  0  0  0  0  0  0  0  0  0  0  0
    6.9187   -2.7975    0.0000 C   0  0  0  0  0  0  0  0  0  0  0  0
    6.3869   -2.1668    0.0000 C   0  0  0  0  0  0  0  0  0  0  0  0
    4.2308   -1.8265    0.0000 C   0  0  0  0  0  0  0  0  0  0  0  0
    3.5795   -1.3201    0.0000 C   0  0  0  0  0  0  0  0  0  0  0  0
    2.8967   -1.7831    0.0000 C   0  0  0  0  0  0  0  0  0  0  0  0
    3.1260   -2.5756    0.0000 C   0  0  0  0  0  0  0  0  0  0  0  0
    2.3651   -2.8945    0.0000 O   0  0  0  0  0  0  0  0  0  0  0  0
    3.0046   -3.3916    0.0000 C   0  0  0  0  0  0  0  0  0  0  0  0
    2.8832   -4.2076    0.0000 C   0  0  0  0  0  0  0  0  0  0  0  0
    3.2714   -4.2896    0.0000 H   0  0  0  0  0  0  0  0  0  0  0  0
    4.0953   -4.8516    0.0000 H   0  0  0  0  0  0  0  0  0  0  0  0
    4.8584   -4.2094    0.0000 H   0  0  0  0  0  0  0  0  0  0  0  0
    3.0015   -3.9223    0.0000 H   0  0  0  0  0  0  0  0  0  0  0  0
    3.5085   -4.1657    0.0000 H   0  0  0  0  0  0  0  0  0  0  0  0
    4.9660   -3.9015    0.0000 H   0  0  0  0  0  0  0  0  0  0  0  0
    4.7627   -2.4572    0.0000 H   0  0  0  0  0  0  0  0  0  0  0  0
    6.3336   -4.3692    0.0000 H   0  0  0  0  0  0  0  0  0  0  0  0
    6.6261   -3.5163    0.0000 H   0  0  0  0  0  0  0  0  0  0  0  0
    5.8551   -1.5361    0.0000 H   0  0  0  0  0  0  0  0  0  0  0  0
    4.5111   -1.0506    0.0000 H   0  0  0  0  0  0  0  0  0  0  0  0
    5.4646   -0.0925    0.0000 H   0  0  0  0  0  0  0  0  0  0  0  0
    4.9090   -0.1919    0.0000 H   0  0  0  0  0  0  0  0  0  0  0  0
    6.8999   -0.4500    0.0000 H   0  0  0  0  0  0  0  0  0  0  0  0
    6.5074   -0.0238    0.0000 H   0  0  0  0  0  0  0  0  0  0  0  0
    7.7596   -0.4697    0.0000 H   0  0  0  0  0  0  0  0  0  0  0  0
    8.8020   -2.1110    0.0000 H   0  0  0  0  0  0  0  0  0  0  0  0
    8.6717   -1.3821    0.0000 H   0  0  0  0  0  0  0  0  0  0  0  0
    7.9230   -3.4546    0.0000 H   0  0  0  0  0  0  0  0  0  0  0  0
    8.4891   -2.9772    0.0000 H   0  0  0  0  0  0  0  0  0  0  0  0
    6.1039   -2.9264    0.0000 H   0  0  0  0  0  0  0  0  0  0  0  0
    7.4378   -3.4387    0.0000 H   0  0  0  0  0  0  0  0  0  0  0  0
    7.1990   -2.0215    0.0000 H   0  0  0  0  0  0  0  0  0  0  0  0
    3.4383   -2.0558    0.0000 H   0  0  0  0  0  0  0  0  0  0  0  0
    3.5343   -0.4964    0.0000 H   0  0  0  0  0  0  0  0  0  0  0  0
    2.9748   -0.7589    0.0000 H   0  0  0  0  0  0  0  0  0  0  0  0
    2.3432   -1.1713    0.0000 H   0  0  0  0  0  0  0  0  0  0  0  0
    2.0800   -1.8999    0.0000 H   0  0  0  0  0  0  0  0  0  0  0  0
    1.5473   -2.7859    0.0000 H   0  0  0  0  0  0  0  0  0  0  0  0
    2.2058   -4.6786    0.0000 H   0  0  0  0  0  0  0  0  0  0  0  0
  1  2  1  0  0  0  0
  2  3  1  0  0  0  0
  3  4  1  0  0  0  0
  4  5  1  0  0  0  0
  5  6  2  0  0  0  0
  5  7  1  0  0  0  0
  7  8  1  0  0  0  0
  8  9  1  0  0  0  0
  9 10  1  0  0  0  0
 10 11  1  0  0  0  0
 11 12  2  0  0  0  0
 12 13  1  0  0  0  0
 13 14  1  0  0  0  0
 14 15  1  0  0  0  0
 15 16  1  0  0  0  0
  7 16  1  0  0  0  0
 11 16  1  0  0  0  0
  8 17  1  0  0  0  0
  3 17  1  0  0  0  0
 17 18  1  0  0  0  0
 18 19  1  0  0  0  0
 19 20  1  0  0  0  0
  3 20  1  0  0  0  0
 20 21  1  0  0  0  0
 20 22  1  0  0  0  0
 22 23  3  0  0  0  0
  1 24  1  0  0  0  0
  1 25  1  0  0  0  0
  1 26  1  0  0  0  0
  2 27  1  0  0  0  0
  2 28  1  0  0  0  0
  4 29  1  0  0  0  0
  4 30  1  0  0  0  0
  6 31  1  0  0  0  0
  6 32  1  0  0  0  0
  7 33  1  0  0  0  0
  8 34  1  0  0  0  0
  9 35  1  0  0  0  0
  9 36  1  0  0  0  0
 10 37  1  0  0  0  0
 10 38  1  0  0  0  0
 12 39  1  0  0  0  0
 13 40  1  0  0  0  0
 13 41  1  0  0  0  0
 14 42  1  0  0  0  0
 14 43  1  0  0  0  0
 15 44  1  0  0  0  0
 15 45  1  0  0  0  0
 16 46  1  0  0  0  0
 17 47  1  0  0  0  0
 18 48  1  0  0  0  0
 18 49  1  0  0  0  0
 19 50  1  0  0  0  0
 19 51  1  0  0  0  0
 21 52  1  0  0  0  0
 23 53  1  0  0  0  0
M  END
>  <InChIKey>
InChI=1S/C22H30O/c1-4-21-14-15(3)20-17-9-7-6-8-16(17)10-11-18(20)19(21)12-13-22(21,23)5-2/h2,8,17-20,23H,3-4,6-7,9-14H2,1H3

>  <CASRN>
54024-22-5

> <Outcome>
0

>  <Index>
2725

>  <StandardizerResult>
Clear Stereo (ID: ClearStereo)
Wedge Clean (ID: WedgeClean)
Mesomerize (ID: Mesomerize)
Tautomerize (ID: Tautomerize)
Add Explicit Hydrogens (ID: AddExplicitH)
Neutralize (ID: Neutralize)
Clean 2D (ID: Clean2D)

> <knn Distance>
4.12310552597046

> <CpId>
2725

$$$$
2727
  Mrv1532301301811342D          

 38 39  0  0  0  0            999 V2000
    2.9187    0.0552    0.0000 C   0  0  0  0  0  0  0  0  0  0  0  0
    2.2043   -0.3573    0.0000 O   0  0  0  0  0  0  0  0  0  0  0  0
    2.2043   -1.1823    0.0000 C   0  0  0  0  0  0  0  0  0  0  0  0
    1.4898   -1.5948    0.0000 C   0  0  0  0  0  0  0  0  0  0  0  0
    1.4898   -2.4198    0.0000 C   0  0  0  0  0  0  0  0  0  0  0  0
    2.2043   -2.8323    0.0000 C   0  0  0  0  0  0  0  0  0  0  0  0
    2.2043   -3.6573    0.0000 C   0  0  0  0  0  0  0  0  0  0  0  0
    2.9187   -4.0698    0.0000 O   0  0  0  0  0  0  0  0  0  0  0  0
    1.4898   -4.0698    0.0000 C   0  0  0  0  0  0  0  0  0  0  0  0
    1.4898   -4.8948    0.0000 C   0  0  0  0  0  0  0  0  0  0  0  0
    0.7753   -5.3073    0.0000 C   0  0  0  0  0  0  0  0  0  0  0  0
    0.0609   -4.8948    0.0000 C   0  0  0  0  0  0  0  0  0  0  0  0
   -0.6536   -5.3073    0.0000 O   0  0  0  0  0  0  0  0  0  0  0  0
   -0.6536   -6.1323    0.0000 C   0  0  0  0  0  0  0  0  0  0  0  0
    0.0609   -4.0698    0.0000 C   0  0  0  0  0  0  0  0  0  0  0  0
    0.7753   -3.6573    0.0000 C   0  0  0  0  0  0  0  0  0  0  0  0
    0.7753   -2.8323    0.0000 O   0  0  0  0  0  0  0  0  0  0  0  0
    0.7753   -6.1323    0.0000 S   0  0  0  0  0  0  0  0  0  0  0  0
    0.7753   -6.9573    0.0000 O   0  0  0  0  0  0  0  0  0  0  0  0
   -0.0497   -6.1323    0.0000 O   0  0  0  0  0  0  0  0  0  0  0  0
    1.6003   -6.1323    0.0000 O   0  0  0  0  0  0  0  0  0  0  0  0
    2.9187   -2.4198    0.0000 C   0  0  0  0  0  0  0  0  0  0  0  0
    3.6332   -2.8323    0.0000 O   0  0  0  0  0  0  0  0  0  0  0  0
    2.9187   -1.5948    0.0000 C   0  0  0  0  0  0  0  0  0  0  0  0
    3.3312   -0.6592    0.0000 H   0  0  0  0  0  0  0  0  0  0  0  0
    3.6332    0.4677    0.0000 H   0  0  0  0  0  0  0  0  0  0  0  0
    2.5062    0.7697    0.0000 H   0  0  0  0  0  0  0  0  0  0  0  0
    0.7753   -1.1823    0.0000 H   0  0  0  0  0  0  0  0  0  0  0  0
    1.4898   -3.2448    0.0000 H   0  0  0  0  0  0  0  0  0  0  0  0
    2.2043   -5.3073    0.0000 H   0  0  0  0  0  0  0  0  0  0  0  0
   -1.4158   -5.8166    0.0000 H   0  0  0  0  0  0  0  0  0  0  0  0
   -1.2370   -6.7156    0.0000 H   0  0  0  0  0  0  0  0  0  0  0  0
   -0.3379   -6.8945    0.0000 H   0  0  0  0  0  0  0  0  0  0  0  0
   -0.6536   -3.6573    0.0000 H   0  0  0  0  0  0  0  0  0  0  0  0
    0.0609   -2.4198    0.0000 H   0  0  0  0  0  0  0  0  0  0  0  0
    0.0609   -7.3698    0.0000 H   0  0  0  0  0  0  0  0  0  0  0  0
    3.6332   -3.6573    0.0000 H   0  0  0  0  0  0  0  0  0  0  0  0
    3.6332   -1.1823    0.0000 H   0  0  0  0  0  0  0  0  0  0  0  0
  1  2  1  0  0  0  0
  2  3  1  0  0  0  0
  3  4  4  0  0  0  0
  4  5  4  0  0  0  0
  5  6  4  0  0  0  0
  6  7  1  0  0  0  0
  7  8  2  0  0  0  0
  7  9  1  0  0  0  0
  9 10  4  0  0  0  0
 10 11  4  0  0  0  0
 11 12  4  0  0  0  0
 12 13  1  0  0  0  0
 13 14  1  0  0  0  0
 12 15  4  0  0  0  0
 15 16  4  0  0  0  0
  9 16  4  0  0  0  0
 16 17  1  0  0  0  0
 11 18  1  0  0  0  0
 18 19  1  0  0  0  0
 18 20  2  0  0  0  0
 18 21  2  0  0  0  0
  6 22  4  0  0  0  0
 22 23  1  0  0  0  0
 22 24  4  0  0  0  0
  3 24  4  0  0  0  0
  1 25  1  0  0  0  0
  1 26  1  0  0  0  0
  1 27  1  0  0  0  0
  4 28  1  0  0  0  0
  5 29  1  0  0  0  0
 10 30  1  0  0  0  0
 14 31  1  0  0  0  0
 14 32  1  0  0  0  0
 14 33  1  0  0  0  0
 15 34  1  0  0  0  0
 17 35  1  0  0  0  0
 19 36  1  0  0  0  0
 23 37  1  0  0  0  0
 24 38  1  0  0  0  0
M  END
>  <InChIKey>
InChI=1S/C15H14O8S/c1-22-8-3-4-9(11(16)5-8)15(18)10-6-14(24(19,20)21)13(23-2)7-12(10)17/h3-7,16-17H,1-2H3,(H,19,20,21)

>  <CASRN>
3121-60-6

> <Outcome>
0

>  <Index>
2727

>  <StandardizerResult>
Dearomatize (ID: Dearomatize)
Clear Stereo (ID: ClearStereo)
Wedge Clean (ID: WedgeClean)
Mesomerize (ID: Mesomerize)
Tautomerize (ID: Tautomerize)
Aromatize (ID: Aromatize)
Add Explicit Hydrogens (ID: AddExplicitH)
Neutralize (ID: Neutralize)
Clean 2D (ID: Clean2D)

> <knn Distance>
4.12310552597046

> <CpId>
2727

$$$$
2729
  Mrv1532301301811342D          

 60 63  0  0  0  0            999 V2000
    2.5256   -4.4360    0.0000 C   0  0  0  0  0  0  0  0  0  0  0  0
    2.4660   -3.6132    0.0000 C   0  0  0  0  0  0  0  0  0  0  0  0
    1.7237   -3.2533    0.0000 O   0  0  0  0  0  0  0  0  0  0  0  0
    3.1489   -3.1502    0.0000 O   0  0  0  0  0  0  0  0  0  0  0  0
    3.0893   -2.3273    0.0000 C   0  0  0  0  0  0  0  0  0  0  0  0
    2.8600   -1.5348    0.0000 C   0  0  0  0  0  0  0  0  0  0  0  0
    3.5429   -1.0719    0.0000 C   0  0  0  0  0  0  0  0  0  0  0  0
    4.1942   -1.5782    0.0000 C   0  0  0  0  0  0  0  0  0  0  0  0
    5.0063   -1.4330    0.0000 C   0  0  0  0  0  0  0  0  0  0  0  0
    5.2866   -0.6571    0.0000 C   0  0  0  0  0  0  0  0  0  0  0  0
    6.0988   -0.5119    0.0000 C   0  0  0  0  0  0  0  0  0  0  0  0
    6.3791    0.2641    0.0000 C   0  0  0  0  0  0  0  0  0  0  0  0
    6.6306   -1.1426    0.0000 C   0  0  0  0  0  0  0  0  0  0  0  0
    7.4427   -0.9974    0.0000 C   0  0  0  0  0  0  0  0  0  0  0  0
    7.9745   -1.6281    0.0000 C   0  0  0  0  0  0  0  0  0  0  0  0
    8.7866   -1.4829    0.0000 O   0  0  0  0  0  0  0  0  0  0  0  0
    7.6942   -2.4040    0.0000 C   0  0  0  0  0  0  0  0  0  0  0  0
    6.8821   -2.5492    0.0000 C   0  0  0  0  0  0  0  0  0  0  0  0
    6.3503   -1.9185    0.0000 C   0  0  0  0  0  0  0  0  0  0  0  0
    6.0700   -2.6944    0.0000 C   0  0  0  0  0  0  0  0  0  0  0  0
    5.5382   -2.0637    0.0000 C   0  0  0  0  0  0  0  0  0  0  0  0
    5.2579   -2.8396    0.0000 C   0  0  0  0  0  0  0  0  0  0  0  0
    4.4457   -2.9849    0.0000 C   0  0  0  0  0  0  0  0  0  0  0  0
    3.9139   -2.3541    0.0000 C   0  0  0  0  0  0  0  0  0  0  0  0
    3.5540   -3.0965    0.0000 C   0  0  0  0  0  0  0  0  0  0  0  0
    2.2772   -2.4726    0.0000 C   0  0  0  0  0  0  0  0  0  0  0  0
    1.7454   -1.8418    0.0000 C   0  0  0  0  0  0  0  0  0  0  0  0
    1.5944   -2.9355    0.0000 O   0  0  0  0  0  0  0  0  0  0  0  0
    1.7027   -4.4955    0.0000 H   0  0  0  0  0  0  0  0  0  0  0  0
    2.5851   -5.2589    0.0000 H   0  0  0  0  0  0  0  0  0  0  0  0
    3.3484   -4.3765    0.0000 H   0  0  0  0  0  0  0  0  0  0  0  0
    2.3065   -0.9231    0.0000 H   0  0  0  0  0  0  0  0  0  0  0  0
    2.0433   -1.6516    0.0000 H   0  0  0  0  0  0  0  0  0  0  0  0
    3.9537   -0.3564    0.0000 H   0  0  0  0  0  0  0  0  0  0  0  0
    3.1794   -0.3312    0.0000 H   0  0  0  0  0  0  0  0  0  0  0  0
    4.7260   -2.2089    0.0000 H   0  0  0  0  0  0  0  0  0  0  0  0
    4.4745   -0.8023    0.0000 H   0  0  0  0  0  0  0  0  0  0  0  0
    5.1414    0.1550    0.0000 H   0  0  0  0  0  0  0  0  0  0  0  0
    7.1550   -0.0162    0.0000 H   0  0  0  0  0  0  0  0  0  0  0  0
    6.6594    1.0400    0.0000 H   0  0  0  0  0  0  0  0  0  0  0  0
    5.6031    0.5444    0.0000 H   0  0  0  0  0  0  0  0  0  0  0  0
    7.7230   -0.2214    0.0000 H   0  0  0  0  0  0  0  0  0  0  0  0
    7.8864   -3.2063    0.0000 H   0  0  0  0  0  0  0  0  0  0  0  0
    8.4525   -2.7289    0.0000 H   0  0  0  0  0  0  0  0  0  0  0  0
    6.7408   -3.3620    0.0000 H   0  0  0  0  0  0  0  0  0  0  0  0
    7.2963   -3.2627    0.0000 H   0  0  0  0  0  0  0  0  0  0  0  0
    5.4510   -3.2399    0.0000 H   0  0  0  0  0  0  0  0  0  0  0  0
    5.8238   -3.4818    0.0000 H   0  0  0  0  0  0  0  0  0  0  0  0
    6.2680   -3.4953    0.0000 H   0  0  0  0  0  0  0  0  0  0  0  0
    5.8185   -1.2878    0.0000 H   0  0  0  0  0  0  0  0  0  0  0  0
    4.6780   -3.4265    0.0000 H   0  0  0  0  0  0  0  0  0  0  0  0
    5.1225   -3.6535    0.0000 H   0  0  0  0  0  0  0  0  0  0  0  0
    3.8523   -3.5580    0.0000 H   0  0  0  0  0  0  0  0  0  0  0  0
    4.3149   -3.7994    0.0000 H   0  0  0  0  0  0  0  0  0  0  0  0
    2.8898   -3.5858    0.0000 H   0  0  0  0  0  0  0  0  0  0  0  0
    3.2081   -3.8455    0.0000 H   0  0  0  0  0  0  0  0  0  0  0  0
    3.6122   -3.9195    0.0000 H   0  0  0  0  0  0  0  0  0  0  0  0
    1.5746   -1.0347    0.0000 H   0  0  0  0  0  0  0  0  0  0  0  0
    0.9298   -1.7177    0.0000 H   0  0  0  0  0  0  0  0  0  0  0  0
    1.3422   -2.5616    0.0000 H   0  0  0  0  0  0  0  0  0  0  0  0
  1  2  1  0  0  0  0
  2  3  2  0  0  0  0
  2  4  1  0  0  0  0
  4  5  1  0  0  0  0
  5  6  1  0  0  0  0
  6  7  1  0  0  0  0
  7  8  1  0  0  0  0
  8  9  1  0  0  0  0
  9 10  1  0  0  0  0
 10 11  2  0  0  0  0
 11 12  1  0  0  0  0
 11 13  1  0  0  0  0
 13 14  2  0  0  0  0
 14 15  1  0  0  0  0
 15 16  2  0  0  0  0
 15 17  1  0  0  0  0
 17 18  1  0  0  0  0
 18 19  1  0  0  0  0
 13 19  1  0  0  0  0
 19 20  1  0  0  0  0
 19 21  1  0  0  0  0
  9 21  1  0  0  0  0
 21 22  1  0  0  0  0
 22 23  1  0  0  0  0
 23 24  1  0  0  0  0
  5 24  1  0  0  0  0
  8 24  1  0  0  0  0
 24 25  1  0  0  0  0
  5 26  1  0  0  0  0
 26 27  1  0  0  0  0
 26 28  2  0  0  0  0
  1 29  1  0  0  0  0
  1 30  1  0  0  0  0
  1 31  1  0  0  0  0
  6 32  1  0  0  0  0
  6 33  1  0  0  0  0
  7 34  1  0  0  0  0
  7 35  1  0  0  0  0
  8 36  1  0  0  0  0
  9 37  1  0  0  0  0
 10 38  1  0  0  0  0
 12 39  1  0  0  0  0
 12 40  1  0  0  0  0
 12 41  1  0  0  0  0
 14 42  1  0  0  0  0
 17 43  1  0  0  0  0
 17 44  1  0  0  0  0
 18 45  1  0  0  0  0
 18 46  1  0  0  0  0
 20 47  1  0  0  0  0
 20 48  1  0  0  0  0
 20 49  1  0  0  0  0
 21 50  1  0  0  0  0
 22 51  1  0  0  0  0
 22 52  1  0  0  0  0
 23 53  1  0  0  0  0
 23 54  1  0  0  0  0
 25 55  1  0  0  0  0
 25 56  1  0  0  0  0
 25 57  1  0  0  0  0
 27 58  1  0  0  0  0
 27 59  1  0  0  0  0
 27 60  1  0  0  0  0
M  END
>  <InChIKey>
InChI=1S/C24H32O4/c1-14-12-18-19(22(4)9-6-17(27)13-21(14)22)7-10-23(5)20(18)8-11-24(23,15(2)25)28-16(3)26/h12-13,18-20H,6-11H2,1-5H3

>  <CASRN>
595-33-5

> <Outcome>
0

>  <Index>
2729

>  <StandardizerResult>
Clear Stereo (ID: ClearStereo)
Wedge Clean (ID: WedgeClean)
Mesomerize (ID: Mesomerize)
Tautomerize (ID: Tautomerize)
Add Explicit Hydrogens (ID: AddExplicitH)
Neutralize (ID: Neutralize)
Clean 2D (ID: Clean2D)

> <knn Distance>
4.12310552597046

> <CpId>
2729

$$$$
2834
  Mrv1532301301811342D          

 26 27  0  0  0  0            999 V2000
    1.2051   -2.0091    0.0000 C   0  0  0  0  0  0  0  0  0  0  0  0
    0.4205   -2.2641    0.0000 N   0  0  0  0  0  0  0  0  0  0  0  0
    0.1656   -3.0487    0.0000 C   0  0  0  0  0  0  0  0  0  0  0  0
   -0.6594   -3.0487    0.0000 C   0  0  0  0  0  0  0  0  0  0  0  0
   -0.9144   -2.2641    0.0000 C   0  0  0  0  0  0  0  0  0  0  0  0
   -0.2469   -1.7791    0.0000 C   0  0  0  0  0  0  0  0  0  0  0  0
   -0.2469   -0.9541    0.0000 C   0  0  0  0  0  0  0  0  0  0  0  0
   -0.9614   -0.5416    0.0000 C   0  0  0  0  0  0  0  0  0  0  0  0
   -0.9614    0.2834    0.0000 C   0  0  0  0  0  0  0  0  0  0  0  0
   -0.2469    0.6959    0.0000 C   0  0  0  0  0  0  0  0  0  0  0  0
    0.4675    0.2834    0.0000 N   0  0  0  0  0  0  0  0  0  0  0  0
    0.4675   -0.5416    0.0000 C   0  0  0  0  0  0  0  0  0  0  0  0
    1.4601   -2.7937    0.0000 H   0  0  0  0  0  0  0  0  0  0  0  0
    1.9897   -1.7542    0.0000 H   0  0  0  0  0  0  0  0  0  0  0  0
    0.9502   -1.2245    0.0000 H   0  0  0  0  0  0  0  0  0  0  0  0
    0.2804   -3.8656    0.0000 H   0  0  0  0  0  0  0  0  0  0  0  0
    0.9071   -3.4103    0.0000 H   0  0  0  0  0  0  0  0  0  0  0  0
   -1.4009   -3.4103    0.0000 H   0  0  0  0  0  0  0  0  0  0  0  0
   -0.7743   -3.8656    0.0000 H   0  0  0  0  0  0  0  0  0  0  0  0
   -1.4875   -1.6706    0.0000 H   0  0  0  0  0  0  0  0  0  0  0  0
   -1.7268   -2.4073    0.0000 H   0  0  0  0  0  0  0  0  0  0  0  0
    0.4881   -1.4046    0.0000 H   0  0  0  0  0  0  0  0  0  0  0  0
   -1.6759   -0.9541    0.0000 H   0  0  0  0  0  0  0  0  0  0  0  0
   -1.6759    0.6959    0.0000 H   0  0  0  0  0  0  0  0  0  0  0  0
   -0.2469    1.5209    0.0000 H   0  0  0  0  0  0  0  0  0  0  0  0
    1.2538   -0.2918    0.0000 H   0  0  0  0  0  0  0  0  0  0  0  0
  1  2  1  0  0  0  0
  2  3  1  0  0  0  0
  3  4  1  0  0  0  0
  4  5  1  0  0  0  0
  5  6  1  0  0  0  0
  2  6  1  0  0  0  0
  6  7  1  0  0  0  0
  7  8  4  0  0  0  0
  8  9  4  0  0  0  0
  9 10  4  0  0  0  0
 10 11  4  0  0  0  0
 11 12  4  0  0  0  0
  7 12  4  0  0  0  0
  1 13  1  0  0  0  0
  1 14  1  0  0  0  0
  1 15  1  0  0  0  0
  3 16  1  0  0  0  0
  3 17  1  0  0  0  0
  4 18  1  0  0  0  0
  4 19  1  0  0  0  0
  5 20  1  0  0  0  0
  5 21  1  0  0  0  0
  6 22  1  0  0  0  0
  8 23  1  0  0  0  0
  9 24  1  0  0  0  0
 10 25  1  0  0  0  0
 12 26  1  0  0  0  0
M  END
>  <InChIKey>
InChI=1S/C10H14N2/c1-12-7-3-5-10(12)9-4-2-6-11-8-9/h2,4,6,8,10H,3,5,7H2,1H3

>  <CASRN>
54-11-5

> <Outcome>
0

>  <Index>
2834

>  <StandardizerResult>
Dearomatize (ID: Dearomatize)
Clear Stereo (ID: ClearStereo)
Wedge Clean (ID: WedgeClean)
Mesomerize (ID: Mesomerize)
Tautomerize (ID: Tautomerize)
Aromatize (ID: Aromatize)
Add Explicit Hydrogens (ID: AddExplicitH)
Neutralize (ID: Neutralize)
Clean 2D (ID: Clean2D)

> <knn Distance>
4.12310552597046

> <CpId>
2834

$$$$
2842
  Mrv1532301301811342D          

 32 31  0  0  0  0            999 V2000
    1.5922   -1.4494    0.0000 C   0  0  0  0  0  0  0  0  0  0  0  0
    2.4172   -1.4494    0.0000 C   0  0  0  0  0  0  0  0  0  0  0  0
    2.8297   -2.1639    0.0000 C   0  0  0  0  0  0  0  0  0  0  0  0
    2.8297   -0.7350    0.0000 N   0  0  0  0  0  0  0  0  0  0  0  0
    2.4172   -0.0205    0.0000 C   0  0  0  0  0  0  0  0  0  0  0  0
    1.5922   -0.0205    0.0000 C   0  0  0  0  0  0  0  0  0  0  0  0
    2.8297    0.6940    0.0000 C   0  0  0  0  0  0  0  0  0  0  0  0
    3.6547   -0.7350    0.0000 C   0  0  0  0  0  0  0  0  0  0  0  0
    4.0672   -1.4494    0.0000 O   0  0  0  0  0  0  0  0  0  0  0  0
    4.0672   -0.0205    0.0000 S   0  0  0  0  0  0  0  0  0  0  0  0
    4.8922   -0.0205    0.0000 C   0  0  0  0  0  0  0  0  0  0  0  0
    5.3047    0.6940    0.0000 C   0  0  0  0  0  0  0  0  0  0  0  0
    4.8922    1.4085    0.0000 Cl  0  0  0  0  0  0  0  0  0  0  0  0
    6.1297    0.6940    0.0000 C   0  0  0  0  0  0  0  0  0  0  0  0
    6.5422    1.4085    0.0000 Cl  0  0  0  0  0  0  0  0  0  0  0  0
    1.5922   -0.6244    0.0000 H   0  0  0  0  0  0  0  0  0  0  0  0
    0.7672   -1.4494    0.0000 H   0  0  0  0  0  0  0  0  0  0  0  0
    1.5922   -2.2744    0.0000 H   0  0  0  0  0  0  0  0  0  0  0  0
    2.0047   -2.1639    0.0000 H   0  0  0  0  0  0  0  0  0  0  0  0
    2.6162   -2.9608    0.0000 H   0  0  0  0  0  0  0  0  0  0  0  0
    3.5442   -2.5764    0.0000 H   0  0  0  0  0  0  0  0  0  0  0  0
    3.4131   -1.5805    0.0000 H   0  0  0  0  0  0  0  0  0  0  0  0
    2.0047   -0.7350    0.0000 H   0  0  0  0  0  0  0  0  0  0  0  0
    1.9079    0.7417    0.0000 H   0  0  0  0  0  0  0  0  0  0  0  0
    1.0089    0.5629    0.0000 H   0  0  0  0  0  0  0  0  0  0  0  0
    0.8300   -0.3362    0.0000 H   0  0  0  0  0  0  0  0  0  0  0  0
    3.4055    0.1031    0.0000 H   0  0  0  0  0  0  0  0  0  0  0  0
    3.5546    1.0879    0.0000 H   0  0  0  0  0  0  0  0  0  0  0  0
    2.6473    1.4986    0.0000 H   0  0  0  0  0  0  0  0  0  0  0  0
    4.9402   -0.8441    0.0000 H   0  0  0  0  0  0  0  0  0  0  0  0
    5.5815   -0.4738    0.0000 H   0  0  0  0  0  0  0  0  0  0  0  0
    6.5422   -0.0205    0.0000 H   0  0  0  0  0  0  0  0  0  0  0  0
  1  2  1  0  0  0  0
  2  3  1  0  0  0  0
  2  4  1  0  0  0  0
  4  5  1  0  0  0  0
  5  6  1  0  0  0  0
  5  7  1  0  0  0  0
  4  8  1  0  0  0  0
  8  9  2  0  0  0  0
  8 10  1  0  0  0  0
 10 11  1  0  0  0  0
 11 12  1  0  0  0  0
 12 13  1  0  0  0  0
 12 14  2  0  0  0  0
 14 15  1  4  0  0  0
  1 16  1  0  0  0  0
  1 17  1  0  0  0  0
  1 18  1  0  0  0  0
  2 19  1  0  0  0  0
  3 20  1  0  0  0  0
  3 21  1  0  0  0  0
  3 22  1  0  0  0  0
  5 23  1  0  0  0  0
  6 24  1  0  0  0  0
  6 25  1  0  0  0  0
  6 26  1  0  0  0  0
  7 27  1  0  0  0  0
  7 28  1  0  0  0  0
  7 29  1  0  0  0  0
 11 30  1  0  0  0  0
 11 31  1  0  0  0  0
 14 32  1  0  0  0  0
M  END
>  <InChIKey>
InChI=1S/C10H17Cl2NOS/c1-7(2)13(8(3)4)10(14)15-6-9(12)5-11/h5,7-8H,6H2,1-4H3

>  <CASRN>
2303-16-4

> <Outcome>
0

>  <Index>
2842

>  <StandardizerResult>
Clear Stereo (ID: ClearStereo)
Wedge Clean (ID: WedgeClean)
Mesomerize (ID: Mesomerize)
Tautomerize (ID: Tautomerize)
Add Explicit Hydrogens (ID: AddExplicitH)
Neutralize (ID: Neutralize)
Clean 2D (ID: Clean2D)

> <knn Distance>
4.12310552597046

> <CpId>
2842

$$$$
2863
  Mrv1532301301811342D          

 16 15  0  0  0  0            999 V2000
   -0.1913    0.7135    0.0000 C   0  0  0  0  0  0  0  0  0  0  0  0
    0.5231    1.1260    0.0000 C   0  0  0  0  0  0  0  0  0  0  0  0
    1.2376    0.7135    0.0000 O   0  0  0  0  0  0  0  0  0  0  0  0
    1.9521    1.1260    0.0000 C   0  0  0  0  0  0  0  0  0  0  0  0
    1.9521    1.9510    0.0000 O   0  0  0  0  0  0  0  0  0  0  0  0
    2.6666    0.7135    0.0000 N   0  0  0  0  0  0  0  0  0  0  0  0
    3.3810    1.1260    0.0000 C   0  0  0  0  0  0  0  0  0  0  0  0
   -0.6038    1.4279    0.0000 H   0  0  0  0  0  0  0  0  0  0  0  0
   -0.9058    0.3010    0.0000 H   0  0  0  0  0  0  0  0  0  0  0  0
    0.2212   -0.0010    0.0000 H   0  0  0  0  0  0  0  0  0  0  0  0
    0.8934    1.8632    0.0000 H   0  0  0  0  0  0  0  0  0  0  0  0
    0.1529    1.8632    0.0000 H   0  0  0  0  0  0  0  0  0  0  0  0
    2.6666   -0.1115    0.0000 H   0  0  0  0  0  0  0  0  0  0  0  0
    3.7935    0.4115    0.0000 H   0  0  0  0  0  0  0  0  0  0  0  0
    4.0955    1.5385    0.0000 H   0  0  0  0  0  0  0  0  0  0  0  0
    2.9685    1.8404    0.0000 H   0  0  0  0  0  0  0  0  0  0  0  0
  1  2  1  0  0  0  0
  2  3  1  0  0  0  0
  3  4  1  0  0  0  0
  4  5  2  0  0  0  0
  4  6  1  0  0  0  0
  6  7  1  0  0  0  0
  1  8  1  0  0  0  0
  1  9  1  0  0  0  0
  1 10  1  0  0  0  0
  2 11  1  0  0  0  0
  2 12  1  0  0  0  0
  6 13  1  0  0  0  0
  7 14  1  0  0  0  0
  7 15  1  0  0  0  0
  7 16  1  0  0  0  0
M  END
>  <InChIKey>
InChI=1S/C4H9NO2/c1-3-7-4(6)5-2/h3H2,1-2H3,(H,5,6)

>  <CASRN>
105-40-8

> <Outcome>
0

>  <Index>
2863

>  <StandardizerResult>
Clear Stereo (ID: ClearStereo)
Wedge Clean (ID: WedgeClean)
Mesomerize (ID: Mesomerize)
Tautomerize (ID: Tautomerize)
Add Explicit Hydrogens (ID: AddExplicitH)
Neutralize (ID: Neutralize)
Clean 2D (ID: Clean2D)

> <knn Distance>
4.12310552597046

> <CpId>
2863

$$$$
2936
  Mrv1532301301811342D          

 29 29  0  0  0  0            999 V2000
    2.1317    1.8017    0.0000 N   0  0  0  0  0  0  0  0  0  0  0  0
    1.3192    1.9450    0.0000 C   0  0  0  0  0  0  0  0  0  0  0  0
    0.7889    1.3130    0.0000 C   0  0  0  0  0  0  0  0  0  0  0  0
    0.2586    1.9450    0.0000 C   0  0  0  0  0  0  0  0  0  0  0  0
    0.5408    2.7202    0.0000 C   0  0  0  0  0  0  0  0  0  0  0  0
    0.0105    3.3522    0.0000 O   0  0  0  0  0  0  0  0  0  0  0  0
    1.3532    2.8635    0.0000 O   0  0  0  0  0  0  0  0  0  0  0  0
    1.5034    0.9005    0.0000 C   0  0  0  0  0  0  0  0  0  0  0  0
    1.5034    0.0755    0.0000 C   0  0  0  0  0  0  0  0  0  0  0  0
    0.7889   -0.3370    0.0000 C   0  0  0  0  0  0  0  0  0  0  0  0
    0.0744    0.0755    0.0000 C   0  0  0  0  0  0  0  0  0  0  0  0
    0.0744    0.9005    0.0000 C   0  0  0  0  0  0  0  0  0  0  0  0
    2.4138    1.0265    0.0000 H   0  0  0  0  0  0  0  0  0  0  0  0
    2.6620    2.4337    0.0000 H   0  0  0  0  0  0  0  0  0  0  0  0
    0.5493    2.2414    0.0000 H   0  0  0  0  0  0  0  0  0  0  0  0
    1.6014    1.1697    0.0000 H   0  0  0  0  0  0  0  0  0  0  0  0
   -0.5318    2.1816    0.0000 H   0  0  0  0  0  0  0  0  0  0  0  0
   -0.4032    1.4523    0.0000 H   0  0  0  0  0  0  0  0  0  0  0  0
    0.2926    4.1275    0.0000 H   0  0  0  0  0  0  0  0  0  0  0  0
    0.7889    0.4880    0.0000 H   0  0  0  0  0  0  0  0  0  0  0  0
    2.1254    0.3586    0.0000 H   0  0  0  0  0  0  0  0  0  0  0  0
    1.4768   -0.7491    0.0000 H   0  0  0  0  0  0  0  0  0  0  0  0
    2.1898   -0.3821    0.0000 H   0  0  0  0  0  0  0  0  0  0  0  0
    0.0722   -0.7457    0.0000 H   0  0  0  0  0  0  0  0  0  0  0  0
    0.7800   -1.1620    0.0000 H   0  0  0  0  0  0  0  0  0  0  0  0
   -0.6397    0.4886    0.0000 H   0  0  0  0  0  0  0  0  0  0  0  0
   -0.6408   -0.3357    0.0000 H   0  0  0  0  0  0  0  0  0  0  0  0
    0.2115    1.7140    0.0000 H   0  0  0  0  0  0  0  0  0  0  0  0
   -0.7391    1.0377    0.0000 H   0  0  0  0  0  0  0  0  0  0  0  0
  1  2  1  0  0  0  0
  2  3  1  0  0  0  0
  3  4  1  0  0  0  0
  4  5  1  0  0  0  0
  5  6  1  0  0  0  0
  5  7  2  0  0  0  0
  3  8  1  0  0  0  0
  8  9  1  0  0  0  0
  9 10  1  0  0  0  0
 10 11  1  0  0  0  0
 11 12  1  0  0  0  0
  3 12  1  0  0  0  0
  1 13  1  0  0  0  0
  1 14  1  0  0  0  0
  2 15  1  0  0  0  0
  2 16  1  0  0  0  0
  4 17  1  0  0  0  0
  4 18  1  0  0  0  0
  6 19  1  0  0  0  0
  8 20  1  0  0  0  0
  8 21  1  0  0  0  0
  9 22  1  0  0  0  0
  9 23  1  0  0  0  0
 10 24  1  0  0  0  0
 10 25  1  0  0  0  0
 11 26  1  0  0  0  0
 11 27  1  0  0  0  0
 12 28  1  0  0  0  0
 12 29  1  0  0  0  0
M  END
>  <InChIKey>
InChI=1S/C9H17NO2/c10-7-9(6-8(11)12)4-2-1-3-5-9/h1-7,10H2,(H,11,12)

>  <CASRN>
60142-96-3

> <Outcome>
0

>  <Index>
2936

>  <StandardizerResult>
Clear Stereo (ID: ClearStereo)
Wedge Clean (ID: WedgeClean)
Mesomerize (ID: Mesomerize)
Tautomerize (ID: Tautomerize)
Add Explicit Hydrogens (ID: AddExplicitH)
Neutralize (ID: Neutralize)
Clean 2D (ID: Clean2D)

> <knn Distance>
4.12310552597046

> <CpId>
2936

$$$$
2972
  Mrv1532301301811342D          

 22 23  0  0  0  0            999 V2000
    0.7145   -0.4125    0.0000 N   0  0  0  0  0  0  0  0  0  0  0  0
    0.7145   -1.2375    0.0000 C   0  0  0  0  0  0  0  0  0  0  0  0
    1.3819   -1.7224    0.0000 N   0  0  0  0  0  0  0  0  0  0  0  0
    1.1270   -2.5070    0.0000 C   0  0  0  0  0  0  0  0  0  0  0  0
    1.6119   -3.1745    0.0000 N   0  0  0  0  0  0  0  0  0  0  0  0
    0.3020   -2.5070    0.0000 C   0  0  0  0  0  0  0  0  0  0  0  0
    0.0470   -1.7224    0.0000 S   0  0  0  0  0  0  0  0  0  0  0  0
   -0.1829   -3.1745    0.0000 C   0  0  0  0  0  0  0  0  0  0  0  0
    0.1526   -3.9282    0.0000 C   0  0  0  0  0  0  0  0  0  0  0  0
   -0.3323   -4.5956    0.0000 C   0  0  0  0  0  0  0  0  0  0  0  0
   -1.1528   -4.5094    0.0000 C   0  0  0  0  0  0  0  0  0  0  0  0
   -1.4883   -3.7557    0.0000 C   0  0  0  0  0  0  0  0  0  0  0  0
   -1.0034   -3.0882    0.0000 C   0  0  0  0  0  0  0  0  0  0  0  0
    1.4289   -0.0000    0.0000 H   0  0  0  0  0  0  0  0  0  0  0  0
    0.0000   -0.0000    0.0000 H   0  0  0  0  0  0  0  0  0  0  0  0
    1.2763   -3.9282    0.0000 H   0  0  0  0  0  0  0  0  0  0  0  0
    2.4324   -3.0882    0.0000 H   0  0  0  0  0  0  0  0  0  0  0  0
    0.9731   -4.0144    0.0000 H   0  0  0  0  0  0  0  0  0  0  0  0
    0.0032   -5.3493    0.0000 H   0  0  0  0  0  0  0  0  0  0  0  0
   -1.6377   -5.1768    0.0000 H   0  0  0  0  0  0  0  0  0  0  0  0
   -2.3088   -3.6695    0.0000 H   0  0  0  0  0  0  0  0  0  0  0  0
   -1.3390   -2.3346    0.0000 H   0  0  0  0  0  0  0  0  0  0  0  0
  1  2  1  0  0  0  0
  2  3  4  0  0  0  0
  3  4  4  0  0  0  0
  4  5  1  0  0  0  0
  4  6  4  0  0  0  0
  6  7  4  0  0  0  0
  2  7  4  0  0  0  0
  6  8  1  0  0  0  0
  8  9  4  0  0  0  0
  9 10  4  0  0  0  0
 10 11  4  0  0  0  0
 11 12  4  0  0  0  0
 12 13  4  0  0  0  0
  8 13  4  0  0  0  0
  1 14  1  0  0  0  0
  1 15  1  0  0  0  0
  5 16  1  0  0  0  0
  5 17  1  0  0  0  0
  9 18  1  0  0  0  0
 10 19  1  0  0  0  0
 11 20  1  0  0  0  0
 12 21  1  0  0  0  0
 13 22  1  0  0  0  0
M  END
>  <InChIKey>
InChI=1S/C9H9N3S/c10-8-7(13-9(11)12-8)6-4-2-1-3-5-6/h1-5H,10H2,(H2,11,12)

>  <CASRN>
490-55-1

> <Outcome>
0

>  <Index>
2972

>  <StandardizerResult>
Dearomatize (ID: Dearomatize)
Clear Stereo (ID: ClearStereo)
Wedge Clean (ID: WedgeClean)
Mesomerize (ID: Mesomerize)
Tautomerize (ID: Tautomerize)
Aromatize (ID: Aromatize)
Add Explicit Hydrogens (ID: AddExplicitH)
Neutralize (ID: Neutralize)
Clean 2D (ID: Clean2D)

> <knn Distance>
4.12310552597046

> <CpId>
2972

$$$$
2987
  Mrv1532301301811342D          

 34 35  0  0  0  0            999 V2000
    0.2270    0.0752    0.0000 C   0  0  0  0  0  0  0  0  0  0  0  0
   -0.5144   -0.3930    0.0000 N   0  0  0  0  0  0  0  0  0  0  0  0
   -0.6771   -1.2569    0.0000 C   0  0  0  0  0  0  0  0  0  0  0  0
    0.0070   -1.7180    0.0000 C   0  0  0  0  0  0  0  0  0  0  0  0
    0.8709   -1.6849    0.0000 Br  0  0  0  0  0  0  0  0  0  0  0  0
   -0.0503   -2.5410    0.0000 C   0  0  0  0  0  0  0  0  0  0  0  0
   -0.7916   -2.9029    0.0000 C   0  0  0  0  0  0  0  0  0  0  0  0
   -0.8489   -3.7259    0.0000 Br  0  0  0  0  0  0  0  0  0  0  0  0
   -1.4758   -2.4418    0.0000 C   0  0  0  0  0  0  0  0  0  0  0  0
   -1.0749   -1.5519    0.0000 C   0  0  0  0  0  0  0  0  0  0  0  0
   -1.7188   -0.9789    0.0000 Br  0  0  0  0  0  0  0  0  0  0  0  0
   -1.3040    0.0272    0.0000 C   0  0  0  0  0  0  0  0  0  0  0  0
   -2.0454   -0.3347    0.0000 C   0  0  0  0  0  0  0  0  0  0  0  0
   -2.7295    0.1264    0.0000 C   0  0  0  0  0  0  0  0  0  0  0  0
   -2.6722    0.9494    0.0000 C   0  0  0  0  0  0  0  0  0  0  0  0
   -1.9308    1.3113    0.0000 C   0  0  0  0  0  0  0  0  0  0  0  0
   -1.2467    0.8502    0.0000 C   0  0  0  0  0  0  0  0  0  0  0  0
   -0.4653    1.2853    0.0000 C   0  0  0  0  0  0  0  0  0  0  0  0
    0.2233    1.8177    0.0000 F   0  0  0  0  0  0  0  0  0  0  0  0
    0.2817    0.7744    0.0000 F   0  0  0  0  0  0  0  0  0  0  0  0
   -0.5151    2.1687    0.0000 F   0  0  0  0  0  0  0  0  0  0  0  0
   -3.4163    1.4572    0.0000 N   0  0  0  0  0  0  0  0  0  0  0  0
   -4.2750    1.3055    0.0000 O   0  0  0  0  0  0  0  0  0  0  0  0
   -3.6159    2.3145    0.0000 O   0  0  0  0  0  0  0  0  0  0  0  0
   -2.4351   -1.2534    0.0000 N   0  0  0  0  0  0  0  0  0  0  0  0
   -3.1848   -1.7409    0.0000 O   0  0  0  0  0  0  0  0  0  0  0  0
   -1.9453   -1.9628    0.0000 O   0  0  0  0  0  0  0  0  0  0  0  0
    0.6761   -0.6168    0.0000 H   0  0  0  0  0  0  0  0  0  0  0  0
    1.0486    0.0007    0.0000 H   0  0  0  0  0  0  0  0  0  0  0  0
   -0.4794    0.5014    0.0000 H   0  0  0  0  0  0  0  0  0  0  0  0
    0.6339   -3.0021    0.0000 H   0  0  0  0  0  0  0  0  0  0  0  0
   -2.0036   -3.0759    0.0000 H   0  0  0  0  0  0  0  0  0  0  0  0
   -3.4709   -0.2355    0.0000 H   0  0  0  0  0  0  0  0  0  0  0  0
   -1.8736    2.1343    0.0000 H   0  0  0  0  0  0  0  0  0  0  0  0
  1  2  1  0  0  0  0
  2  3  1  0  0  0  0
  3  4  4  0  0  0  0
  4  5  1  0  0  0  0
  4  6  4  0  0  0  0
  6  7  4  0  0  0  0
  7  8  1  0  0  0  0
  7  9  4  0  0  0  0
  9 10  4  0  0  0  0
  3 10  4  0  0  0  0
 10 11  1  0  0  0  0
  2 12  1  0  0  0  0
 12 13  4  0  0  0  0
 13 14  4  0  0  0  0
 14 15  4  0  0  0  0
 15 16  4  0  0  0  0
 16 17  4  0  0  0  0
 12 17  4  0  0  0  0
 17 18  1  0  0  0  0
 18 19  1  0  0  0  0
 18 20  1  0  0  0  0
 18 21  1  0  0  0  0
 15 22  1  0  0  0  0
 22 23  2  0  0  0  0
 22 24  2  0  0  0  0
 13 25  1  0  0  0  0
 25 26  2  0  0  0  0
 25 27  2  0  0  0  0
  1 28  1  0  0  0  0
  1 29  1  0  0  0  0
  1 30  1  0  0  0  0
  6 31  1  0  0  0  0
  9 32  1  0  0  0  0
 14 33  1  0  0  0  0
 16 34  1  0  0  0  0
M  END
>  <InChIKey>
InChI=1S/C14H7Br3F3N3O4/c1-21(13-9(16)2-6(15)3-10(13)17)12-8(14(18,19)20)4-7(22(24)25)5-11(12)23(26)27/h2-5H,1H3

>  <UN GHS>
Non-irritant

>  <CASRN>
63333-35-7

> <Outcome>
0

>  <Index>
2987

>  <StandardizerResult>
Dearomatize (ID: Dearomatize)
Clear Stereo (ID: ClearStereo)
Wedge Clean (ID: WedgeClean)
Mesomerize (ID: Mesomerize)
Tautomerize (ID: Tautomerize)
Aromatize (ID: Aromatize)
Add Explicit Hydrogens (ID: AddExplicitH)
Neutralize (ID: Neutralize)
Clean 2D (ID: Clean2D)

> <knn Distance>
4.12310552597046

> <CpId>
2987

$$$$
2994
  Mrv1532301301811342D          

 33 33  0  0  0  0            999 V2000
    1.4289    2.4750    0.0000 C   0  0  0  0  0  0  0  0  0  0  0  0
    0.7145    2.0625    0.0000 N   0  0  0  0  0  0  0  0  0  0  0  0
   -0.0000    2.4750    0.0000 C   0  0  0  0  0  0  0  0  0  0  0  0
    0.7145    1.2375    0.0000 C   0  0  0  0  0  0  0  0  0  0  0  0
    1.4289    0.8250    0.0000 N   0  0  0  0  0  0  0  0  0  0  0  0
    1.4289    0.0000    0.0000 C   0  0  0  0  0  0  0  0  0  0  0  0
    0.7145   -0.4125    0.0000 N   0  0  0  0  0  0  0  0  0  0  0  0
   -0.0000    0.0000    0.0000 C   0  0  0  0  0  0  0  0  0  0  0  0
   -0.0000    0.8250    0.0000 N   0  0  0  0  0  0  0  0  0  0  0  0
   -0.7145   -0.4125    0.0000 N   0  0  0  0  0  0  0  0  0  0  0  0
   -0.7145   -1.2375    0.0000 C   0  0  0  0  0  0  0  0  0  0  0  0
   -1.4289    0.0000    0.0000 C   0  0  0  0  0  0  0  0  0  0  0  0
    2.1434   -0.4125    0.0000 N   0  0  0  0  0  0  0  0  0  0  0  0
    2.1434   -1.2375    0.0000 C   0  0  0  0  0  0  0  0  0  0  0  0
    2.8579    0.0000    0.0000 C   0  0  0  0  0  0  0  0  0  0  0  0
    1.8414    1.7605    0.0000 H   0  0  0  0  0  0  0  0  0  0  0  0
    2.1434    2.8875    0.0000 H   0  0  0  0  0  0  0  0  0  0  0  0
    1.0164    3.1895    0.0000 H   0  0  0  0  0  0  0  0  0  0  0  0
    0.4125    3.1895    0.0000 H   0  0  0  0  0  0  0  0  0  0  0  0
   -0.7145    2.8875    0.0000 H   0  0  0  0  0  0  0  0  0  0  0  0
   -0.4125    1.7605    0.0000 H   0  0  0  0  0  0  0  0  0  0  0  0
   -1.5395   -1.2375    0.0000 H   0  0  0  0  0  0  0  0  0  0  0  0
   -0.7145   -2.0625    0.0000 H   0  0  0  0  0  0  0  0  0  0  0  0
    0.1105   -1.2375    0.0000 H   0  0  0  0  0  0  0  0  0  0  0  0
   -1.0164    0.7145    0.0000 H   0  0  0  0  0  0  0  0  0  0  0  0
   -2.1434    0.4125    0.0000 H   0  0  0  0  0  0  0  0  0  0  0  0
   -1.8414   -0.7145    0.0000 H   0  0  0  0  0  0  0  0  0  0  0  0
    1.3184   -1.2375    0.0000 H   0  0  0  0  0  0  0  0  0  0  0  0
    2.1434   -2.0625    0.0000 H   0  0  0  0  0  0  0  0  0  0  0  0
    2.9684   -1.2375    0.0000 H   0  0  0  0  0  0  0  0  0  0  0  0
    3.2704   -0.7145    0.0000 H   0  0  0  0  0  0  0  0  0  0  0  0
    3.5724    0.4125    0.0000 H   0  0  0  0  0  0  0  0  0  0  0  0
    2.4454    0.7145    0.0000 H   0  0  0  0  0  0  0  0  0  0  0  0
  1  2  1  0  0  0  0
  2  3  1  0  0  0  0
  2  4  1  0  0  0  0
  4  5  4  0  0  0  0
  5  6  4  0  0  0  0
  6  7  4  0  0  0  0
  7  8  4  0  0  0  0
  8  9  4  0  0  0  0
  4  9  4  0  0  0  0
  8 10  1  0  0  0  0
 10 11  1  0  0  0  0
 10 12  1  0  0  0  0
  6 13  1  0  0  0  0
 13 14  1  0  0  0  0
 13 15  1  0  0  0  0
  1 16  1  0  0  0  0
  1 17  1  0  0  0  0
  1 18  1  0  0  0  0
  3 19  1  0  0  0  0
  3 20  1  0  0  0  0
  3 21  1  0  0  0  0
 11 22  1  0  0  0  0
 11 23  1  0  0  0  0
 11 24  1  0  0  0  0
 12 25  1  0  0  0  0
 12 26  1  0  0  0  0
 12 27  1  0  0  0  0
 14 28  1  0  0  0  0
 14 29  1  0  0  0  0
 14 30  1  0  0  0  0
 15 31  1  0  0  0  0
 15 32  1  0  0  0  0
 15 33  1  0  0  0  0
M  END
>  <InChIKey>
InChI=1S/C9H18N6/c1-13(2)7-10-8(14(3)4)12-9(11-7)15(5)6/h1-6H3

>  <CASRN>
645-05-6

> <Outcome>
0

>  <Index>
2994

>  <StandardizerResult>
Dearomatize (ID: Dearomatize)
Clear Stereo (ID: ClearStereo)
Wedge Clean (ID: WedgeClean)
Mesomerize (ID: Mesomerize)
Tautomerize (ID: Tautomerize)
Aromatize (ID: Aromatize)
Add Explicit Hydrogens (ID: AddExplicitH)
Neutralize (ID: Neutralize)
Clean 2D (ID: Clean2D)

> <knn Distance>
4.12310552597046

> <CpId>
2994

$$$$
3056
  Mrv1532301301811342D          

 58 59  0  0  0  0            999 V2000
   -3.4387  -10.5497    0.0000 O   0  0  0  0  0  0  0  0  0  0  0  0
   -4.0518   -9.9976    0.0000 C   0  0  0  0  0  0  0  0  0  0  0  0
   -4.8365  -10.2526    0.0000 C   0  0  0  0  0  0  0  0  0  0  0  0
   -5.0080  -11.0595    0.0000 O   0  0  0  0  0  0  0  0  0  0  0  0
   -5.7926  -11.3145    0.0000 C   0  0  0  0  0  0  0  0  0  0  0  0
   -5.9641  -12.1215    0.0000 C   0  0  0  0  0  0  0  0  0  0  0  0
   -6.7488  -12.3764    0.0000 C   0  0  0  0  0  0  0  0  0  0  0  0
   -7.3618  -11.8244    0.0000 C   0  0  0  0  0  0  0  0  0  0  0  0
   -7.1903  -11.0174    0.0000 C   0  0  0  0  0  0  0  0  0  0  0  0
   -7.8034  -10.4654    0.0000 Cl  0  0  0  0  0  0  0  0  0  0  0  0
   -6.4057  -10.7624    0.0000 C   0  0  0  0  0  0  0  0  0  0  0  0
   -3.8803   -9.1907    0.0000 C   0  0  0  0  0  0  0  0  0  0  0  0
   -3.0957   -8.9357    0.0000 C   0  0  0  0  0  0  0  0  0  0  0  0
   -2.9242   -8.1287    0.0000 C   0  0  0  0  0  0  0  0  0  0  0  0
   -3.4762   -7.5157    0.0000 C   0  0  0  0  0  0  0  0  0  0  0  0
   -4.2967   -7.6019    0.0000 O   0  0  0  0  0  0  0  0  0  0  0  0
   -3.0637   -6.8012    0.0000 C   0  0  0  0  0  0  0  0  0  0  0  0
   -2.2567   -6.9727    0.0000 C   0  0  0  0  0  0  0  0  0  0  0  0
   -1.6436   -6.4207    0.0000 O   0  0  0  0  0  0  0  0  0  0  0  0
   -2.1705   -7.7932    0.0000 C   0  0  0  0  0  0  0  0  0  0  0  0
   -1.4560   -8.2057    0.0000 C   0  0  0  0  0  0  0  0  0  0  0  0
   -0.7415   -7.7932    0.0000 C   0  0  0  0  0  0  0  0  0  0  0  0
   -0.0271   -8.2057    0.0000 C   0  0  0  0  0  0  0  0  0  0  0  0
    0.6874   -7.7932    0.0000 C   0  0  0  0  0  0  0  0  0  0  0  0
    1.4019   -8.2057    0.0000 C   0  0  0  0  0  0  0  0  0  0  0  0
    2.1163   -7.7932    0.0000 C   0  0  0  0  0  0  0  0  0  0  0  0
    2.8308   -8.2057    0.0000 C   0  0  0  0  0  0  0  0  0  0  0  0
    3.5453   -7.7932    0.0000 O   0  0  0  0  0  0  0  0  0  0  0  0
    2.8308   -9.0307    0.0000 O   0  0  0  0  0  0  0  0  0  0  0  0
   -3.6103  -11.3566    0.0000 H   0  0  0  0  0  0  0  0  0  0  0  0
   -4.2234  -10.8046    0.0000 H   0  0  0  0  0  0  0  0  0  0  0  0
   -5.1366   -9.4841    0.0000 H   0  0  0  0  0  0  0  0  0  0  0  0
   -5.6321  -10.0344    0.0000 H   0  0  0  0  0  0  0  0  0  0  0  0
   -5.3510  -12.6735    0.0000 H   0  0  0  0  0  0  0  0  0  0  0  0
   -6.9203  -13.1834    0.0000 H   0  0  0  0  0  0  0  0  0  0  0  0
   -8.1465  -12.0793    0.0000 H   0  0  0  0  0  0  0  0  0  0  0  0
   -6.2342   -9.9555    0.0000 H   0  0  0  0  0  0  0  0  0  0  0  0
   -4.4934   -8.6386    0.0000 H   0  0  0  0  0  0  0  0  0  0  0  0
   -2.4826   -9.4878    0.0000 H   0  0  0  0  0  0  0  0  0  0  0  0
   -2.2830   -8.6479    0.0000 H   0  0  0  0  0  0  0  0  0  0  0  0
   -3.7718   -8.2859    0.0000 H   0  0  0  0  0  0  0  0  0  0  0  0
   -5.0547   -7.2762    0.0000 H   0  0  0  0  0  0  0  0  0  0  0  0
   -3.0061   -5.9782    0.0000 H   0  0  0  0  0  0  0  0  0  0  0  0
   -3.7138   -6.2933    0.0000 H   0  0  0  0  0  0  0  0  0  0  0  0
   -1.4865   -7.2684    0.0000 H   0  0  0  0  0  0  0  0  0  0  0  0
   -1.3784   -5.6395    0.0000 H   0  0  0  0  0  0  0  0  0  0  0  0
   -2.8850   -7.3807    0.0000 H   0  0  0  0  0  0  0  0  0  0  0  0
   -1.3289   -9.0208    0.0000 H   0  0  0  0  0  0  0  0  0  0  0  0
   -0.8308   -8.7439    0.0000 H   0  0  0  0  0  0  0  0  0  0  0  0
   -0.2973   -7.0980    0.0000 H   0  0  0  0  0  0  0  0  0  0  0  0
    0.4090   -8.9061    0.0000 H   0  0  0  0  0  0  0  0  0  0  0  0
    1.0577   -7.0559    0.0000 H   0  0  0  0  0  0  0  0  0  0  0  0
    0.3171   -7.0559    0.0000 H   0  0  0  0  0  0  0  0  0  0  0  0
    1.0316   -8.9429    0.0000 H   0  0  0  0  0  0  0  0  0  0  0  0
    1.7721   -8.9429    0.0000 H   0  0  0  0  0  0  0  0  0  0  0  0
    2.4866   -7.0559    0.0000 H   0  0  0  0  0  0  0  0  0  0  0  0
    1.7461   -7.0559    0.0000 H   0  0  0  0  0  0  0  0  0  0  0  0
    4.2598   -8.2057    0.0000 H   0  0  0  0  0  0  0  0  0  0  0  0
  1  2  1  0  0  0  0
  2  3  1  0  0  0  0
  3  4  1  0  0  0  0
  4  5  1  0  0  0  0
  5  6  4  0  0  0  0
  6  7  4  0  0  0  0
  7  8  4  0  0  0  0
  8  9  4  0  0  0  0
  9 10  1  0  0  0  0
  9 11  4  0  0  0  0
  5 11  4  0  0  0  0
 12  2  1  4  0  0  0
 12 13  2  0  0  0  0
 13 14  1  0  0  0  0
 14 15  1  0  0  0  0
 15 16  1  0  0  0  0
 15 17  1  0  0  0  0
 17 18  1  0  0  0  0
 18 19  1  0  0  0  0
 18 20  1  0  0  0  0
 14 20  1  0  0  0  0
 20 21  1  0  0  0  0
 22 21  1  4  0  0  0
 22 23  2  0  0  0  0
 23 24  1  0  0  0  0
 24 25  1  0  0  0  0
 25 26  1  0  0  0  0
 26 27  1  0  0  0  0
 27 28  1  0  0  0  0
 27 29  2  0  0  0  0
  1 30  1  0  0  0  0
  2 31  1  0  0  0  0
  3 32  1  0  0  0  0
  3 33  1  0  0  0  0
  6 34  1  0  0  0  0
  7 35  1  0  0  0  0
  8 36  1  0  0  0  0
 11 37  1  0  0  0  0
 12 38  1  0  0  0  0
 13 39  1  0  0  0  0
 14 40  1  0  0  0  0
 15 41  1  0  0  0  0
 16 42  1  0  0  0  0
 17 43  1  0  0  0  0
 17 44  1  0  0  0  0
 18 45  1  0  0  0  0
 19 46  1  0  0  0  0
 20 47  1  0  0  0  0
 21 48  1  0  0  0  0
 21 49  1  0  0  0  0
 22 50  1  0  0  0  0
 23 51  1  0  0  0  0
 24 52  1  0  0  0  0
 24 53  1  0  0  0  0
 25 54  1  0  0  0  0
 25 55  1  0  0  0  0
 26 56  1  0  0  0  0
 26 57  1  0  0  0  0
 28 58  1  0  0  0  0
M  END
>  <InChIKey>
InChI=1S/C22H29ClO6/c23-15-6-5-7-17(12-15)29-14-16(24)10-11-19-18(20(25)13-21(19)26)8-3-1-2-4-9-22(27)28/h1,3,5-7,10-12,16,18-21,24-26H,2,4,8-9,13-14H2,(H,27,28)

>  <CASRN>
40665-92-7

> <Outcome>
0

>  <Index>
3056

>  <StandardizerResult>
Dearomatize (ID: Dearomatize)
Clear Stereo (ID: ClearStereo)
Wedge Clean (ID: WedgeClean)
Mesomerize (ID: Mesomerize)
Tautomerize (ID: Tautomerize)
Aromatize (ID: Aromatize)
Add Explicit Hydrogens (ID: AddExplicitH)
Neutralize (ID: Neutralize)
Clean 2D (ID: Clean2D)

> <knn Distance>
4.12310552597046

> <CpId>
3056

$$$$
3060
  Mrv1532301301811342D          

 62 63  0  0  0  0            999 V2000
    6.3123    1.5286    0.0000 C   0  0  0  0  0  0  0  0  0  0  0  0
    7.0268    1.1161    0.0000 C   0  0  0  0  0  0  0  0  0  0  0  0
    7.7412    1.5286    0.0000 C   0  0  0  0  0  0  0  0  0  0  0  0
    8.4557    1.1161    0.0000 C   0  0  0  0  0  0  0  0  0  0  0  0
    9.1702    1.5286    0.0000 C   0  0  0  0  0  0  0  0  0  0  0  0
    9.8847    1.1161    0.0000 C   0  0  0  0  0  0  0  0  0  0  0  0
    9.8847    0.2911    0.0000 O   0  0  0  0  0  0  0  0  0  0  0  0
   10.5991    1.5286    0.0000 C   0  0  0  0  0  0  0  0  0  0  0  0
   11.3136    1.1161    0.0000 C   0  0  0  0  0  0  0  0  0  0  0  0
   12.0281    1.5286    0.0000 C   0  0  0  0  0  0  0  0  0  0  0  0
   12.1143    2.3491    0.0000 C   0  0  0  0  0  0  0  0  0  0  0  0
   11.5012    2.9011    0.0000 O   0  0  0  0  0  0  0  0  0  0  0  0
   12.9213    2.5206    0.0000 C   0  0  0  0  0  0  0  0  0  0  0  0
   13.3338    1.8061    0.0000 C   0  0  0  0  0  0  0  0  0  0  0  0
   13.8858    2.4192    0.0000 C   0  0  0  0  0  0  0  0  0  0  0  0
   14.0875    1.4706    0.0000 C   0  0  0  0  0  0  0  0  0  0  0  0
   14.0012    0.6501    0.0000 C   0  0  0  0  0  0  0  0  0  0  0  0
   13.1942    0.4786    0.0000 C   0  0  0  0  0  0  0  0  0  0  0  0
   12.7817    1.1930    0.0000 C   0  0  0  0  0  0  0  0  0  0  0  0
   14.6143    0.0981    0.0000 C   0  0  0  0  0  0  0  0  0  0  0  0
   15.3989    0.3530    0.0000 C   0  0  0  0  0  0  0  0  0  0  0  0
   16.0120   -0.1990    0.0000 C   0  0  0  0  0  0  0  0  0  0  0  0
   16.7967    0.0559    0.0000 C   0  0  0  0  0  0  0  0  0  0  0  0
   17.4097   -0.4961    0.0000 C   0  0  0  0  0  0  0  0  0  0  0  0
   18.1944   -0.2412    0.0000 O   0  0  0  0  0  0  0  0  0  0  0  0
   17.2382   -1.3031    0.0000 O   0  0  0  0  0  0  0  0  0  0  0  0
    6.7248    2.2431    0.0000 H   0  0  0  0  0  0  0  0  0  0  0  0
    5.5978    1.9411    0.0000 H   0  0  0  0  0  0  0  0  0  0  0  0
    5.8998    0.8141    0.0000 H   0  0  0  0  0  0  0  0  0  0  0  0
    6.6565    0.3789    0.0000 H   0  0  0  0  0  0  0  0  0  0  0  0
    7.3970    0.3789    0.0000 H   0  0  0  0  0  0  0  0  0  0  0  0
    8.1115    2.2659    0.0000 H   0  0  0  0  0  0  0  0  0  0  0  0
    7.3710    2.2659    0.0000 H   0  0  0  0  0  0  0  0  0  0  0  0
    8.0855    0.3789    0.0000 H   0  0  0  0  0  0  0  0  0  0  0  0
    8.8260    0.3789    0.0000 H   0  0  0  0  0  0  0  0  0  0  0  0
    9.5404    2.2659    0.0000 H   0  0  0  0  0  0  0  0  0  0  0  0
    8.7999    2.2659    0.0000 H   0  0  0  0  0  0  0  0  0  0  0  0
    9.1702    0.7036    0.0000 H   0  0  0  0  0  0  0  0  0  0  0  0
   10.2972   -0.4234    0.0000 H   0  0  0  0  0  0  0  0  0  0  0  0
   10.5991    2.3536    0.0000 H   0  0  0  0  0  0  0  0  0  0  0  0
   11.3136    0.2911    0.0000 H   0  0  0  0  0  0  0  0  0  0  0  0
   12.0712    0.7047    0.0000 H   0  0  0  0  0  0  0  0  0  0  0  0
   11.3441    2.0534    0.0000 H   0  0  0  0  0  0  0  0  0  0  0  0
   11.2360    3.6823    0.0000 H   0  0  0  0  0  0  0  0  0  0  0  0
   13.1899    3.3007    0.0000 H   0  0  0  0  0  0  0  0  0  0  0  0
   12.5726    3.2683    0.0000 H   0  0  0  0  0  0  0  0  0  0  0  0
   14.6827    2.2057    0.0000 H   0  0  0  0  0  0  0  0  0  0  0  0
   14.4378    3.0323    0.0000 H   0  0  0  0  0  0  0  0  0  0  0  0
   13.5902    3.1894    0.0000 H   0  0  0  0  0  0  0  0  0  0  0  0
   14.8497    1.1549    0.0000 H   0  0  0  0  0  0  0  0  0  0  0  0
   13.3730    1.0581    0.0000 H   0  0  0  0  0  0  0  0  0  0  0  0
   12.5441   -0.0293    0.0000 H   0  0  0  0  0  0  0  0  0  0  0  0
   13.2518   -0.3444    0.0000 H   0  0  0  0  0  0  0  0  0  0  0  0
   12.6102    2.0000    0.0000 H   0  0  0  0  0  0  0  0  0  0  0  0
   14.4428   -0.7089    0.0000 H   0  0  0  0  0  0  0  0  0  0  0  0
   15.9144    0.9972    0.0000 H   0  0  0  0  0  0  0  0  0  0  0  0
   15.1900    1.1511    0.0000 H   0  0  0  0  0  0  0  0  0  0  0  0
   15.4966   -0.8432    0.0000 H   0  0  0  0  0  0  0  0  0  0  0  0
   16.2209   -0.9971    0.0000 H   0  0  0  0  0  0  0  0  0  0  0  0
   17.3121    0.7001    0.0000 H   0  0  0  0  0  0  0  0  0  0  0  0
   16.5878    0.8540    0.0000 H   0  0  0  0  0  0  0  0  0  0  0  0
   18.8075   -0.7932    0.0000 H   0  0  0  0  0  0  0  0  0  0  0  0
  1  2  1  0  0  0  0
  2  3  1  0  0  0  0
  3  4  1  0  0  0  0
  4  5  1  0  0  0  0
  5  6  1  0  0  0  0
  6  7  1  0  0  0  0
  8  6  1  4  0  0  0
  8  9  2  0  0  0  0
  9 10  1  0  0  0  0
 10 11  1  0  0  0  0
 11 12  1  0  0  0  0
 11 13  1  0  0  0  0
 13 14  1  0  0  0  0
 14 15  1  0  0  0  0
 14 16  1  0  0  0  0
 16 17  1  0  0  0  0
 17 18  1  0  0  0  0
 18 19  1  0  0  0  0
 10 19  1  0  0  0  0
 14 19  1  0  0  0  0
 17 20  2  0  0  0  0
 20 21  1  4  0  0  0
 21 22  1  0  0  0  0
 22 23  1  0  0  0  0
 23 24  1  0  0  0  0
 24 25  1  0  0  0  0
 24 26  2  0  0  0  0
  1 27  1  0  0  0  0
  1 28  1  0  0  0  0
  1 29  1  0  0  0  0
  2 30  1  0  0  0  0
  2 31  1  0  0  0  0
  3 32  1  0  0  0  0
  3 33  1  0  0  0  0
  4 34  1  0  0  0  0
  4 35  1  0  0  0  0
  5 36  1  0  0  0  0
  5 37  1  0  0  0  0
  6 38  1  0  0  0  0
  7 39  1  0  0  0  0
  8 40  1  0  0  0  0
  9 41  1  0  0  0  0
 10 42  1  0  0  0  0
 11 43  1  0  0  0  0
 12 44  1  0  0  0  0
 13 45  1  0  0  0  0
 13 46  1  0  0  0  0
 15 47  1  0  0  0  0
 15 48  1  0  0  0  0
 15 49  1  0  0  0  0
 16 50  1  0  0  0  0
 16 51  1  0  0  0  0
 18 52  1  0  0  0  0
 18 53  1  0  0  0  0
 19 54  1  0  0  0  0
 20 55  1  0  0  0  0
 21 56  1  0  0  0  0
 21 57  1  0  0  0  0
 22 58  1  0  0  0  0
 22 59  1  0  0  0  0
 23 60  1  0  0  0  0
 23 61  1  0  0  0  0
 25 62  1  0  0  0  0
M  END
>  <InChIKey>
InChI=1S/C22H36O4/c1-3-4-5-9-17(23)11-12-18-19-13-16(8-6-7-10-21(25)26)14-22(19,2)15-20(18)24/h8,11-12,17-20,23-24H,3-7,9-10,13-15H2,1-2H3,(H,25,26)

>  <CASRN>
81845-44-5

> <Outcome>
0

>  <Index>
3060

>  <StandardizerResult>
Clear Stereo (ID: ClearStereo)
Wedge Clean (ID: WedgeClean)
Mesomerize (ID: Mesomerize)
Tautomerize (ID: Tautomerize)
Add Explicit Hydrogens (ID: AddExplicitH)
Neutralize (ID: Neutralize)
Clean 2D (ID: Clean2D)

> <knn Distance>
4.12310552597046

> <CpId>
3060

$$$$
3145
  Mrv1532301301811342D          

 22 22  0  0  0  0            999 V2000
   -0.7145    4.5375    0.0000 N   0  0  0  0  0  0  0  0  0  0  0  0
   -0.7145    3.7125    0.0000 C   0  0  0  0  0  0  0  0  0  0  0  0
   -1.4289    3.3000    0.0000 N   0  0  0  0  0  0  0  0  0  0  0  0
   -0.0000    3.3000    0.0000 N   0  0  0  0  0  0  0  0  0  0  0  0
   -0.0000    2.4750    0.0000 N   0  0  0  0  0  0  0  0  0  0  0  0
    0.7145    2.0625    0.0000 C   0  0  0  0  0  0  0  0  0  0  0  0
    0.7145    1.2375    0.0000 C   0  0  0  0  0  0  0  0  0  0  0  0
    1.4289    0.8250    0.0000 C   0  0  0  0  0  0  0  0  0  0  0  0
    2.1434    1.2375    0.0000 Cl  0  0  0  0  0  0  0  0  0  0  0  0
    1.4289   -0.0000    0.0000 C   0  0  0  0  0  0  0  0  0  0  0  0
    0.7145   -0.4125    0.0000 C   0  0  0  0  0  0  0  0  0  0  0  0
   -0.0000   -0.0000    0.0000 C   0  0  0  0  0  0  0  0  0  0  0  0
   -0.0000    0.8250    0.0000 C   0  0  0  0  0  0  0  0  0  0  0  0
   -0.7145    1.2375    0.0000 Cl  0  0  0  0  0  0  0  0  0  0  0  0
   -0.0000    4.9500    0.0000 H   0  0  0  0  0  0  0  0  0  0  0  0
   -1.4289    4.9500    0.0000 H   0  0  0  0  0  0  0  0  0  0  0  0
   -2.1434    3.7125    0.0000 H   0  0  0  0  0  0  0  0  0  0  0  0
    0.7145    3.7125    0.0000 H   0  0  0  0  0  0  0  0  0  0  0  0
    1.4289    2.4750    0.0000 H   0  0  0  0  0  0  0  0  0  0  0  0
    2.1434   -0.4125    0.0000 H   0  0  0  0  0  0  0  0  0  0  0  0
    0.7145   -1.2375    0.0000 H   0  0  0  0  0  0  0  0  0  0  0  0
   -0.7145   -0.4125    0.0000 H   0  0  0  0  0  0  0  0  0  0  0  0
  1  2  1  0  0  0  0
  2  3  2  0  0  0  0
  2  4  1  0  0  0  0
  5  4  1  4  0  0  0
  5  6  2  0  0  0  0
  6  7  1  0  0  0  0
  7  8  4  0  0  0  0
  8  9  1  0  0  0  0
  8 10  4  0  0  0  0
 10 11  4  0  0  0  0
 11 12  4  0  0  0  0
 12 13  4  0  0  0  0
  7 13  4  0  0  0  0
 13 14  1  0  0  0  0
  1 15  1  0  0  0  0
  1 16  1  0  0  0  0
  3 17  1  0  0  0  0
  4 18  1  0  0  0  0
  6 19  1  0  0  0  0
 10 20  1  0  0  0  0
 11 21  1  0  0  0  0
 12 22  1  0  0  0  0
M  END
>  <InChIKey>
InChI=1S/C8H8Cl2N4/c9-6-2-1-3-7(10)5(6)4-13-14-8(11)12/h1-4H,(H4,11,12,14)

>  <CASRN>
5051-62-7

> <Outcome>
0

>  <Index>
3145

>  <StandardizerResult>
Dearomatize (ID: Dearomatize)
Clear Stereo (ID: ClearStereo)
Wedge Clean (ID: WedgeClean)
Mesomerize (ID: Mesomerize)
Tautomerize (ID: Tautomerize)
Aromatize (ID: Aromatize)
Add Explicit Hydrogens (ID: AddExplicitH)
Neutralize (ID: Neutralize)
Clean 2D (ID: Clean2D)

> <knn Distance>
4.12310552597046

> <CpId>
3145

$$$$
3161
  Mrv1532301301811342D          

 48 49  0  0  0  0            999 V2000
   -3.9206   -1.1907    0.0000 C   0  0  0  0  0  0  0  0  0  0  0  0
   -3.1105   -1.0348    0.0000 C   0  0  0  0  0  0  0  0  0  0  0  0
   -2.5704   -1.6584    0.0000 N   0  0  0  0  0  0  0  0  0  0  0  0
   -2.8404   -2.4380    0.0000 C   0  0  0  0  0  0  0  0  0  0  0  0
   -3.6506   -2.5939    0.0000 C   0  0  0  0  0  0  0  0  0  0  0  0
   -1.7603   -1.5025    0.0000 C   0  0  0  0  0  0  0  0  0  0  0  0
   -1.2202   -2.1262    0.0000 C   0  0  0  0  0  0  0  0  0  0  0  0
   -0.4100   -1.9703    0.0000 S   0  0  0  0  0  0  0  0  0  0  0  0
    0.1300   -2.5939    0.0000 C   0  0  0  0  0  0  0  0  0  0  0  0
   -0.1400   -3.3735    0.0000 O   0  0  0  0  0  0  0  0  0  0  0  0
    0.9402   -2.4380    0.0000 C   0  0  0  0  0  0  0  0  0  0  0  0
    1.4803   -3.0616    0.0000 C   0  0  0  0  0  0  0  0  0  0  0  0
    2.2904   -2.9057    0.0000 C   0  0  0  0  0  0  0  0  0  0  0  0
    2.8305   -3.5294    0.0000 C   0  0  0  0  0  0  0  0  0  0  0  0
    2.5604   -4.3089    0.0000 C   0  0  0  0  0  0  0  0  0  0  0  0
    1.7503   -4.4648    0.0000 C   0  0  0  0  0  0  0  0  0  0  0  0
    1.2102   -3.8412    0.0000 C   0  0  0  0  0  0  0  0  0  0  0  0
    1.2102   -1.6584    0.0000 C   0  0  0  0  0  0  0  0  0  0  0  0
    0.6701   -1.0348    0.0000 C   0  0  0  0  0  0  0  0  0  0  0  0
    0.9402   -0.2552    0.0000 C   0  0  0  0  0  0  0  0  0  0  0  0
    1.7503   -0.0993    0.0000 C   0  0  0  0  0  0  0  0  0  0  0  0
    2.2904   -0.7230    0.0000 C   0  0  0  0  0  0  0  0  0  0  0  0
    2.0204   -1.5025    0.0000 C   0  0  0  0  0  0  0  0  0  0  0  0
   -4.0765   -0.3806    0.0000 H   0  0  0  0  0  0  0  0  0  0  0  0
   -4.7308   -1.3466    0.0000 H   0  0  0  0  0  0  0  0  0  0  0  0
   -3.7647   -2.0008    0.0000 H   0  0  0  0  0  0  0  0  0  0  0  0
   -2.5193   -0.4594    0.0000 H   0  0  0  0  0  0  0  0  0  0  0  0
   -3.2190   -0.2170    0.0000 H   0  0  0  0  0  0  0  0  0  0  0  0
   -2.6377   -3.2377    0.0000 H   0  0  0  0  0  0  0  0  0  0  0  0
   -2.0779   -2.7529    0.0000 H   0  0  0  0  0  0  0  0  0  0  0  0
   -4.4587   -2.4279    0.0000 H   0  0  0  0  0  0  0  0  0  0  0  0
   -4.1132   -3.2770    0.0000 H   0  0  0  0  0  0  0  0  0  0  0  0
   -3.1965   -3.2827    0.0000 H   0  0  0  0  0  0  0  0  0  0  0  0
   -1.1691   -0.9271    0.0000 H   0  0  0  0  0  0  0  0  0  0  0  0
   -1.8688   -0.6847    0.0000 H   0  0  0  0  0  0  0  0  0  0  0  0
   -1.8114   -2.7016    0.0000 H   0  0  0  0  0  0  0  0  0  0  0  0
   -1.1116   -2.9440    0.0000 H   0  0  0  0  0  0  0  0  0  0  0  0
    0.6701   -3.2175    0.0000 H   0  0  0  0  0  0  0  0  0  0  0  0
    2.5604   -2.1262    0.0000 H   0  0  0  0  0  0  0  0  0  0  0  0
    3.6406   -3.3735    0.0000 H   0  0  0  0  0  0  0  0  0  0  0  0
    3.1005   -4.9326    0.0000 H   0  0  0  0  0  0  0  0  0  0  0  0
    1.4803   -5.2444    0.0000 H   0  0  0  0  0  0  0  0  0  0  0  0
    0.5866   -4.3813    0.0000 H   0  0  0  0  0  0  0  0  0  0  0  0
   -0.1400   -1.1907    0.0000 H   0  0  0  0  0  0  0  0  0  0  0  0
    0.4001    0.3684    0.0000 H   0  0  0  0  0  0  0  0  0  0  0  0
    2.0204    0.6802    0.0000 H   0  0  0  0  0  0  0  0  0  0  0  0
    3.1005   -0.5671    0.0000 H   0  0  0  0  0  0  0  0  0  0  0  0
    1.7503   -2.2821    0.0000 H   0  0  0  0  0  0  0  0  0  0  0  0
  1  2  1  0  0  0  0
  2  3  1  0  0  0  0
  3  4  1  0  0  0  0
  4  5  1  0  0  0  0
  3  6  1  0  0  0  0
  6  7  1  0  0  0  0
  7  8  1  0  0  0  0
  8  9  1  0  0  0  0
  9 10  2  0  0  0  0
  9 11  1  0  0  0  0
 11 12  1  0  0  0  0
 12 13  4  0  0  0  0
 13 14  4  0  0  0  0
 14 15  4  0  0  0  0
 15 16  4  0  0  0  0
 16 17  4  0  0  0  0
 12 17  4  0  0  0  0
 11 18  1  0  0  0  0
 18 19  4  0  0  0  0
 19 20  4  0  0  0  0
 20 21  4  0  0  0  0
 21 22  4  0  0  0  0
 22 23  4  0  0  0  0
 18 23  4  0  0  0  0
  1 24  1  0  0  0  0
  1 25  1  0  0  0  0
  1 26  1  0  0  0  0
  2 27  1  0  0  0  0
  2 28  1  0  0  0  0
  4 29  1  0  0  0  0
  4 30  1  0  0  0  0
  5 31  1  0  0  0  0
  5 32  1  0  0  0  0
  5 33  1  0  0  0  0
  6 34  1  0  0  0  0
  6 35  1  0  0  0  0
  7 36  1  0  0  0  0
  7 37  1  0  0  0  0
 11 38  1  0  0  0  0
 13 39  1  0  0  0  0
 14 40  1  0  0  0  0
 15 41  1  0  0  0  0
 16 42  1  0  0  0  0
 17 43  1  0  0  0  0
 19 44  1  0  0  0  0
 20 45  1  0  0  0  0
 21 46  1  0  0  0  0
 22 47  1  0  0  0  0
 23 48  1  0  0  0  0
M  END
>  <InChIKey>
InChI=1S/C20H25NOS/c1-3-21(4-2)15-16-23-20(22)19(17-11-7-5-8-12-17)18-13-9-6-10-14-18/h5-14,19H,3-4,15-16H2,1-2H3

>  <CASRN>
82-99-5

> <Outcome>
0

>  <Index>
3161

>  <StandardizerResult>
Dearomatize (ID: Dearomatize)
Clear Stereo (ID: ClearStereo)
Wedge Clean (ID: WedgeClean)
Mesomerize (ID: Mesomerize)
Tautomerize (ID: Tautomerize)
Aromatize (ID: Aromatize)
Add Explicit Hydrogens (ID: AddExplicitH)
Neutralize (ID: Neutralize)
Clean 2D (ID: Clean2D)

> <knn Distance>
4.12310552597046

> <CpId>
3161

$$$$
3227
  Mrv1532301301811342D          

 51 54  0  0  0  0            999 V2000
    4.0179   -3.9837    0.0000 C   0  0  0  0  0  0  0  0  0  0  0  0
    3.5549   -3.3008    0.0000 C   0  0  0  0  0  0  0  0  0  0  0  0
    3.9148   -2.5584    0.0000 C   0  0  0  0  0  0  0  0  0  0  0  0
    4.4466   -3.1891    0.0000 C   0  0  0  0  0  0  0  0  0  0  0  0
    5.2587   -3.0439    0.0000 C   0  0  0  0  0  0  0  0  0  0  0  0
    5.5390   -2.2680    0.0000 C   0  0  0  0  0  0  0  0  0  0  0  0
    5.0072   -1.6373    0.0000 C   0  0  0  0  0  0  0  0  0  0  0  0
    5.2875   -0.8614    0.0000 C   0  0  0  0  0  0  0  0  0  0  0  0
    6.0996   -0.7162    0.0000 C   0  0  0  0  0  0  0  0  0  0  0  0
    6.6315   -1.3469    0.0000 C   0  0  0  0  0  0  0  0  0  0  0  0
    7.4436   -1.2017    0.0000 C   0  0  0  0  0  0  0  0  0  0  0  0
    7.9754   -1.8324    0.0000 C   0  0  0  0  0  0  0  0  0  0  0  0
    8.7875   -1.6871    0.0000 O   0  0  0  0  0  0  0  0  0  0  0  0
    7.6951   -2.6083    0.0000 C   0  0  0  0  0  0  0  0  0  0  0  0
    6.8830   -2.7535    0.0000 C   0  0  0  0  0  0  0  0  0  0  0  0
    6.3512   -2.1228    0.0000 C   0  0  0  0  0  0  0  0  0  0  0  0
    4.1951   -1.7825    0.0000 C   0  0  0  0  0  0  0  0  0  0  0  0
    3.5438   -1.2762    0.0000 C   0  0  0  0  0  0  0  0  0  0  0  0
    2.8609   -1.7391    0.0000 C   0  0  0  0  0  0  0  0  0  0  0  0
    3.0902   -2.5316    0.0000 C   0  0  0  0  0  0  0  0  0  0  0  0
    2.3294   -2.8505    0.0000 O   0  0  0  0  0  0  0  0  0  0  0  0
    2.9688   -3.3476    0.0000 C   0  0  0  0  0  0  0  0  0  0  0  0
    2.8474   -4.1637    0.0000 C   0  0  0  0  0  0  0  0  0  0  0  0
    3.2356   -4.2456    0.0000 H   0  0  0  0  0  0  0  0  0  0  0  0
    4.0596   -4.8076    0.0000 H   0  0  0  0  0  0  0  0  0  0  0  0
    4.8226   -4.1654    0.0000 H   0  0  0  0  0  0  0  0  0  0  0  0
    2.9658   -3.8783    0.0000 H   0  0  0  0  0  0  0  0  0  0  0  0
    3.4727   -4.1217    0.0000 H   0  0  0  0  0  0  0  0  0  0  0  0
    4.9303   -3.8575    0.0000 H   0  0  0  0  0  0  0  0  0  0  0  0
    4.7269   -2.4132    0.0000 H   0  0  0  0  0  0  0  0  0  0  0  0
    5.8799   -3.5869    0.0000 H   0  0  0  0  0  0  0  0  0  0  0  0
    6.0837   -3.0538    0.0000 H   0  0  0  0  0  0  0  0  0  0  0  0
    5.8193   -1.4921    0.0000 H   0  0  0  0  0  0  0  0  0  0  0  0
    4.4754   -1.0066    0.0000 H   0  0  0  0  0  0  0  0  0  0  0  0
    5.4288   -0.0486    0.0000 H   0  0  0  0  0  0  0  0  0  0  0  0
    4.8733   -0.1479    0.0000 H   0  0  0  0  0  0  0  0  0  0  0  0
    6.8641   -0.4060    0.0000 H   0  0  0  0  0  0  0  0  0  0  0  0
    6.4717    0.0202    0.0000 H   0  0  0  0  0  0  0  0  0  0  0  0
    7.7239   -0.4257    0.0000 H   0  0  0  0  0  0  0  0  0  0  0  0
    7.8873   -3.4106    0.0000 H   0  0  0  0  0  0  0  0  0  0  0  0
    8.4534   -2.9332    0.0000 H   0  0  0  0  0  0  0  0  0  0  0  0
    7.1016   -3.5490    0.0000 H   0  0  0  0  0  0  0  0  0  0  0  0
    7.1633   -1.9776    0.0000 H   0  0  0  0  0  0  0  0  0  0  0  0
    5.7386   -2.6754    0.0000 H   0  0  0  0  0  0  0  0  0  0  0  0
    3.4026   -2.0118    0.0000 H   0  0  0  0  0  0  0  0  0  0  0  0
    3.4986   -0.4524    0.0000 H   0  0  0  0  0  0  0  0  0  0  0  0
    2.9391   -0.7150    0.0000 H   0  0  0  0  0  0  0  0  0  0  0  0
    2.3074   -1.1274    0.0000 H   0  0  0  0  0  0  0  0  0  0  0  0
    2.0442   -1.8559    0.0000 H   0  0  0  0  0  0  0  0  0  0  0  0
    1.5115   -2.7419    0.0000 H   0  0  0  0  0  0  0  0  0  0  0  0
    2.1700   -4.6346    0.0000 H   0  0  0  0  0  0  0  0  0  0  0  0
  1  2  1  0  0  0  0
  2  3  1  0  0  0  0
  3  4  1  0  0  0  0
  4  5  1  0  0  0  0
  5  6  1  0  0  0  0
  6  7  1  0  0  0  0
  7  8  1  0  0  0  0
  8  9  1  0  0  0  0
  9 10  1  0  0  0  0
 10 11  2  0  0  0  0
 11 12  1  0  0  0  0
 12 13  2  0  0  0  0
 12 14  1  0  0  0  0
 14 15  1  0  0  0  0
 15 16  1  0  0  0  0
  6 16  1  0  0  0  0
 10 16  1  0  0  0  0
  7 17  1  0  0  0  0
  3 17  1  0  0  0  0
 17 18  1  0  0  0  0
 18 19  1  0  0  0  0
 19 20  1  0  0  0  0
  3 20  1  0  0  0  0
 20 21  1  0  0  0  0
 20 22  1  0  0  0  0
 22 23  3  0  0  0  0
  1 24  1  0  0  0  0
  1 25  1  0  0  0  0
  1 26  1  0  0  0  0
  2 27  1  0  0  0  0
  2 28  1  0  0  0  0
  4 29  1  0  0  0  0
  4 30  1  0  0  0  0
  5 31  1  0  0  0  0
  5 32  1  0  0  0  0
  6 33  1  0  0  0  0
  7 34  1  0  0  0  0
  8 35  1  0  0  0  0
  8 36  1  0  0  0  0
  9 37  1  0  0  0  0
  9 38  1  0  0  0  0
 11 39  1  0  0  0  0
 14 40  1  0  0  0  0
 14 41  1  0  0  0  0
 15 42  1  0  0  0  0
 15 43  1  0  0  0  0
 16 44  1  0  0  0  0
 17 45  1  0  0  0  0
 18 46  1  0  0  0  0
 18 47  1  0  0  0  0
 19 48  1  0  0  0  0
 19 49  1  0  0  0  0
 21 50  1  0  0  0  0
 23 51  1  0  0  0  0
M  END
>  <InChIKey>
InChI=1S/C21H28O2/c1-3-20-11-9-17-16-8-6-15(22)13-14(16)5-7-18(17)19(20)10-12-21(20,23)4-2/h2,13,16-19,23H,3,5-12H2,1H3

>  <CASRN>
6533-00-2 797-63-7

> <Outcome>
0

>  <Index>
3227

>  <StandardizerResult>
Clear Stereo (ID: ClearStereo)
Wedge Clean (ID: WedgeClean)
Mesomerize (ID: Mesomerize)
Tautomerize (ID: Tautomerize)
Add Explicit Hydrogens (ID: AddExplicitH)
Neutralize (ID: Neutralize)
Clean 2D (ID: Clean2D)

> <knn Distance>
4.12310552597046

> <CpId>
3227

$$$$
3243
  Mrv1532301301811342D          

 47 47  0  0  0  0            999 V2000
    2.1235   -5.3632    0.0000 C   0  0  0  0  0  0  0  0  0  0  0  0
    2.8379   -4.9507    0.0000 C   0  0  0  0  0  0  0  0  0  0  0  0
    3.5524   -5.3632    0.0000 C   0  0  0  0  0  0  0  0  0  0  0  0
    4.2669   -4.9507    0.0000 C   0  0  0  0  0  0  0  0  0  0  0  0
    4.9813   -5.3632    0.0000 C   0  0  0  0  0  0  0  0  0  0  0  0
    4.9813   -6.1882    0.0000 C   0  0  0  0  0  0  0  0  0  0  0  0
    5.6958   -6.6007    0.0000 C   0  0  0  0  0  0  0  0  0  0  0  0
    5.6958   -4.9507    0.0000 C   0  0  0  0  0  0  0  0  0  0  0  0
    6.4103   -5.3632    0.0000 O   0  0  0  0  0  0  0  0  0  0  0  0
    7.1248   -4.9507    0.0000 C   0  0  0  0  0  0  0  0  0  0  0  0
    7.1248   -4.1257    0.0000 O   0  0  0  0  0  0  0  0  0  0  0  0
    7.8392   -5.3632    0.0000 C   0  0  0  0  0  0  0  0  0  0  0  0
    8.5537   -4.9507    0.0000 C   0  0  0  0  0  0  0  0  0  0  0  0
    9.2682   -5.3632    0.0000 C   0  0  0  0  0  0  0  0  0  0  0  0
    9.2682   -6.1882    0.0000 C   0  0  0  0  0  0  0  0  0  0  0  0
    8.5537   -6.6007    0.0000 C   0  0  0  0  0  0  0  0  0  0  0  0
    7.8392   -6.1882    0.0000 C   0  0  0  0  0  0  0  0  0  0  0  0
    9.9826   -6.6007    0.0000 N   0  0  0  0  0  0  0  0  0  0  0  0
   10.6971   -6.1882    0.0000 C   0  0  0  0  0  0  0  0  0  0  0  0
    9.9826   -7.4257    0.0000 C   0  0  0  0  0  0  0  0  0  0  0  0
    1.7110   -4.6487    0.0000 H   0  0  0  0  0  0  0  0  0  0  0  0
    1.4090   -5.7757    0.0000 H   0  0  0  0  0  0  0  0  0  0  0  0
    2.5360   -6.0777    0.0000 H   0  0  0  0  0  0  0  0  0  0  0  0
    3.2082   -4.2135    0.0000 H   0  0  0  0  0  0  0  0  0  0  0  0
    2.4677   -4.2135    0.0000 H   0  0  0  0  0  0  0  0  0  0  0  0
    3.1821   -6.1005    0.0000 H   0  0  0  0  0  0  0  0  0  0  0  0
    3.9227   -6.1005    0.0000 H   0  0  0  0  0  0  0  0  0  0  0  0
    4.6371   -4.2135    0.0000 H   0  0  0  0  0  0  0  0  0  0  0  0
    3.8966   -4.2135    0.0000 H   0  0  0  0  0  0  0  0  0  0  0  0
    4.2669   -5.7757    0.0000 H   0  0  0  0  0  0  0  0  0  0  0  0
    4.3494   -6.7185    0.0000 H   0  0  0  0  0  0  0  0  0  0  0  0
    4.8381   -7.0007    0.0000 H   0  0  0  0  0  0  0  0  0  0  0  0
    5.8568   -7.4099    0.0000 H   0  0  0  0  0  0  0  0  0  0  0  0
    6.5200   -6.6367    0.0000 H   0  0  0  0  0  0  0  0  0  0  0  0
    5.9267   -5.8087    0.0000 H   0  0  0  0  0  0  0  0  0  0  0  0
    6.0661   -4.2135    0.0000 H   0  0  0  0  0  0  0  0  0  0  0  0
    5.3256   -4.2135    0.0000 H   0  0  0  0  0  0  0  0  0  0  0  0
    8.5537   -4.1257    0.0000 H   0  0  0  0  0  0  0  0  0  0  0  0
    9.9826   -4.9507    0.0000 H   0  0  0  0  0  0  0  0  0  0  0  0
    8.5537   -7.4257    0.0000 H   0  0  0  0  0  0  0  0  0  0  0  0
    7.1248   -6.6007    0.0000 H   0  0  0  0  0  0  0  0  0  0  0  0
   11.1096   -6.9027    0.0000 H   0  0  0  0  0  0  0  0  0  0  0  0
   11.4116   -5.7757    0.0000 H   0  0  0  0  0  0  0  0  0  0  0  0
   10.2846   -5.4737    0.0000 H   0  0  0  0  0  0  0  0  0  0  0  0
    9.1576   -7.4257    0.0000 H   0  0  0  0  0  0  0  0  0  0  0  0
    9.9826   -8.2507    0.0000 H   0  0  0  0  0  0  0  0  0  0  0  0
   10.8076   -7.4257    0.0000 H   0  0  0  0  0  0  0  0  0  0  0  0
  1  2  1  0  0  0  0
  2  3  1  0  0  0  0
  3  4  1  0  0  0  0
  4  5  1  0  0  0  0
  5  6  1  0  0  0  0
  6  7  1  0  0  0  0
  5  8  1  0  0  0  0
  8  9  1  0  0  0  0
  9 10  1  0  0  0  0
 10 11  2  0  0  0  0
 10 12  1  0  0  0  0
 12 13  4  0  0  0  0
 13 14  4  0  0  0  0
 14 15  4  0  0  0  0
 15 16  4  0  0  0  0
 16 17  4  0  0  0  0
 12 17  4  0  0  0  0
 15 18  1  0  0  0  0
 18 19  1  0  0  0  0
 18 20  1  0  0  0  0
  1 21  1  0  0  0  0
  1 22  1  0  0  0  0
  1 23  1  0  0  0  0
  2 24  1  0  0  0  0
  2 25  1  0  0  0  0
  3 26  1  0  0  0  0
  3 27  1  0  0  0  0
  4 28  1  0  0  0  0
  4 29  1  0  0  0  0
  5 30  1  0  0  0  0
  6 31  1  0  0  0  0
  6 32  1  0  0  0  0
  7 33  1  0  0  0  0
  7 34  1  0  0  0  0
  7 35  1  0  0  0  0
  8 36  1  0  0  0  0
  8 37  1  0  0  0  0
 13 38  1  0  0  0  0
 14 39  1  0  0  0  0
 16 40  1  0  0  0  0
 17 41  1  0  0  0  0
 19 42  1  0  0  0  0
 19 43  1  0  0  0  0
 19 44  1  0  0  0  0
 20 45  1  0  0  0  0
 20 46  1  0  0  0  0
 20 47  1  0  0  0  0
M  END
>  <InChIKey>
InChI=1S/C17H27NO2/c1-5-7-8-14(6-2)13-20-17(19)15-9-11-16(12-10-15)18(3)4/h9-12,14H,5-8,13H2,1-4H3

>  <UN GHS>
Non-irritant

>  <CASRN>
21245-02-3

> <Outcome>
0

>  <Index>
3243

>  <StandardizerResult>
Dearomatize (ID: Dearomatize)
Clear Stereo (ID: ClearStereo)
Wedge Clean (ID: WedgeClean)
Mesomerize (ID: Mesomerize)
Tautomerize (ID: Tautomerize)
Aromatize (ID: Aromatize)
Add Explicit Hydrogens (ID: AddExplicitH)
Neutralize (ID: Neutralize)
Clean 2D (ID: Clean2D)

> <knn Distance>
4.12310552597046

> <CpId>
3243

$$$$
3377
  Mrv1532301301811342D          

 42 42  0  0  0  0            999 V2000
    2.8875    4.6184    0.0000 C   0  0  0  0  0  0  0  0  0  0  0  0
    2.4750    3.9039    0.0000 C   0  0  0  0  0  0  0  0  0  0  0  0
    1.6500    3.9039    0.0000 C   0  0  0  0  0  0  0  0  0  0  0  0
    1.2375    3.1895    0.0000 C   0  0  0  0  0  0  0  0  0  0  0  0
    0.4125    3.1895    0.0000 O   0  0  0  0  0  0  0  0  0  0  0  0
   -0.0000    2.4750    0.0000 P   0  0  0  0  0  0  0  0  0  0  0  0
   -0.7145    2.8875    0.0000 O   0  0  0  0  0  0  0  0  0  0  0  0
   -0.4125    1.7605    0.0000 O   0  0  0  0  0  0  0  0  0  0  0  0
   -1.2375    1.7605    0.0000 C   0  0  0  0  0  0  0  0  0  0  0  0
   -1.6500    1.0461    0.0000 C   0  0  0  0  0  0  0  0  0  0  0  0
   -2.4750    1.0461    0.0000 C   0  0  0  0  0  0  0  0  0  0  0  0
   -2.8875    0.3316    0.0000 C   0  0  0  0  0  0  0  0  0  0  0  0
    0.7145    2.0625    0.0000 O   0  0  0  0  0  0  0  0  0  0  0  0
    0.7145    1.2375    0.0000 C   0  0  0  0  0  0  0  0  0  0  0  0
    1.4289    0.8250    0.0000 C   0  0  0  0  0  0  0  0  0  0  0  0
    1.4289    0.0000    0.0000 C   0  0  0  0  0  0  0  0  0  0  0  0
    0.7145   -0.4125    0.0000 C   0  0  0  0  0  0  0  0  0  0  0  0
   -0.0000    0.0000    0.0000 C   0  0  0  0  0  0  0  0  0  0  0  0
   -0.0000    0.8250    0.0000 C   0  0  0  0  0  0  0  0  0  0  0  0
    3.6020    4.2059    0.0000 H   0  0  0  0  0  0  0  0  0  0  0  0
    3.3000    5.3329    0.0000 H   0  0  0  0  0  0  0  0  0  0  0  0
    2.1730    5.0309    0.0000 H   0  0  0  0  0  0  0  0  0  0  0  0
    2.5230    3.0803    0.0000 H   0  0  0  0  0  0  0  0  0  0  0  0
    3.1643    3.4506    0.0000 H   0  0  0  0  0  0  0  0  0  0  0  0
    1.6020    4.7275    0.0000 H   0  0  0  0  0  0  0  0  0  0  0  0
    0.9607    4.3573    0.0000 H   0  0  0  0  0  0  0  0  0  0  0  0
    1.2855    2.3659    0.0000 H   0  0  0  0  0  0  0  0  0  0  0  0
    1.9268    2.7361    0.0000 H   0  0  0  0  0  0  0  0  0  0  0  0
   -1.2855    2.5841    0.0000 H   0  0  0  0  0  0  0  0  0  0  0  0
   -1.9268    2.2139    0.0000 H   0  0  0  0  0  0  0  0  0  0  0  0
   -1.6020    0.2225    0.0000 H   0  0  0  0  0  0  0  0  0  0  0  0
   -0.9607    0.5927    0.0000 H   0  0  0  0  0  0  0  0  0  0  0  0
   -2.5230    1.8697    0.0000 H   0  0  0  0  0  0  0  0  0  0  0  0
   -3.1643    1.4994    0.0000 H   0  0  0  0  0  0  0  0  0  0  0  0
   -3.6020    0.7441    0.0000 H   0  0  0  0  0  0  0  0  0  0  0  0
   -3.3000   -0.3829    0.0000 H   0  0  0  0  0  0  0  0  0  0  0  0
   -2.1730   -0.0809    0.0000 H   0  0  0  0  0  0  0  0  0  0  0  0
    2.1434    1.2375    0.0000 H   0  0  0  0  0  0  0  0  0  0  0  0
    2.1434   -0.4125    0.0000 H   0  0  0  0  0  0  0  0  0  0  0  0
    0.7145   -1.2375    0.0000 H   0  0  0  0  0  0  0  0  0  0  0  0
   -0.7145   -0.4125    0.0000 H   0  0  0  0  0  0  0  0  0  0  0  0
   -0.7145    1.2375    0.0000 H   0  0  0  0  0  0  0  0  0  0  0  0
  1  2  1  0  0  0  0
  2  3  1  0  0  0  0
  3  4  1  0  0  0  0
  4  5  1  0  0  0  0
  5  6  1  0  0  0  0
  6  7  2  0  0  0  0
  6  8  1  0  0  0  0
  8  9  1  0  0  0  0
  9 10  1  0  0  0  0
 10 11  1  0  0  0  0
 11 12  1  0  0  0  0
  6 13  1  0  0  0  0
 13 14  1  0  0  0  0
 14 15  4  0  0  0  0
 15 16  4  0  0  0  0
 16 17  4  0  0  0  0
 17 18  4  0  0  0  0
 18 19  4  0  0  0  0
 14 19  4  0  0  0  0
  1 20  1  0  0  0  0
  1 21  1  0  0  0  0
  1 22  1  0  0  0  0
  2 23  1  0  0  0  0
  2 24  1  0  0  0  0
  3 25  1  0  0  0  0
  3 26  1  0  0  0  0
  4 27  1  0  0  0  0
  4 28  1  0  0  0  0
  9 29  1  0  0  0  0
  9 30  1  0  0  0  0
 10 31  1  0  0  0  0
 10 32  1  0  0  0  0
 11 33  1  0  0  0  0
 11 34  1  0  0  0  0
 12 35  1  0  0  0  0
 12 36  1  0  0  0  0
 12 37  1  0  0  0  0
 15 38  1  0  0  0  0
 16 39  1  0  0  0  0
 17 40  1  0  0  0  0
 18 41  1  0  0  0  0
 19 42  1  0  0  0  0
M  END
>  <InChIKey>
InChI=1S/C14H23O4P/c1-3-5-12-16-19(15,17-13-6-4-2)18-14-10-8-7-9-11-14/h7-11H,3-6,12-13H2,1-2H3

>  <CASRN>
2528-36-1

> <Outcome>
0

>  <Index>
3377

>  <StandardizerResult>
Dearomatize (ID: Dearomatize)
Clear Stereo (ID: ClearStereo)
Wedge Clean (ID: WedgeClean)
Mesomerize (ID: Mesomerize)
Tautomerize (ID: Tautomerize)
Aromatize (ID: Aromatize)
Add Explicit Hydrogens (ID: AddExplicitH)
Neutralize (ID: Neutralize)
Clean 2D (ID: Clean2D)

> <knn Distance>
4.12310552597046

> <CpId>
3377

$$$$
3421
  Mrv1532301301811342D          

 21 20  0  0  0  0            999 V2000
    1.0461    1.4297    0.0000 C   0  0  0  0  0  0  0  0  0  0  0  0
    1.7605    1.8422    0.0000 O   0  0  0  0  0  0  0  0  0  0  0  0
    2.4750    1.4297    0.0000 C   0  0  0  0  0  0  0  0  0  0  0  0
    2.4750    0.6047    0.0000 O   0  0  0  0  0  0  0  0  0  0  0  0
    3.1895    1.8422    0.0000 C   0  0  0  0  0  0  0  0  0  0  0  0
    3.9040    1.4297    0.0000 C   0  0  0  0  0  0  0  0  0  0  0  0
    4.6184    1.8422    0.0000 C   0  0  0  0  0  0  0  0  0  0  0  0
    4.6184    2.6672    0.0000 O   0  0  0  0  0  0  0  0  0  0  0  0
    5.3329    1.4297    0.0000 C   0  0  0  0  0  0  0  0  0  0  0  0
    6.0474    1.8422    0.0000 N   0  0  0  0  0  0  0  0  0  0  0  0
    0.6336    2.1442    0.0000 H   0  0  0  0  0  0  0  0  0  0  0  0
    0.3316    1.0172    0.0000 H   0  0  0  0  0  0  0  0  0  0  0  0
    1.4586    0.7153    0.0000 H   0  0  0  0  0  0  0  0  0  0  0  0
    3.5597    2.5795    0.0000 H   0  0  0  0  0  0  0  0  0  0  0  0
    2.8192    2.5795    0.0000 H   0  0  0  0  0  0  0  0  0  0  0  0
    3.5337    0.6925    0.0000 H   0  0  0  0  0  0  0  0  0  0  0  0
    4.2742    0.6925    0.0000 H   0  0  0  0  0  0  0  0  0  0  0  0
    4.9626    0.6925    0.0000 H   0  0  0  0  0  0  0  0  0  0  0  0
    5.7032    0.6925    0.0000 H   0  0  0  0  0  0  0  0  0  0  0  0
    6.7618    1.4297    0.0000 H   0  0  0  0  0  0  0  0  0  0  0  0
    6.0474    2.6672    0.0000 H   0  0  0  0  0  0  0  0  0  0  0  0
  1  2  1  0  0  0  0
  2  3  1  0  0  0  0
  3  4  2  0  0  0  0
  3  5  1  0  0  0  0
  5  6  1  0  0  0  0
  6  7  1  0  0  0  0
  7  8  2  0  0  0  0
  7  9  1  0  0  0  0
  9 10  1  0  0  0  0
  1 11  1  0  0  0  0
  1 12  1  0  0  0  0
  1 13  1  0  0  0  0
  5 14  1  0  0  0  0
  5 15  1  0  0  0  0
  6 16  1  0  0  0  0
  6 17  1  0  0  0  0
  9 18  1  0  0  0  0
  9 19  1  0  0  0  0
 10 20  1  0  0  0  0
 10 21  1  0  0  0  0
M  END
>  <InChIKey>
InChI=1S/C6H11NO3/c1-10-6(9)3-2-5(8)4-7/h2-4,7H2,1H3

>  <CASRN>
33320-16-0

> <Outcome>
0

>  <Index>
3421

>  <StandardizerResult>
Clear Stereo (ID: ClearStereo)
Wedge Clean (ID: WedgeClean)
Mesomerize (ID: Mesomerize)
Tautomerize (ID: Tautomerize)
Add Explicit Hydrogens (ID: AddExplicitH)
Neutralize (ID: Neutralize)
Clean 2D (ID: Clean2D)

> <knn Distance>
4.12310552597046

> <CpId>
3421

$$$$
3521
  Mrv1532301301811342D          

 28 30  0  0  0  0            999 V2000
    3.3912    0.9359    0.0000 C   0  0  0  0  0  0  0  0  0  0  0  0
    4.2162    0.9359    0.0000 C   0  0  0  0  0  0  0  0  0  0  0  0
    4.7306    0.2909    0.0000 C   0  0  0  0  0  0  0  0  0  0  0  0
    5.5189    0.5341    0.0000 C   0  0  0  0  0  0  0  0  0  0  0  0
    6.1237   -0.0270    0.0000 C   0  0  0  0  0  0  0  0  0  0  0  0
    5.9401   -0.8314    0.0000 C   0  0  0  0  0  0  0  0  0  0  0  0
    5.1517   -1.0745    0.0000 C   0  0  0  0  0  0  0  0  0  0  0  0
    4.5470   -0.5134    0.0000 C   0  0  0  0  0  0  0  0  0  0  0  0
    3.8037   -0.8713    0.0000 N   0  0  0  0  0  0  0  0  0  0  0  0
    3.0604   -0.5134    0.0000 C   0  0  0  0  0  0  0  0  0  0  0  0
    2.4556   -1.0745    0.0000 C   0  0  0  0  0  0  0  0  0  0  0  0
    1.6673   -0.8314    0.0000 C   0  0  0  0  0  0  0  0  0  0  0  0
    1.4837   -0.0270    0.0000 C   0  0  0  0  0  0  0  0  0  0  0  0
    2.0885    0.5341    0.0000 C   0  0  0  0  0  0  0  0  0  0  0  0
    2.8768    0.2909    0.0000 C   0  0  0  0  0  0  0  0  0  0  0  0
    3.3912    1.7609    0.0000 H   0  0  0  0  0  0  0  0  0  0  0  0
    2.7462    1.4503    0.0000 H   0  0  0  0  0  0  0  0  0  0  0  0
    4.8612    1.4503    0.0000 H   0  0  0  0  0  0  0  0  0  0  0  0
    4.2162    1.7609    0.0000 H   0  0  0  0  0  0  0  0  0  0  0  0
    5.7025    1.3384    0.0000 H   0  0  0  0  0  0  0  0  0  0  0  0
    6.9120    0.2161    0.0000 H   0  0  0  0  0  0  0  0  0  0  0  0
    6.5449   -1.3925    0.0000 H   0  0  0  0  0  0  0  0  0  0  0  0
    4.9682   -1.8788    0.0000 H   0  0  0  0  0  0  0  0  0  0  0  0
    3.8037   -1.6963    0.0000 H   0  0  0  0  0  0  0  0  0  0  0  0
    2.6392   -1.8788    0.0000 H   0  0  0  0  0  0  0  0  0  0  0  0
    1.0625   -1.3925    0.0000 H   0  0  0  0  0  0  0  0  0  0  0  0
    0.6953    0.2161    0.0000 H   0  0  0  0  0  0  0  0  0  0  0  0
    1.9049    1.3384    0.0000 H   0  0  0  0  0  0  0  0  0  0  0  0
  1  2  1  0  0  0  0
  2  3  1  0  0  0  0
  3  4  4  0  0  0  0
  4  5  4  0  0  0  0
  5  6  4  0  0  0  0
  6  7  4  0  0  0  0
  7  8  4  0  0  0  0
  3  8  4  0  0  0  0
  8  9  1  0  0  0  0
  9 10  1  0  0  0  0
 10 11  4  0  0  0  0
 11 12  4  0  0  0  0
 12 13  4  0  0  0  0
 13 14  4  0  0  0  0
 14 15  4  0  0  0  0
  1 15  1  0  0  0  0
 10 15  4  0  0  0  0
  1 16  1  0  0  0  0
  1 17  1  0  0  0  0
  2 18  1  0  0  0  0
  2 19  1  0  0  0  0
  4 20  1  0  0  0  0
  5 21  1  0  0  0  0
  6 22  1  0  0  0  0
  7 23  1  0  0  0  0
  9 24  1  0  0  0  0
 11 25  1  0  0  0  0
 12 26  1  0  0  0  0
 13 27  1  0  0  0  0
 14 28  1  0  0  0  0
M  END
>  <InChIKey>
InChI=1S/C14H13N/c1-3-7-13-11(5-1)9-10-12-6-2-4-8-14(12)15-13/h1-8,15H,9-10H2

>  <UN GHS>
Non-irritant

>  <CASRN>
494-19-9

> <Outcome>
0

>  <Index>
3521

>  <StandardizerResult>
Dearomatize (ID: Dearomatize)
Clear Stereo (ID: ClearStereo)
Wedge Clean (ID: WedgeClean)
Mesomerize (ID: Mesomerize)
Tautomerize (ID: Tautomerize)
Aromatize (ID: Aromatize)
Add Explicit Hydrogens (ID: AddExplicitH)
Neutralize (ID: Neutralize)
Clean 2D (ID: Clean2D)

> <knn Distance>
4.12310552597046

> <CpId>
3521

$$$$
21
  Mrv1532301301811342D          

 11 10  0  0  0  0            999 V2000
    1.2375    2.1434    0.0000 N   0  0  0  0  0  0  0  0  0  0  0  0
    0.8250    1.4289    0.0000 C   0  0  0  0  0  0  0  0  0  0  0  0
   -0.0000    1.4289    0.0000 O   0  0  0  0  0  0  0  0  0  0  0  0
    1.2375    0.7145    0.0000 N   0  0  0  0  0  0  0  0  0  0  0  0
    0.8250   -0.0000    0.0000 C   0  0  0  0  0  0  0  0  0  0  0  0
    1.2375   -0.7145    0.0000 O   0  0  0  0  0  0  0  0  0  0  0  0
   -0.0000   -0.0000    0.0000 O   0  0  0  0  0  0  0  0  0  0  0  0
    2.0625    2.1434    0.0000 H   0  0  0  0  0  0  0  0  0  0  0  0
    0.8250    2.8579    0.0000 H   0  0  0  0  0  0  0  0  0  0  0  0
    2.0625    0.7145    0.0000 H   0  0  0  0  0  0  0  0  0  0  0  0
    0.8250   -1.4289    0.0000 H   0  0  0  0  0  0  0  0  0  0  0  0
  1  2  1  0  0  0  0
  2  3  2  0  0  0  0
  2  4  1  0  0  0  0
  4  5  1  0  0  0  0
  5  6  1  0  0  0  0
  5  7  2  0  0  0  0
  1  8  1  0  0  0  0
  1  9  1  0  0  0  0
  4 10  1  0  0  0  0
  6 11  1  0  0  0  0
M  END
>  <InChIKey>
AVWRKZWQTYIKIY-UHFFFAOYSA-M

>  <UN GHS>
Non-irritant

>  <CASRN>
26479-35-6

> <Outcome>
0

>  <Index>
21

>  <StandardizerResult>
Clear Stereo (ID: ClearStereo)
Wedge Clean (ID: WedgeClean)
Mesomerize (ID: Mesomerize)
Tautomerize (ID: Tautomerize)
Add Explicit Hydrogens (ID: AddExplicitH)
Neutralize (ID: Neutralize)
Clean 2D (ID: Clean2D)

> <knn Distance>
4.24264049530029

> <CpId>
21

$$$$
22
  Mrv1532301301811342D          

  5  4  0  0  0  0            999 V2000
    0.8250    0.0000    0.0000 N   0  0  0  0  0  0  0  0  0  0  0  0
    0.0000    0.0000    0.0000 O   0  0  0  0  0  0  0  0  0  0  0  0
    1.2375   -0.7145    0.0000 H   0  0  0  0  0  0  0  0  0  0  0  0
    1.2375    0.7145    0.0000 H   0  0  0  0  0  0  0  0  0  0  0  0
   -0.4125    0.7145    0.0000 H   0  0  0  0  0  0  0  0  0  0  0  0
  1  2  1  0  0  0  0
  1  3  1  0  0  0  0
  1  4  1  0  0  0  0
  2  5  1  0  0  0  0
M  END
>  <InChIKey>
AVXURJPOCDRRFD-UHFFFAOYSA-N

>  <UN GHS>
Non-irritant

>  <CASRN>
7803-49-8

> <Outcome>
0

>  <Index>
22

>  <StandardizerResult>
Mesomerize (ID: Mesomerize)
Tautomerize (ID: Tautomerize)
Add Explicit Hydrogens (ID: AddExplicitH)
Neutralize (ID: Neutralize)
Clean 2D (ID: Clean2D)

> <knn Distance>
4.24264049530029

> <CpId>
22

$$$$
43
  Mrv1532301301811342D          

 32 31  0  0  0  0            999 V2000
    4.4935   -3.5653    0.0000 C   0  0  0  0  0  0  0  0  0  0  0  0
    3.6685   -3.5653    0.0000 C   0  0  0  0  0  0  0  0  0  0  0  0
    3.2560   -4.2798    0.0000 O   0  0  0  0  0  0  0  0  0  0  0  0
    3.2560   -2.8508    0.0000 N   0  0  0  0  0  0  0  0  0  0  0  0
    2.4310   -2.8508    0.0000 C   0  0  0  0  0  0  0  0  0  0  0  0
    2.0185   -2.1364    0.0000 C   0  0  0  0  0  0  0  0  0  0  0  0
    1.1935   -2.1364    0.0000 N   0  0  0  0  0  0  0  0  0  0  0  0
    0.7810   -1.4219    0.0000 C   0  0  0  0  0  0  0  0  0  0  0  0
   -0.0440   -1.4219    0.0000 C   0  0  0  0  0  0  0  0  0  0  0  0
    1.1935   -0.7074    0.0000 O   0  0  0  0  0  0  0  0  0  0  0  0
    0.7810   -2.8508    0.0000 C   0  0  0  0  0  0  0  0  0  0  0  0
   -0.0440   -2.8508    0.0000 C   0  0  0  0  0  0  0  0  0  0  0  0
    1.1935   -3.5653    0.0000 O   0  0  0  0  0  0  0  0  0  0  0  0
    3.6685   -2.1364    0.0000 C   0  0  0  0  0  0  0  0  0  0  0  0
    3.2560   -1.4219    0.0000 C   0  0  0  0  0  0  0  0  0  0  0  0
    4.4935   -2.1364    0.0000 O   0  0  0  0  0  0  0  0  0  0  0  0
    4.4935   -4.3903    0.0000 H   0  0  0  0  0  0  0  0  0  0  0  0
    5.3185   -3.5653    0.0000 H   0  0  0  0  0  0  0  0  0  0  0  0
    4.4935   -2.7403    0.0000 H   0  0  0  0  0  0  0  0  0  0  0  0
    1.7417   -3.3042    0.0000 H   0  0  0  0  0  0  0  0  0  0  0  0
    2.3830   -3.6744    0.0000 H   0  0  0  0  0  0  0  0  0  0  0  0
    2.7078   -1.6830    0.0000 H   0  0  0  0  0  0  0  0  0  0  0  0
    2.0664   -1.3128    0.0000 H   0  0  0  0  0  0  0  0  0  0  0  0
   -0.0440   -0.5969    0.0000 H   0  0  0  0  0  0  0  0  0  0  0  0
   -0.8690   -1.4219    0.0000 H   0  0  0  0  0  0  0  0  0  0  0  0
   -0.0440   -2.2469    0.0000 H   0  0  0  0  0  0  0  0  0  0  0  0
   -0.8062   -2.5351    0.0000 H   0  0  0  0  0  0  0  0  0  0  0  0
   -0.6274   -3.4342    0.0000 H   0  0  0  0  0  0  0  0  0  0  0  0
    0.2717   -3.6130    0.0000 H   0  0  0  0  0  0  0  0  0  0  0  0
    4.0759   -1.3304    0.0000 H   0  0  0  0  0  0  0  0  0  0  0  0
    3.5008   -0.6341    0.0000 H   0  0  0  0  0  0  0  0  0  0  0  0
    2.6324   -0.8817    0.0000 H   0  0  0  0  0  0  0  0  0  0  0  0
  1  2  1  0  0  0  0
  2  3  2  0  0  0  0
  2  4  1  0  0  0  0
  4  5  1  0  0  0  0
  5  6  1  0  0  0  0
  6  7  1  0  0  0  0
  7  8  1  0  0  0  0
  8  9  1  0  0  0  0
  8 10  2  0  0  0  0
  7 11  1  0  0  0  0
 11 12  1  0  0  0  0
 11 13  2  0  0  0  0
  4 14  1  0  0  0  0
 14 15  1  0  0  0  0
 14 16  2  0  0  0  0
  1 17  1  0  0  0  0
  1 18  1  0  0  0  0
  1 19  1  0  0  0  0
  5 20  1  0  0  0  0
  5 21  1  0  0  0  0
  6 22  1  0  0  0  0
  6 23  1  0  0  0  0
  9 24  1  0  0  0  0
  9 25  1  0  0  0  0
  9 26  1  0  0  0  0
 12 27  1  0  0  0  0
 12 28  1  0  0  0  0
 12 29  1  0  0  0  0
 15 30  1  0  0  0  0
 15 31  1  0  0  0  0
 15 32  1  0  0  0  0
M  END
>  <InChIKey>
BGRWYDHXPHLNKA-UHFFFAOYSA-N

>  <UN GHS>
Non-irritant

>  <CASRN>
10543-57-4

> <Outcome>
0

>  <Index>
43

>  <StandardizerResult>
Clear Stereo (ID: ClearStereo)
Wedge Clean (ID: WedgeClean)
Mesomerize (ID: Mesomerize)
Tautomerize (ID: Tautomerize)
Add Explicit Hydrogens (ID: AddExplicitH)
Neutralize (ID: Neutralize)
Clean 2D (ID: Clean2D)

> <knn Distance>
4.24264049530029

> <CpId>
43

$$$$
52
  Mrv1532301301811342D          

 37 39  0  0  0  0            999 V2000
   -1.4289   -1.6500    0.0000 O   0  0  0  0  0  0  0  0  0  0  0  0
   -1.4289   -2.4750    0.0000 C   0  0  0  0  0  0  0  0  0  0  0  0
   -2.1434   -2.8875    0.0000 C   0  0  0  0  0  0  0  0  0  0  0  0
   -2.1434   -3.7125    0.0000 C   0  0  0  0  0  0  0  0  0  0  0  0
   -1.4289   -4.1250    0.0000 C   0  0  0  0  0  0  0  0  0  0  0  0
   -0.7145   -3.7125    0.0000 C   0  0  0  0  0  0  0  0  0  0  0  0
   -0.7145   -2.8875    0.0000 C   0  0  0  0  0  0  0  0  0  0  0  0
    0.0000   -2.4750    0.0000 N   0  0  0  0  0  0  0  0  0  0  0  0
    0.0000   -1.6500    0.0000 N   0  0  0  0  0  0  0  0  0  0  0  0
    0.7145   -1.2375    0.0000 C   0  0  0  0  0  0  0  0  0  0  0  0
    0.7145   -0.4125    0.0000 C   0  0  0  0  0  0  0  0  0  0  0  0
    1.4290   -0.0000    0.0000 C   0  0  0  0  0  0  0  0  0  0  0  0
    2.1434   -0.4125    0.0000 C   0  0  0  0  0  0  0  0  0  0  0  0
    2.8579   -0.0000    0.0000 C   0  0  0  0  0  0  0  0  0  0  0  0
    2.8579    0.8250    0.0000 O   0  0  0  0  0  0  0  0  0  0  0  0
    3.5724   -0.4125    0.0000 C   0  0  0  0  0  0  0  0  0  0  0  0
    3.5724   -1.2375    0.0000 C   0  0  0  0  0  0  0  0  0  0  0  0
    2.8579   -1.6500    0.0000 C   0  0  0  0  0  0  0  0  0  0  0  0
    2.1434   -1.2375    0.0000 C   0  0  0  0  0  0  0  0  0  0  0  0
    1.4290   -1.6500    0.0000 C   0  0  0  0  0  0  0  0  0  0  0  0
    1.4290   -2.4750    0.0000 O   0  0  0  0  0  0  0  0  0  0  0  0
   -1.4289   -4.9500    0.0000 S   0  0  0  0  0  0  0  0  0  0  0  0
   -1.4289   -5.7750    0.0000 O   0  0  0  0  0  0  0  0  0  0  0  0
   -0.6039   -4.9500    0.0000 O   0  0  0  0  0  0  0  0  0  0  0  0
   -2.2539   -4.9500    0.0000 O   0  0  0  0  0  0  0  0  0  0  0  0
   -0.7145   -1.2375    0.0000 H   0  0  0  0  0  0  0  0  0  0  0  0
   -2.8579   -2.4750    0.0000 H   0  0  0  0  0  0  0  0  0  0  0  0
   -2.8579   -4.1250    0.0000 H   0  0  0  0  0  0  0  0  0  0  0  0
    0.0000   -4.1250    0.0000 H   0  0  0  0  0  0  0  0  0  0  0  0
    0.7145   -2.8875    0.0000 H   0  0  0  0  0  0  0  0  0  0  0  0
    0.0000   -0.0000    0.0000 H   0  0  0  0  0  0  0  0  0  0  0  0
    1.4290    0.8250    0.0000 H   0  0  0  0  0  0  0  0  0  0  0  0
    3.5724    1.2375    0.0000 H   0  0  0  0  0  0  0  0  0  0  0  0
    4.2868   -0.0000    0.0000 H   0  0  0  0  0  0  0  0  0  0  0  0
    4.2868   -1.6500    0.0000 H   0  0  0  0  0  0  0  0  0  0  0  0
    2.8579   -2.4750    0.0000 H   0  0  0  0  0  0  0  0  0  0  0  0
   -2.1434   -6.1875    0.0000 H   0  0  0  0  0  0  0  0  0  0  0  0
  1  2  1  0  0  0  0
  2  3  4  0  0  0  0
  3  4  4  0  0  0  0
  4  5  4  0  0  0  0
  5  6  4  0  0  0  0
  6  7  4  0  0  0  0
  2  7  4  0  0  0  0
  7  8  1  0  0  0  0
  9  8  1  4  0  0  0
  9 10  2  0  0  0  0
 10 11  1  0  0  0  0
 11 12  2  0  0  0  0
 12 13  1  0  0  0  0
 13 14  4  0  0  0  0
 14 15  1  0  0  0  0
 14 16  4  0  0  0  0
 16 17  4  0  0  0  0
 17 18  4  0  0  0  0
 18 19  4  0  0  0  0
 13 19  4  0  0  0  0
 19 20  1  0  0  0  0
 10 20  1  0  0  0  0
 20 21  2  0  0  0  0
  5 22  1  0  0  0  0
 22 23  1  0  0  0  0
 22 24  2  0  0  0  0
 22 25  2  0  0  0  0
  1 26  1  0  0  0  0
  3 27  1  0  0  0  0
  4 28  1  0  0  0  0
  6 29  1  0  0  0  0
  8 30  1  0  0  0  0
 11 31  1  0  0  0  0
 12 32  1  0  0  0  0
 15 33  1  0  0  0  0
 16 34  1  0  0  0  0
 17 35  1  0  0  0  0
 18 36  1  0  0  0  0
 23 37  1  0  0  0  0
M  END
>  <InChIKey>
BNBSEAFANQAPGO-UHFFFAOYSA-M

>  <UN GHS>
Non-irritant

>  <CASRN>
2052-25-7

> <Outcome>
0

>  <Index>
52

>  <StandardizerResult>
Dearomatize (ID: Dearomatize)
Clear Stereo (ID: ClearStereo)
Wedge Clean (ID: WedgeClean)
Mesomerize (ID: Mesomerize)
Tautomerize (ID: Tautomerize)
Aromatize (ID: Aromatize)
Add Explicit Hydrogens (ID: AddExplicitH)
Neutralize (ID: Neutralize)
Clean 2D (ID: Clean2D)

> <knn Distance>
4.24264049530029

> <CpId>
52

$$$$
103
  Mrv1532301301811342D          

 24 23  0  0  0  0            999 V2000
    4.5824   -3.6214    0.0000 C   0  0  0  0  0  0  0  0  0  0  0  0
    3.7574   -3.6214    0.0000 O   0  0  0  0  0  0  0  0  0  0  0  0
    3.3449   -2.9069    0.0000 C   0  0  0  0  0  0  0  0  0  0  0  0
    2.5199   -2.9069    0.0000 C   0  0  0  0  0  0  0  0  0  0  0  0
    2.1074   -2.1924    0.0000 N   0  0  0  0  0  0  0  0  0  0  0  0
    1.2824   -2.1924    0.0000 C   0  0  0  0  0  0  0  0  0  0  0  0
    0.8699   -2.9069    0.0000 O   0  0  0  0  0  0  0  0  0  0  0  0
    0.8699   -1.4780    0.0000 C   0  0  0  0  0  0  0  0  0  0  0  0
    0.0449   -1.4780    0.0000 C   0  0  0  0  0  0  0  0  0  0  0  0
    3.7574   -2.1924    0.0000 O   0  0  0  0  0  0  0  0  0  0  0  0
    4.5824   -2.1924    0.0000 C   0  0  0  0  0  0  0  0  0  0  0  0
    4.5824   -4.4464    0.0000 H   0  0  0  0  0  0  0  0  0  0  0  0
    5.4074   -3.6214    0.0000 H   0  0  0  0  0  0  0  0  0  0  0  0
    4.5824   -2.7964    0.0000 H   0  0  0  0  0  0  0  0  0  0  0  0
    2.9324   -3.6214    0.0000 H   0  0  0  0  0  0  0  0  0  0  0  0
    1.7074   -3.0502    0.0000 H   0  0  0  0  0  0  0  0  0  0  0  0
    1.9896   -3.5389    0.0000 H   0  0  0  0  0  0  0  0  0  0  0  0
    2.5199   -1.4780    0.0000 H   0  0  0  0  0  0  0  0  0  0  0  0
    1.2824   -0.7635    0.0000 H   0  0  0  0  0  0  0  0  0  0  0  0
   -0.3676   -0.7635    0.0000 H   0  0  0  0  0  0  0  0  0  0  0  0
   -0.3676   -2.1924    0.0000 H   0  0  0  0  0  0  0  0  0  0  0  0
    5.3446   -2.5081    0.0000 H   0  0  0  0  0  0  0  0  0  0  0  0
    5.1657   -1.6091    0.0000 H   0  0  0  0  0  0  0  0  0  0  0  0
    4.2667   -1.4302    0.0000 H   0  0  0  0  0  0  0  0  0  0  0  0
  1  2  1  0  0  0  0
  2  3  1  0  0  0  0
  3  4  1  0  0  0  0
  4  5  1  0  0  0  0
  5  6  1  0  0  0  0
  6  7  2  0  0  0  0
  6  8  1  0  0  0  0
  8  9  2  0  0  0  0
  3 10  1  0  0  0  0
 10 11  1  0  0  0  0
  1 12  1  0  0  0  0
  1 13  1  0  0  0  0
  1 14  1  0  0  0  0
  3 15  1  0  0  0  0
  4 16  1  0  0  0  0
  4 17  1  0  0  0  0
  5 18  1  0  0  0  0
  8 19  1  0  0  0  0
  9 20  1  0  0  0  0
  9 21  1  0  0  0  0
 11 22  1  0  0  0  0
 11 23  1  0  0  0  0
 11 24  1  0  0  0  0
M  END
>  <InChIKey>
CMMYGCUEJWTBCG-UHFFFAOYSA-N

>  <UN GHS>
Non-irritant

>  <CASRN>
49707-23-5

> <Outcome>
0

>  <Index>
103

>  <StandardizerResult>
Clear Stereo (ID: ClearStereo)
Wedge Clean (ID: WedgeClean)
Mesomerize (ID: Mesomerize)
Tautomerize (ID: Tautomerize)
Add Explicit Hydrogens (ID: AddExplicitH)
Neutralize (ID: Neutralize)
Clean 2D (ID: Clean2D)

> <knn Distance>
4.24264049530029

> <CpId>
103

$$$$
113
  Mrv1532301301811342D          

 56 56  0  0  0  0            999 V2000
   -3.9362    2.5010    0.0000 C   0  0  0  0  0  0  0  0  0  0  0  0
   -3.3042    1.9707    0.0000 C   0  0  0  0  0  0  0  0  0  0  0  0
   -3.8345    1.3387    0.0000 C   0  0  0  0  0  0  0  0  0  0  0  0
   -2.7739    2.6027    0.0000 C   0  0  0  0  0  0  0  0  0  0  0  0
   -2.6722    1.4404    0.0000 C   0  0  0  0  0  0  0  0  0  0  0  0
   -1.8970    1.7225    0.0000 C   0  0  0  0  0  0  0  0  0  0  0  0
   -1.2650    1.1922    0.0000 C   0  0  0  0  0  0  0  0  0  0  0  0
   -0.4897    1.4744    0.0000 C   0  0  0  0  0  0  0  0  0  0  0  0
    0.1423    0.9441    0.0000 C   0  0  0  0  0  0  0  0  0  0  0  0
    0.5548    0.2296    0.0000 O   0  0  0  0  0  0  0  0  0  0  0  0
   -0.2702    0.2296    0.0000 O   0  0  0  0  0  0  0  0  0  0  0  0
    0.7743    1.4744    0.0000 C   0  0  0  0  0  0  0  0  0  0  0  0
    1.5495    1.1922    0.0000 O   0  0  0  0  0  0  0  0  0  0  0  0
    0.6310    2.2869    0.0000 O   0  0  0  0  0  0  0  0  0  0  0  0
    1.2630    2.8172    0.0000 C   0  0  0  0  0  0  0  0  0  0  0  0
    1.7933    2.1852    0.0000 C   0  0  0  0  0  0  0  0  0  0  0  0
    0.7327    3.4492    0.0000 C   0  0  0  0  0  0  0  0  0  0  0  0
    1.8950    3.3475    0.0000 C   0  0  0  0  0  0  0  0  0  0  0  0
    1.7517    4.1599    0.0000 C   0  0  0  0  0  0  0  0  0  0  0  0
    1.6084    4.9724    0.0000 C   0  0  0  0  0  0  0  0  0  0  0  0
    2.5642    4.3032    0.0000 C   0  0  0  0  0  0  0  0  0  0  0  0
    0.9392    4.0167    0.0000 C   0  0  0  0  0  0  0  0  0  0  0  0
   -3.4059    3.1330    0.0000 H   0  0  0  0  0  0  0  0  0  0  0  0
   -4.5682    3.0313    0.0000 H   0  0  0  0  0  0  0  0  0  0  0  0
   -4.4665    1.8690    0.0000 H   0  0  0  0  0  0  0  0  0  0  0  0
   -4.5663    0.9577    0.0000 H   0  0  0  0  0  0  0  0  0  0  0  0
   -3.7626    0.5168    0.0000 H   0  0  0  0  0  0  0  0  0  0  0  0
   -3.0477    1.0906    0.0000 H   0  0  0  0  0  0  0  0  0  0  0  0
   -2.3929    1.8709    0.0000 H   0  0  0  0  0  0  0  0  0  0  0  0
   -1.9520    2.6746    0.0000 H   0  0  0  0  0  0  0  0  0  0  0  0
   -2.5258    3.3895    0.0000 H   0  0  0  0  0  0  0  0  0  0  0  0
   -2.5958    0.6189    0.0000 H   0  0  0  0  0  0  0  0  0  0  0  0
   -1.9752    0.9990    0.0000 H   0  0  0  0  0  0  0  0  0  0  0  0
   -1.0744    1.7864    0.0000 H   0  0  0  0  0  0  0  0  0  0  0  0
   -1.3543    2.3440    0.0000 H   0  0  0  0  0  0  0  0  0  0  0  0
   -1.3070    0.3683    0.0000 H   0  0  0  0  0  0  0  0  0  0  0  0
   -0.7554    0.5434    0.0000 H   0  0  0  0  0  0  0  0  0  0  0  0
    0.1891    1.9433    0.0000 H   0  0  0  0  0  0  0  0  0  0  0  0
   -0.3081    2.2792    0.0000 H   0  0  0  0  0  0  0  0  0  0  0  0
    1.1613    1.6549    0.0000 H   0  0  0  0  0  0  0  0  0  0  0  0
    2.3236    1.5532    0.0000 H   0  0  0  0  0  0  0  0  0  0  0  0
    2.4253    2.7155    0.0000 H   0  0  0  0  0  0  0  0  0  0  0  0
    0.2024    4.0811    0.0000 H   0  0  0  0  0  0  0  0  0  0  0  0
   -0.0798    3.3059    0.0000 H   0  0  0  0  0  0  0  0  0  0  0  0
    0.4505    2.6739    0.0000 H   0  0  0  0  0  0  0  0  0  0  0  0
    2.6427    3.6961    0.0000 H   0  0  0  0  0  0  0  0  0  0  0  0
    1.1197    3.6296    0.0000 H   0  0  0  0  0  0  0  0  0  0  0  0
    2.4209    5.1157    0.0000 H   0  0  0  0  0  0  0  0  0  0  0  0
    1.4652    5.7849    0.0000 H   0  0  0  0  0  0  0  0  0  0  0  0
    0.7960    4.8291    0.0000 H   0  0  0  0  0  0  0  0  0  0  0  0
    3.2233    3.8070    0.0000 H   0  0  0  0  0  0  0  0  0  0  0  0
    3.3797    4.4278    0.0000 H   0  0  0  0  0  0  0  0  0  0  0  0
    3.0451    4.9735    0.0000 H   0  0  0  0  0  0  0  0  0  0  0  0
    1.4124    4.6925    0.0000 H   0  0  0  0  0  0  0  0  0  0  0  0
    0.3310    4.5740    0.0000 H   0  0  0  0  0  0  0  0  0  0  0  0
    1.6710    3.6357    0.0000 H   0  0  0  0  0  0  0  0  0  0  0  0
  1  2  1  0  0  0  0
  2  3  1  0  0  0  0
  2  4  1  0  0  0  0
  2  5  1  0  0  0  0
  5  6  1  0  0  0  0
  6  7  1  0  0  0  0
  7  8  1  0  0  0  0
  8  9  1  0  0  0  0
  9 10  1  0  0  0  0
 10 11  1  0  0  0  0
  9 11  1  0  0  0  0
  9 12  1  0  0  0  0
 12 13  2  0  0  0  0
 12 14  1  0  0  0  0
 14 15  1  0  0  0  0
 15 16  1  0  0  0  0
 15 17  1  0  0  0  0
 15 18  1  0  0  0  0
 18 19  1  0  0  0  0
 19 20  1  0  0  0  0
 19 21  1  0  0  0  0
 19 22  1  0  0  0  0
  1 23  1  0  0  0  0
  1 24  1  0  0  0  0
  1 25  1  0  0  0  0
  3 26  1  0  0  0  0
  3 27  1  0  0  0  0
  3 28  1  0  0  0  0
  4 29  1  0  0  0  0
  4 30  1  0  0  0  0
  4 31  1  0  0  0  0
  5 32  1  0  0  0  0
  5 33  1  0  0  0  0
  6 34  1  0  0  0  0
  6 35  1  0  0  0  0
  7 36  1  0  0  0  0
  7 37  1  0  0  0  0
  8 38  1  0  0  0  0
  8 39  1  0  0  0  0
 16 40  1  0  0  0  0
 16 41  1  0  0  0  0
 16 42  1  0  0  0  0
 17 43  1  0  0  0  0
 17 44  1  0  0  0  0
 17 45  1  0  0  0  0
 18 46  1  0  0  0  0
 18 47  1  0  0  0  0
 20 48  1  0  0  0  0
 20 49  1  0  0  0  0
 20 50  1  0  0  0  0
 21 51  1  0  0  0  0
 21 52  1  0  0  0  0
 21 53  1  0  0  0  0
 22 54  1  0  0  0  0
 22 55  1  0  0  0  0
 22 56  1  0  0  0  0
M  END
>  <InChIKey>
CRJIYMRJTJWVLU-UHFFFAOYSA-N

>  <UN GHS>
Non-irritant

>  <CASRN>
51240-95-0

> <Outcome>
0

>  <Index>
113

>  <StandardizerResult>
Clear Stereo (ID: ClearStereo)
Wedge Clean (ID: WedgeClean)
Mesomerize (ID: Mesomerize)
Tautomerize (ID: Tautomerize)
Add Explicit Hydrogens (ID: AddExplicitH)
Neutralize (ID: Neutralize)
Clean 2D (ID: Clean2D)

> <knn Distance>
4.24264049530029

> <CpId>
113

$$$$
158
  Mrv1532301301811342D          

 70 72  0  0  0  0            999 V2000
   -3.5435   -0.1340    0.0000 C   0  0  0  0  0  0  0  0  0  0  0  0
   -3.1310   -0.8485    0.0000 C   0  0  0  0  0  0  0  0  0  0  0  0
   -3.5435   -1.5630    0.0000 C   0  0  0  0  0  0  0  0  0  0  0  0
   -2.3060   -0.8485    0.0000 C   0  0  0  0  0  0  0  0  0  0  0  0
   -1.8935   -1.5630    0.0000 C   0  0  0  0  0  0  0  0  0  0  0  0
   -1.0685   -1.5630    0.0000 C   0  0  0  0  0  0  0  0  0  0  0  0
   -0.6560   -2.2774    0.0000 C   0  0  0  0  0  0  0  0  0  0  0  0
    0.1690   -2.2774    0.0000 C   0  0  0  0  0  0  0  0  0  0  0  0
    0.5815   -1.5630    0.0000 C   0  0  0  0  0  0  0  0  0  0  0  0
    0.1690   -0.8485    0.0000 C   0  0  0  0  0  0  0  0  0  0  0  0
   -0.2435   -0.1340    0.0000 C   0  0  0  0  0  0  0  0  0  0  0  0
    0.5815   -0.1340    0.0000 C   0  0  0  0  0  0  0  0  0  0  0  0
    1.4065   -0.1340    0.0000 C   0  0  0  0  0  0  0  0  0  0  0  0
    1.8190   -0.8485    0.0000 C   0  0  0  0  0  0  0  0  0  0  0  0
    1.4065   -1.5630    0.0000 C   0  0  0  0  0  0  0  0  0  0  0  0
    2.1062   -2.0001    0.0000 C   0  0  0  0  0  0  0  0  0  0  0  0
    1.4353   -2.3875    0.0000 C   0  0  0  0  0  0  0  0  0  0  0  0
    2.1637   -2.7748    0.0000 O   0  0  0  0  0  0  0  0  0  0  0  0
    0.7357   -2.8246    0.0000 O   0  0  0  0  0  0  0  0  0  0  0  0
    0.7645   -3.6491    0.0000 C   0  0  0  0  0  0  0  0  0  0  0  0
    0.0648   -4.0863    0.0000 C   0  0  0  0  0  0  0  0  0  0  0  0
   -0.6348   -4.5235    0.0000 C   0  0  0  0  0  0  0  0  0  0  0  0
   -0.6060   -5.3480    0.0000 O   0  0  0  0  0  0  0  0  0  0  0  0
   -0.3724   -3.3867    0.0000 C   0  0  0  0  0  0  0  0  0  0  0  0
   -1.1969   -3.4155    0.0000 O   0  0  0  0  0  0  0  0  0  0  0  0
    0.5020   -4.7860    0.0000 C   0  0  0  0  0  0  0  0  0  0  0  0
    1.3265   -4.7572    0.0000 O   0  0  0  0  0  0  0  0  0  0  0  0
   -0.6560   -0.8485    0.0000 C   0  0  0  0  0  0  0  0  0  0  0  0
   -1.0685   -0.1340    0.0000 C   0  0  0  0  0  0  0  0  0  0  0  0
   -1.8935   -0.1340    0.0000 C   0  0  0  0  0  0  0  0  0  0  0  0
   -2.8290    0.2785    0.0000 H   0  0  0  0  0  0  0  0  0  0  0  0
   -3.9560    0.5805    0.0000 H   0  0  0  0  0  0  0  0  0  0  0  0
   -4.2580   -0.5465    0.0000 H   0  0  0  0  0  0  0  0  0  0  0  0
   -3.9560   -0.8485    0.0000 H   0  0  0  0  0  0  0  0  0  0  0  0
   -4.3404   -1.7765    0.0000 H   0  0  0  0  0  0  0  0  0  0  0  0
   -3.5435   -2.3880    0.0000 H   0  0  0  0  0  0  0  0  0  0  0  0
   -2.7466   -1.7765    0.0000 H   0  0  0  0  0  0  0  0  0  0  0  0
   -1.7926   -2.3818    0.0000 H   0  0  0  0  0  0  0  0  0  0  0  0
   -1.0685   -2.9919    0.0000 H   0  0  0  0  0  0  0  0  0  0  0  0
   -0.1400   -3.0424    0.0000 H   0  0  0  0  0  0  0  0  0  0  0  0
   -0.2435   -1.5630    0.0000 H   0  0  0  0  0  0  0  0  0  0  0  0
    0.9940   -0.8485    0.0000 H   0  0  0  0  0  0  0  0  0  0  0  0
    0.3399    0.4493    0.0000 H   0  0  0  0  0  0  0  0  0  0  0  0
   -0.2435    0.6910    0.0000 H   0  0  0  0  0  0  0  0  0  0  0  0
   -0.8269    0.4493    0.0000 H   0  0  0  0  0  0  0  0  0  0  0  0
    1.2360    0.3682    0.0000 H   0  0  0  0  0  0  0  0  0  0  0  0
    0.7950    0.6629    0.0000 H   0  0  0  0  0  0  0  0  0  0  0  0
    2.2297   -0.1880    0.0000 H   0  0  0  0  0  0  0  0  0  0  0  0
    1.9087    0.5205    0.0000 H   0  0  0  0  0  0  0  0  0  0  0  0
    2.2237   -1.5674    0.0000 H   0  0  0  0  0  0  0  0  0  0  0  0
    2.6438   -0.8665    0.0000 H   0  0  0  0  0  0  0  0  0  0  0  0
    2.6833   -2.5897    0.0000 H   0  0  0  0  0  0  0  0  0  0  0  0
    2.9274   -2.0788    0.0000 H   0  0  0  0  0  0  0  0  0  0  0  0
    2.7847   -1.5309    0.0000 H   0  0  0  0  0  0  0  0  0  0  0  0
    1.2416   -4.3222    0.0000 H   0  0  0  0  0  0  0  0  0  0  0  0
    1.5892   -3.6683    0.0000 H   0  0  0  0  0  0  0  0  0  0  0  0
   -1.1119   -3.8505    0.0000 H   0  0  0  0  0  0  0  0  0  0  0  0
   -1.4596   -4.5043    0.0000 H   0  0  0  0  0  0  0  0  0  0  0  0
   -1.3057   -5.7852    0.0000 H   0  0  0  0  0  0  0  0  0  0  0  0
    0.4525   -3.4011    0.0000 H   0  0  0  0  0  0  0  0  0  0  0  0
   -0.5610   -2.5835    0.0000 H   0  0  0  0  0  0  0  0  0  0  0  0
   -2.0208   -3.3736    0.0000 H   0  0  0  0  0  0  0  0  0  0  0  0
   -0.1710   -5.2631    0.0000 H   0  0  0  0  0  0  0  0  0  0  0  0
    0.4828   -5.6107    0.0000 H   0  0  0  0  0  0  0  0  0  0  0  0
    1.9724   -5.2705    0.0000 H   0  0  0  0  0  0  0  0  0  0  0  0
   -1.4810   -0.8485    0.0000 H   0  0  0  0  0  0  0  0  0  0  0  0
   -1.2820    0.6629    0.0000 H   0  0  0  0  0  0  0  0  0  0  0  0
   -1.7230    0.3682    0.0000 H   0  0  0  0  0  0  0  0  0  0  0  0
   -2.3957    0.5205    0.0000 H   0  0  0  0  0  0  0  0  0  0  0  0
   -2.7167   -0.1880    0.0000 H   0  0  0  0  0  0  0  0  0  0  0  0
  1  2  1  0  0  0  0
  2  3  1  0  0  0  0
  2  4  1  0  0  0  0
  4  5  2  0  0  0  0
  5  6  1  0  0  0  0
  6  7  2  0  0  0  0
  7  8  1  0  0  0  0
  8  9  1  0  0  0  0
  9 10  1  0  0  0  0
 10 11  1  0  0  0  0
 10 12  1  0  0  0  0
 12 13  1  0  0  0  0
 13 14  1  0  0  0  0
 14 15  1  0  0  0  0
  9 15  1  0  0  0  0
 15 16  1  0  0  0  0
 15 17  1  0  0  0  0
 17 18  2  0  0  0  0
 17 19  1  0  0  0  0
 19 20  1  0  0  0  0
 20 21  1  0  0  0  0
 21 22  1  0  0  0  0
 22 23  1  0  0  0  0
 21 24  1  0  0  0  0
 24 25  1  0  0  0  0
 21 26  1  0  0  0  0
 26 27  1  0  0  0  0
 10 28  1  0  0  0  0
  6 28  1  0  0  0  0
 28 29  1  0  0  0  0
 29 30  1  0  0  0  0
  4 30  1  0  0  0  0
  1 31  1  0  0  0  0
  1 32  1  0  0  0  0
  1 33  1  0  0  0  0
  2 34  1  0  0  0  0
  3 35  1  0  0  0  0
  3 36  1  0  0  0  0
  3 37  1  0  0  0  0
  5 38  1  0  0  0  0
  7 39  1  0  0  0  0
  8 40  1  0  0  0  0
  8 41  1  0  0  0  0
  9 42  1  0  0  0  0
 11 43  1  0  0  0  0
 11 44  1  0  0  0  0
 11 45  1  0  0  0  0
 12 46  1  0  0  0  0
 12 47  1  0  0  0  0
 13 48  1  0  0  0  0
 13 49  1  0  0  0  0
 14 50  1  0  0  0  0
 14 51  1  0  0  0  0
 16 52  1  0  0  0  0
 16 53  1  0  0  0  0
 16 54  1  0  0  0  0
 20 55  1  0  0  0  0
 20 56  1  0  0  0  0
 22 57  1  0  0  0  0
 22 58  1  0  0  0  0
 23 59  1  0  0  0  0
 24 60  1  0  0  0  0
 24 61  1  0  0  0  0
 25 62  1  0  0  0  0
 26 63  1  0  0  0  0
 26 64  1  0  0  0  0
 27 65  1  0  0  0  0
 28 66  1  0  0  0  0
 29 67  1  0  0  0  0
 29 68  1  0  0  0  0
 30 69  1  0  0  0  0
 30 70  1  0  0  0  0
M  END
>  <InChIKey>
DUTZBUOZKIIFTG-FXXYKOEOSA-N

>  <UN GHS>
Non-irritant

>  <CASRN>
8050-26-8

> <Outcome>
0

>  <Index>
158

>  <StandardizerResult>
Clear Stereo (ID: ClearStereo)
Wedge Clean (ID: WedgeClean)
Mesomerize (ID: Mesomerize)
Tautomerize (ID: Tautomerize)
Add Explicit Hydrogens (ID: AddExplicitH)
Neutralize (ID: Neutralize)
Clean 2D (ID: Clean2D)

> <knn Distance>
4.24264049530029

> <CpId>
158

$$$$
181
  Mrv1532301301811342D          

 54 55  0  0  0  0            999 V2000
    3.5720   -7.8382    0.0000 C   0  0  0  0  0  0  0  0  0  0  0  0
    4.2865   -7.4257    0.0000 C   0  0  0  0  0  0  0  0  0  0  0  0
    5.0009   -7.8382    0.0000 C   0  0  0  0  0  0  0  0  0  0  0  0
    5.7154   -7.4257    0.0000 C   0  0  0  0  0  0  0  0  0  0  0  0
    6.4299   -7.8382    0.0000 O   0  0  0  0  0  0  0  0  0  0  0  0
    7.1444   -7.4257    0.0000 C   0  0  0  0  0  0  0  0  0  0  0  0
    7.8588   -7.8382    0.0000 C   0  0  0  0  0  0  0  0  0  0  0  0
    8.5733   -7.4257    0.0000 O   0  0  0  0  0  0  0  0  0  0  0  0
    9.2878   -7.8382    0.0000 C   0  0  0  0  0  0  0  0  0  0  0  0
   10.0022   -7.4257    0.0000 C   0  0  0  0  0  0  0  0  0  0  0  0
   10.7167   -7.8382    0.0000 O   0  0  0  0  0  0  0  0  0  0  0  0
   11.4312   -7.4257    0.0000 C   0  0  0  0  0  0  0  0  0  0  0  0
   12.1457   -7.8382    0.0000 C   0  0  0  0  0  0  0  0  0  0  0  0
   12.8601   -7.4257    0.0000 C   0  0  0  0  0  0  0  0  0  0  0  0
   13.5746   -7.8382    0.0000 C   0  0  0  0  0  0  0  0  0  0  0  0
   14.3592   -7.5832    0.0000 O   0  0  0  0  0  0  0  0  0  0  0  0
   14.8441   -8.2507    0.0000 C   0  0  0  0  0  0  0  0  0  0  0  0
   14.3592   -8.9181    0.0000 O   0  0  0  0  0  0  0  0  0  0  0  0
   13.5746   -8.6632    0.0000 C   0  0  0  0  0  0  0  0  0  0  0  0
   12.8601   -9.0757    0.0000 C   0  0  0  0  0  0  0  0  0  0  0  0
   12.1457   -8.6632    0.0000 C   0  0  0  0  0  0  0  0  0  0  0  0
   11.4312   -9.0757    0.0000 C   0  0  0  0  0  0  0  0  0  0  0  0
   11.4312   -9.9007    0.0000 C   0  0  0  0  0  0  0  0  0  0  0  0
   10.7167  -10.3132    0.0000 C   0  0  0  0  0  0  0  0  0  0  0  0
    3.1595   -7.1237    0.0000 H   0  0  0  0  0  0  0  0  0  0  0  0
    2.8575   -8.2507    0.0000 H   0  0  0  0  0  0  0  0  0  0  0  0
    3.9845   -8.5526    0.0000 H   0  0  0  0  0  0  0  0  0  0  0  0
    4.6567   -6.6884    0.0000 H   0  0  0  0  0  0  0  0  0  0  0  0
    3.9162   -6.6884    0.0000 H   0  0  0  0  0  0  0  0  0  0  0  0
    4.6307   -8.5754    0.0000 H   0  0  0  0  0  0  0  0  0  0  0  0
    5.3712   -8.5754    0.0000 H   0  0  0  0  0  0  0  0  0  0  0  0
    6.0857   -6.6884    0.0000 H   0  0  0  0  0  0  0  0  0  0  0  0
    5.3452   -6.6884    0.0000 H   0  0  0  0  0  0  0  0  0  0  0  0
    7.5146   -6.6884    0.0000 H   0  0  0  0  0  0  0  0  0  0  0  0
    6.7741   -6.6884    0.0000 H   0  0  0  0  0  0  0  0  0  0  0  0
    7.4886   -8.5754    0.0000 H   0  0  0  0  0  0  0  0  0  0  0  0
    8.2291   -8.5754    0.0000 H   0  0  0  0  0  0  0  0  0  0  0  0
    8.9175   -8.5754    0.0000 H   0  0  0  0  0  0  0  0  0  0  0  0
    9.6580   -8.5754    0.0000 H   0  0  0  0  0  0  0  0  0  0  0  0
   10.3725   -6.6884    0.0000 H   0  0  0  0  0  0  0  0  0  0  0  0
    9.6320   -6.6884    0.0000 H   0  0  0  0  0  0  0  0  0  0  0  0
   11.8014   -6.6884    0.0000 H   0  0  0  0  0  0  0  0  0  0  0  0
   11.0609   -6.6884    0.0000 H   0  0  0  0  0  0  0  0  0  0  0  0
   12.8601   -6.6007    0.0000 H   0  0  0  0  0  0  0  0  0  0  0  0
   15.5726   -8.6380    0.0000 H   0  0  0  0  0  0  0  0  0  0  0  0
   15.5726   -7.8633    0.0000 H   0  0  0  0  0  0  0  0  0  0  0  0
   12.8601   -9.9007    0.0000 H   0  0  0  0  0  0  0  0  0  0  0  0
   10.9778   -8.3864    0.0000 H   0  0  0  0  0  0  0  0  0  0  0  0
   10.6076   -9.0277    0.0000 H   0  0  0  0  0  0  0  0  0  0  0  0
   11.8845  -10.5899    0.0000 H   0  0  0  0  0  0  0  0  0  0  0  0
   12.2548   -9.9486    0.0000 H   0  0  0  0  0  0  0  0  0  0  0  0
   10.3042   -9.5987    0.0000 H   0  0  0  0  0  0  0  0  0  0  0  0
   10.0022  -10.7257    0.0000 H   0  0  0  0  0  0  0  0  0  0  0  0
   11.1292  -11.0276    0.0000 H   0  0  0  0  0  0  0  0  0  0  0  0
  1  2  1  0  0  0  0
  2  3  1  0  0  0  0
  3  4  1  0  0  0  0
  4  5  1  0  0  0  0
  5  6  1  0  0  0  0
  6  7  1  0  0  0  0
  7  8  1  0  0  0  0
  8  9  1  0  0  0  0
  9 10  1  0  0  0  0
 10 11  1  0  0  0  0
 11 12  1  0  0  0  0
 12 13  1  0  0  0  0
 13 14  4  0  0  0  0
 14 15  4  0  0  0  0
 15 16  1  0  0  0  0
 16 17  1  0  0  0  0
 17 18  1  0  0  0  0
 18 19  1  0  0  0  0
 15 19  4  0  0  0  0
 19 20  4  0  0  0  0
 20 21  4  0  0  0  0
 13 21  4  0  0  0  0
 21 22  1  0  0  0  0
 22 23  1  0  0  0  0
 23 24  1  0  0  0  0
  1 25  1  0  0  0  0
  1 26  1  0  0  0  0
  1 27  1  0  0  0  0
  2 28  1  0  0  0  0
  2 29  1  0  0  0  0
  3 30  1  0  0  0  0
  3 31  1  0  0  0  0
  4 32  1  0  0  0  0
  4 33  1  0  0  0  0
  6 34  1  0  0  0  0
  6 35  1  0  0  0  0
  7 36  1  0  0  0  0
  7 37  1  0  0  0  0
  9 38  1  0  0  0  0
  9 39  1  0  0  0  0
 10 40  1  0  0  0  0
 10 41  1  0  0  0  0
 12 42  1  0  0  0  0
 12 43  1  0  0  0  0
 14 44  1  0  0  0  0
 17 45  1  0  0  0  0
 17 46  1  0  0  0  0
 20 47  1  0  0  0  0
 22 48  1  0  0  0  0
 22 49  1  0  0  0  0
 23 50  1  0  0  0  0
 23 51  1  0  0  0  0
 24 52  1  0  0  0  0
 24 53  1  0  0  0  0
 24 54  1  0  0  0  0
M  END
>  <InChIKey>
FIPWRIJSWJWJAI-UHFFFAOYSA-N

>  <UN GHS>
Non-irritant

>  <CASRN>
51-03-6

> <Outcome>
0

>  <Index>
181

>  <StandardizerResult>
Dearomatize (ID: Dearomatize)
Clear Stereo (ID: ClearStereo)
Wedge Clean (ID: WedgeClean)
Mesomerize (ID: Mesomerize)
Tautomerize (ID: Tautomerize)
Aromatize (ID: Aromatize)
Add Explicit Hydrogens (ID: AddExplicitH)
Neutralize (ID: Neutralize)
Clean 2D (ID: Clean2D)

> <knn Distance>
4.24264049530029

> <CpId>
181

$$$$
262
  Mrv1532301301811342D          

 40 40  0  0  0  0            999 V2000
    1.5053    2.1579    0.0000 C   0  0  0  0  0  0  0  0  0  0  0  0
    1.0031    1.5033    0.0000 Si  0  0  0  0  0  0  0  0  0  0  0  0
    0.5008    2.1579    0.0000 C   0  0  0  0  0  0  0  0  0  0  0  0
    1.7653    1.1876    0.0000 O   0  0  0  0  0  0  0  0  0  0  0  0
    2.0810    0.4254    0.0000 Si  0  0  0  0  0  0  0  0  0  0  0  0
    2.7355    0.9276    0.0000 C   0  0  0  0  0  0  0  0  0  0  0  0
    2.7355   -0.0768    0.0000 C   0  0  0  0  0  0  0  0  0  0  0  0
    1.7653   -0.3368    0.0000 O   0  0  0  0  0  0  0  0  0  0  0  0
    1.0031   -0.6525    0.0000 Si  0  0  0  0  0  0  0  0  0  0  0  0
    1.5053   -1.3070    0.0000 C   0  0  0  0  0  0  0  0  0  0  0  0
    0.5008   -1.3070    0.0000 C   0  0  0  0  0  0  0  0  0  0  0  0
    0.2409   -0.3368    0.0000 O   0  0  0  0  0  0  0  0  0  0  0  0
   -0.0749    0.4254    0.0000 Si  0  0  0  0  0  0  0  0  0  0  0  0
   -0.7294   -0.0768    0.0000 C   0  0  0  0  0  0  0  0  0  0  0  0
   -0.7294    0.9276    0.0000 C   0  0  0  0  0  0  0  0  0  0  0  0
    0.2409    1.1876    0.0000 O   0  0  0  0  0  0  0  0  0  0  0  0
    2.1598    1.6556    0.0000 H   0  0  0  0  0  0  0  0  0  0  0  0
    2.0075    2.8124    0.0000 H   0  0  0  0  0  0  0  0  0  0  0  0
    0.8508    2.6601    0.0000 H   0  0  0  0  0  0  0  0  0  0  0  0
    0.1107    2.8848    0.0000 H   0  0  0  0  0  0  0  0  0  0  0  0
   -0.3240    2.1389    0.0000 H   0  0  0  0  0  0  0  0  0  0  0  0
    0.1445    1.4138    0.0000 H   0  0  0  0  0  0  0  0  0  0  0  0
    2.9519    0.1315    0.0000 H   0  0  0  0  0  0  0  0  0  0  0  0
    3.5542    0.8259    0.0000 H   0  0  0  0  0  0  0  0  0  0  0  0
    3.1401    1.6466    0.0000 H   0  0  0  0  0  0  0  0  0  0  0  0
    2.0061   -0.4622    0.0000 H   0  0  0  0  0  0  0  0  0  0  0  0
    2.7816   -0.9005    0.0000 H   0  0  0  0  0  0  0  0  0  0  0  0
    3.5034   -0.3784    0.0000 H   0  0  0  0  0  0  0  0  0  0  0  0
    0.8508   -1.8092    0.0000 H   0  0  0  0  0  0  0  0  0  0  0  0
    2.0075   -1.9615    0.0000 H   0  0  0  0  0  0  0  0  0  0  0  0
    2.1598   -0.8048    0.0000 H   0  0  0  0  0  0  0  0  0  0  0  0
    0.1445   -0.5629    0.0000 H   0  0  0  0  0  0  0  0  0  0  0  0
   -0.3240   -1.2881    0.0000 H   0  0  0  0  0  0  0  0  0  0  0  0
    0.1107   -2.0339    0.0000 H   0  0  0  0  0  0  0  0  0  0  0  0
   -1.2316    0.5777    0.0000 H   0  0  0  0  0  0  0  0  0  0  0  0
   -1.3839   -0.5790    0.0000 H   0  0  0  0  0  0  0  0  0  0  0  0
   -0.2271   -0.7313    0.0000 H   0  0  0  0  0  0  0  0  0  0  0  0
    0.0147    1.2840    0.0000 H   0  0  0  0  0  0  0  0  0  0  0  0
   -0.7104    1.7524    0.0000 H   0  0  0  0  0  0  0  0  0  0  0  0
   -1.4563    1.3178    0.0000 H   0  0  0  0  0  0  0  0  0  0  0  0
  1  2  1  0  0  0  0
  2  3  1  0  0  0  0
  2  4  1  0  0  0  0
  4  5  1  0  0  0  0
  5  6  1  0  0  0  0
  5  7  1  0  0  0  0
  5  8  1  0  0  0  0
  8  9  1  0  0  0  0
  9 10  1  0  0  0  0
  9 11  1  0  0  0  0
  9 12  1  0  0  0  0
 12 13  1  0  0  0  0
 13 14  1  0  0  0  0
 13 15  1  0  0  0  0
 13 16  1  0  0  0  0
  2 16  1  0  0  0  0
  1 17  1  0  0  0  0
  1 18  1  0  0  0  0
  1 19  1  0  0  0  0
  3 20  1  0  0  0  0
  3 21  1  0  0  0  0
  3 22  1  0  0  0  0
  6 23  1  0  0  0  0
  6 24  1  0  0  0  0
  6 25  1  0  0  0  0
  7 26  1  0  0  0  0
  7 27  1  0  0  0  0
  7 28  1  0  0  0  0
 10 29  1  0  0  0  0
 10 30  1  0  0  0  0
 10 31  1  0  0  0  0
 11 32  1  0  0  0  0
 11 33  1  0  0  0  0
 11 34  1  0  0  0  0
 14 35  1  0  0  0  0
 14 36  1  0  0  0  0
 14 37  1  0  0  0  0
 15 38  1  0  0  0  0
 15 39  1  0  0  0  0
 15 40  1  0  0  0  0
M  END
>  <InChIKey>
HMMGMWAXVFQUOA-UHFFFAOYSA-N

>  <UN GHS>
Non-irritant

>  <CASRN>
556-67-2

> <Outcome>
0

>  <Index>
262

>  <StandardizerResult>
Clear Stereo (ID: ClearStereo)
Wedge Clean (ID: WedgeClean)
Mesomerize (ID: Mesomerize)
Tautomerize (ID: Tautomerize)
Add Explicit Hydrogens (ID: AddExplicitH)
Neutralize (ID: Neutralize)
Clean 2D (ID: Clean2D)

> <knn Distance>
4.24264049530029

> <CpId>
262

$$$$
328
  Mrv1532301301811342D          

 60 60  0  0  0  0            999 V2000
    1.7815    1.6010    0.0000 C   0  0  0  0  0  0  0  0  0  0  0  0
    1.4993    0.8258    0.0000 Si  0  0  0  0  0  0  0  0  0  0  0  0
    1.2171    1.6010    0.0000 C   0  0  0  0  0  0  0  0  0  0  0  0
    2.2138    1.2383    0.0000 O   0  0  0  0  0  0  0  0  0  0  0  0
    2.9282    0.8258    0.0000 Si  0  0  0  0  0  0  0  0  0  0  0  0
    3.2104    1.6010    0.0000 C   0  0  0  0  0  0  0  0  0  0  0  0
    3.7407    0.6825    0.0000 C   0  0  0  0  0  0  0  0  0  0  0  0
    2.9282    0.0008    0.0000 O   0  0  0  0  0  0  0  0  0  0  0  0
    2.2138   -0.4117    0.0000 Si  0  0  0  0  0  0  0  0  0  0  0  0
    3.0262   -0.5550    0.0000 C   0  0  0  0  0  0  0  0  0  0  0  0
    2.7441   -1.0437    0.0000 C   0  0  0  0  0  0  0  0  0  0  0  0
    2.2138   -1.2367    0.0000 O   0  0  0  0  0  0  0  0  0  0  0  0
    1.4993   -1.6492    0.0000 Si  0  0  0  0  0  0  0  0  0  0  0  0
    2.0296   -2.2812    0.0000 C   0  0  0  0  0  0  0  0  0  0  0  0
    0.9690   -2.2812    0.0000 C   0  0  0  0  0  0  0  0  0  0  0  0
    0.7848   -1.2367    0.0000 O   0  0  0  0  0  0  0  0  0  0  0  0
    0.7848   -0.4117    0.0000 Si  0  0  0  0  0  0  0  0  0  0  0  0
    0.2545   -1.0437    0.0000 C   0  0  0  0  0  0  0  0  0  0  0  0
   -0.0276   -0.5550    0.0000 C   0  0  0  0  0  0  0  0  0  0  0  0
    0.0704    0.0008    0.0000 O   0  0  0  0  0  0  0  0  0  0  0  0
    0.0704    0.8258    0.0000 Si  0  0  0  0  0  0  0  0  0  0  0  0
   -0.7421    0.6825    0.0000 C   0  0  0  0  0  0  0  0  0  0  0  0
   -0.2118    1.6010    0.0000 C   0  0  0  0  0  0  0  0  0  0  0  0
    0.7848    1.2383    0.0000 O   0  0  0  0  0  0  0  0  0  0  0  0
    2.5784    1.8145    0.0000 H   0  0  0  0  0  0  0  0  0  0  0  0
    2.0636    2.3763    0.0000 H   0  0  0  0  0  0  0  0  0  0  0  0
    1.3083    2.2768    0.0000 H   0  0  0  0  0  0  0  0  0  0  0  0
    0.8459    2.3378    0.0000 H   0  0  0  0  0  0  0  0  0  0  0  0
    0.4945    1.9990    0.0000 H   0  0  0  0  0  0  0  0  0  0  0  0
    0.3960    1.5208    0.0000 H   0  0  0  0  0  0  0  0  0  0  0  0
    3.8219    1.0472    0.0000 H   0  0  0  0  0  0  0  0  0  0  0  0
    3.9540    1.9584    0.0000 H   0  0  0  0  0  0  0  0  0  0  0  0
    3.1600    2.4245    0.0000 H   0  0  0  0  0  0  0  0  0  0  0  0
    3.2897   -0.0083    0.0000 H   0  0  0  0  0  0  0  0  0  0  0  0
    4.1988   -0.0037    0.0000 H   0  0  0  0  0  0  0  0  0  0  0  0
    4.5517    0.8341    0.0000 H   0  0  0  0  0  0  0  0  0  0  0  0
    3.2546   -1.3478    0.0000 H   0  0  0  0  0  0  0  0  0  0  0  0
    3.7556   -0.9406    0.0000 H   0  0  0  0  0  0  0  0  0  0  0  0
    3.8100   -0.2973    0.0000 H   0  0  0  0  0  0  0  0  0  0  0  0
    2.2396   -1.6965    0.0000 H   0  0  0  0  0  0  0  0  0  0  0  0
    2.6666   -1.8651    0.0000 H   0  0  0  0  0  0  0  0  0  0  0  0
    3.1175   -1.7793    0.0000 H   0  0  0  0  0  0  0  0  0  0  0  0
    1.2357   -2.5057    0.0000 H   0  0  0  0  0  0  0  0  0  0  0  0
    1.9088   -3.0973    0.0000 H   0  0  0  0  0  0  0  0  0  0  0  0
    2.7244   -2.7261    0.0000 H   0  0  0  0  0  0  0  0  0  0  0  0
    0.5883   -1.5493    0.0000 H   0  0  0  0  0  0  0  0  0  0  0  0
    0.1471   -2.3525    0.0000 H   0  0  0  0  0  0  0  0  0  0  0  0
    0.7201   -3.0678    0.0000 H   0  0  0  0  0  0  0  0  0  0  0  0
   -0.5455   -0.8422    0.0000 H   0  0  0  0  0  0  0  0  0  0  0  0
   -0.4473   -1.4774    0.0000 H   0  0  0  0  0  0  0  0  0  0  0  0
    0.0770   -1.8494    0.0000 H   0  0  0  0  0  0  0  0  0  0  0  0
   -0.3401    0.2086    0.0000 H   0  0  0  0  0  0  0  0  0  0  0  0
   -0.6993   -0.0760    0.0000 H   0  0  0  0  0  0  0  0  0  0  0  0
   -0.8513   -0.5083    0.0000 H   0  0  0  0  0  0  0  0  0  0  0  0
   -0.5398    1.4823    0.0000 H   0  0  0  0  0  0  0  0  0  0  0  0
   -1.3888    1.1948    0.0000 H   0  0  0  0  0  0  0  0  0  0  0  0
   -1.4744    0.3026    0.0000 H   0  0  0  0  0  0  0  0  0  0  0  0
    0.0428    2.3857    0.0000 H   0  0  0  0  0  0  0  0  0  0  0  0
   -0.5558    2.3509    0.0000 H   0  0  0  0  0  0  0  0  0  0  0  0
   -0.9727    1.9198    0.0000 H   0  0  0  0  0  0  0  0  0  0  0  0
  1  2  1  0  0  0  0
  2  3  1  0  0  0  0
  2  4  1  0  0  0  0
  4  5  1  0  0  0  0
  5  6  1  0  0  0  0
  5  7  1  0  0  0  0
  5  8  1  0  0  0  0
  8  9  1  0  0  0  0
  9 10  1  0  0  0  0
  9 11  1  0  0  0  0
  9 12  1  0  0  0  0
 12 13  1  0  0  0  0
 13 14  1  0  0  0  0
 13 15  1  0  0  0  0
 13 16  1  0  0  0  0
 16 17  1  0  0  0  0
 17 18  1  0  0  0  0
 17 19  1  0  0  0  0
 17 20  1  0  0  0  0
 20 21  1  0  0  0  0
 21 22  1  0  0  0  0
 21 23  1  0  0  0  0
 21 24  1  0  0  0  0
  2 24  1  0  0  0  0
  1 25  1  0  0  0  0
  1 26  1  0  0  0  0
  1 27  1  0  0  0  0
  3 28  1  0  0  0  0
  3 29  1  0  0  0  0
  3 30  1  0  0  0  0
  6 31  1  0  0  0  0
  6 32  1  0  0  0  0
  6 33  1  0  0  0  0
  7 34  1  0  0  0  0
  7 35  1  0  0  0  0
  7 36  1  0  0  0  0
 10 37  1  0  0  0  0
 10 38  1  0  0  0  0
 10 39  1  0  0  0  0
 11 40  1  0  0  0  0
 11 41  1  0  0  0  0
 11 42  1  0  0  0  0
 14 43  1  0  0  0  0
 14 44  1  0  0  0  0
 14 45  1  0  0  0  0
 15 46  1  0  0  0  0
 15 47  1  0  0  0  0
 15 48  1  0  0  0  0
 18 49  1  0  0  0  0
 18 50  1  0  0  0  0
 18 51  1  0  0  0  0
 19 52  1  0  0  0  0
 19 53  1  0  0  0  0
 19 54  1  0  0  0  0
 22 55  1  0  0  0  0
 22 56  1  0  0  0  0
 22 57  1  0  0  0  0
 23 58  1  0  0  0  0
 23 59  1  0  0  0  0
 23 60  1  0  0  0  0
M  END
>  <InChIKey>
IUMSDRXLFWAGNT-UHFFFAOYSA-N

>  <UN GHS>
Non-irritant

>  <CASRN>
540-97-6

> <Outcome>
0

>  <Index>
328

>  <StandardizerResult>
Clear Stereo (ID: ClearStereo)
Wedge Clean (ID: WedgeClean)
Mesomerize (ID: Mesomerize)
Tautomerize (ID: Tautomerize)
Add Explicit Hydrogens (ID: AddExplicitH)
Neutralize (ID: Neutralize)
Clean 2D (ID: Clean2D)

> <knn Distance>
4.24264049530029

> <CpId>
328

$$$$
370
  Mrv1532301301811342D          

 39 39  0  0  0  0            999 V2000
    2.1068    3.7125    0.0000 C   0  0  0  0  0  0  0  0  0  0  0  0
    1.3923    3.3000    0.0000 N   0  0  0  0  0  0  0  0  0  0  0  0
    0.6778    3.7125    0.0000 C   0  0  0  0  0  0  0  0  0  0  0  0
    1.3923    2.4750    0.0000 C   0  0  0  0  0  0  0  0  0  0  0  0
    2.1068    2.0625    0.0000 O   0  0  0  0  0  0  0  0  0  0  0  0
    0.6778    2.0625    0.0000 N   0  0  0  0  0  0  0  0  0  0  0  0
    0.6778    1.2375    0.0000 C   0  0  0  0  0  0  0  0  0  0  0  0
    1.3923    0.8250    0.0000 C   0  0  0  0  0  0  0  0  0  0  0  0
    1.3923    0.0000    0.0000 C   0  0  0  0  0  0  0  0  0  0  0  0
    0.6778   -0.4125    0.0000 C   0  0  0  0  0  0  0  0  0  0  0  0
    0.6778   -1.2375    0.0000 C   0  0  0  0  0  0  0  0  0  0  0  0
   -0.0366    0.0000    0.0000 C   0  0  0  0  0  0  0  0  0  0  0  0
   -0.7511   -0.4125    0.0000 N   0  0  0  0  0  0  0  0  0  0  0  0
   -0.7511   -1.2375    0.0000 C   0  0  0  0  0  0  0  0  0  0  0  0
   -0.0366   -1.6500    0.0000 O   0  0  0  0  0  0  0  0  0  0  0  0
   -1.4656   -1.6500    0.0000 N   0  0  0  0  0  0  0  0  0  0  0  0
   -1.4656   -2.4750    0.0000 C   0  0  0  0  0  0  0  0  0  0  0  0
   -2.1800   -1.2375    0.0000 C   0  0  0  0  0  0  0  0  0  0  0  0
   -0.0366    0.8250    0.0000 C   0  0  0  0  0  0  0  0  0  0  0  0
    2.5193    2.9980    0.0000 H   0  0  0  0  0  0  0  0  0  0  0  0
    2.8213    4.1250    0.0000 H   0  0  0  0  0  0  0  0  0  0  0  0
    1.6943    4.4270    0.0000 H   0  0  0  0  0  0  0  0  0  0  0  0
    1.0903    4.4270    0.0000 H   0  0  0  0  0  0  0  0  0  0  0  0
   -0.0366    4.1250    0.0000 H   0  0  0  0  0  0  0  0  0  0  0  0
    0.2653    2.9980    0.0000 H   0  0  0  0  0  0  0  0  0  0  0  0
   -0.0366    2.4750    0.0000 H   0  0  0  0  0  0  0  0  0  0  0  0
    2.1068    1.2375    0.0000 H   0  0  0  0  0  0  0  0  0  0  0  0
    2.1068   -0.4125    0.0000 H   0  0  0  0  0  0  0  0  0  0  0  0
    0.6778   -2.0625    0.0000 H   0  0  0  0  0  0  0  0  0  0  0  0
    1.3923   -1.6500    0.0000 H   0  0  0  0  0  0  0  0  0  0  0  0
    1.3923   -0.8250    0.0000 H   0  0  0  0  0  0  0  0  0  0  0  0
   -1.4656    0.0000    0.0000 H   0  0  0  0  0  0  0  0  0  0  0  0
   -2.2906   -2.4750    0.0000 H   0  0  0  0  0  0  0  0  0  0  0  0
   -1.4656   -3.3000    0.0000 H   0  0  0  0  0  0  0  0  0  0  0  0
   -0.6406   -2.4750    0.0000 H   0  0  0  0  0  0  0  0  0  0  0  0
   -1.7675   -0.5230    0.0000 H   0  0  0  0  0  0  0  0  0  0  0  0
   -2.8945   -0.8250    0.0000 H   0  0  0  0  0  0  0  0  0  0  0  0
   -2.5925   -1.9520    0.0000 H   0  0  0  0  0  0  0  0  0  0  0  0
   -0.7511    1.2375    0.0000 H   0  0  0  0  0  0  0  0  0  0  0  0
  1  2  1  0  0  0  0
  2  3  1  0  0  0  0
  2  4  1  0  0  0  0
  4  5  2  0  0  0  0
  4  6  1  0  0  0  0
  6  7  1  0  0  0  0
  7  8  4  0  0  0  0
  8  9  4  0  0  0  0
  9 10  4  0  0  0  0
 10 11  1  0  0  0  0
 10 12  4  0  0  0  0
 12 13  1  0  0  0  0
 13 14  1  0  0  0  0
 14 15  2  0  0  0  0
 14 16  1  0  0  0  0
 16 17  1  0  0  0  0
 16 18  1  0  0  0  0
 12 19  4  0  0  0  0
  7 19  4  0  0  0  0
  1 20  1  0  0  0  0
  1 21  1  0  0  0  0
  1 22  1  0  0  0  0
  3 23  1  0  0  0  0
  3 24  1  0  0  0  0
  3 25  1  0  0  0  0
  6 26  1  0  0  0  0
  8 27  1  0  0  0  0
  9 28  1  0  0  0  0
 11 29  1  0  0  0  0
 11 30  1  0  0  0  0
 11 31  1  0  0  0  0
 13 32  1  0  0  0  0
 17 33  1  0  0  0  0
 17 34  1  0  0  0  0
 17 35  1  0  0  0  0
 18 36  1  0  0  0  0
 18 37  1  0  0  0  0
 18 38  1  0  0  0  0
 19 39  1  0  0  0  0
M  END
>  <InChIKey>
KDQTUCKOAOGTLT-UHFFFAOYSA-N

>  <UN GHS>
Non-irritant

>  <CASRN>
17526-94-2

> <Outcome>
0

>  <Index>
370

>  <StandardizerResult>
Dearomatize (ID: Dearomatize)
Clear Stereo (ID: ClearStereo)
Wedge Clean (ID: WedgeClean)
Mesomerize (ID: Mesomerize)
Tautomerize (ID: Tautomerize)
Aromatize (ID: Aromatize)
Add Explicit Hydrogens (ID: AddExplicitH)
Neutralize (ID: Neutralize)
Clean 2D (ID: Clean2D)

> <knn Distance>
4.24264049530029

> <CpId>
370

$$$$
407
  Mrv1532301301811342D          

 42 42  0  0  0  0            999 V2000
    2.4531    2.1915    0.0000 C   0  0  0  0  0  0  0  0  0  0  0  0
    1.6337    2.2873    0.0000 C   0  0  0  0  0  0  0  0  0  0  0  0
    1.1411    1.6255    0.0000 C   0  0  0  0  0  0  0  0  0  0  0  0
    0.6484    2.2873    0.0000 C   0  0  0  0  0  0  0  0  0  0  0  0
    1.9163    1.3434    0.0000 O   0  0  0  0  0  0  0  0  0  0  0  0
    2.3288    0.6289    0.0000 O   0  0  0  0  0  0  0  0  0  0  0  0
    2.1855   -0.1836    0.0000 C   0  0  0  0  0  0  0  0  0  0  0  0
    3.0050   -0.0878    0.0000 C   0  0  0  0  0  0  0  0  0  0  0  0
    2.5123   -0.9411    0.0000 C   0  0  0  0  0  0  0  0  0  0  0  0
    3.3317   -1.0369    0.0000 C   0  0  0  0  0  0  0  0  0  0  0  0
    1.5536   -0.7139    0.0000 O   0  0  0  0  0  0  0  0  0  0  0  0
    0.7286   -0.7139    0.0000 O   0  0  0  0  0  0  0  0  0  0  0  0
    0.0966   -0.1836    0.0000 C   0  0  0  0  0  0  0  0  0  0  0  0
   -0.2302   -0.9411    0.0000 C   0  0  0  0  0  0  0  0  0  0  0  0
   -0.7228   -0.0878    0.0000 C   0  0  0  0  0  0  0  0  0  0  0  0
   -1.0496    0.6697    0.0000 C   0  0  0  0  0  0  0  0  0  0  0  0
   -0.0467    0.6289    0.0000 O   0  0  0  0  0  0  0  0  0  0  0  0
    0.3658    1.3434    0.0000 O   0  0  0  0  0  0  0  0  0  0  0  0
    2.3574    1.3721    0.0000 H   0  0  0  0  0  0  0  0  0  0  0  0
    3.2726    2.0957    0.0000 H   0  0  0  0  0  0  0  0  0  0  0  0
    2.5489    3.0109    0.0000 H   0  0  0  0  0  0  0  0  0  0  0  0
    1.6817    3.1109    0.0000 H   0  0  0  0  0  0  0  0  0  0  0  0
    1.0017    2.8176    0.0000 H   0  0  0  0  0  0  0  0  0  0  0  0
    0.2496    3.0095    0.0000 H   0  0  0  0  0  0  0  0  0  0  0  0
   -0.1763    2.2658    0.0000 H   0  0  0  0  0  0  0  0  0  0  0  0
    0.2878    1.5453    0.0000 H   0  0  0  0  0  0  0  0  0  0  0  0
    3.1007   -0.9072    0.0000 H   0  0  0  0  0  0  0  0  0  0  0  0
    3.8244    0.0080    0.0000 H   0  0  0  0  0  0  0  0  0  0  0  0
    2.9092    0.7316    0.0000 H   0  0  0  0  0  0  0  0  0  0  0  0
    1.7751   -1.3113    0.0000 H   0  0  0  0  0  0  0  0  0  0  0  0
    2.3691   -1.7536    0.0000 H   0  0  0  0  0  0  0  0  0  0  0  0
    3.1556   -1.8428    0.0000 H   0  0  0  0  0  0  0  0  0  0  0  0
    4.1164   -1.2916    0.0000 H   0  0  0  0  0  0  0  0  0  0  0  0
    3.6626   -0.2811    0.0000 H   0  0  0  0  0  0  0  0  0  0  0  0
   -0.9877   -0.6143    0.0000 H   0  0  0  0  0  0  0  0  0  0  0  0
   -0.5570   -1.6986    0.0000 H   0  0  0  0  0  0  0  0  0  0  0  0
    0.5273   -1.2679    0.0000 H   0  0  0  0  0  0  0  0  0  0  0  0
   -1.5475   -0.0635    0.0000 H   0  0  0  0  0  0  0  0  0  0  0  0
   -0.3315   -0.8141    0.0000 H   0  0  0  0  0  0  0  0  0  0  0  0
   -0.2347    0.7982    0.0000 H   0  0  0  0  0  0  0  0  0  0  0  0
   -0.9717    1.4911    0.0000 H   0  0  0  0  0  0  0  0  0  0  0  0
   -1.8258    0.9492    0.0000 H   0  0  0  0  0  0  0  0  0  0  0  0
  1  2  1  0  0  0  0
  2  3  1  0  0  0  0
  3  4  1  0  0  0  0
  3  5  1  0  0  0  0
  5  6  1  0  0  0  0
  6  7  1  0  0  0  0
  7  8  1  0  0  0  0
  7  9  1  0  0  0  0
  9 10  1  0  0  0  0
  7 11  1  0  0  0  0
 11 12  1  0  0  0  0
 12 13  1  0  0  0  0
 13 14  1  0  0  0  0
 13 15  1  0  0  0  0
 15 16  1  0  0  0  0
 13 17  1  0  0  0  0
 17 18  1  0  0  0  0
  3 18  1  0  0  0  0
  1 19  1  0  0  0  0
  1 20  1  0  0  0  0
  1 21  1  0  0  0  0
  2 22  1  0  0  0  0
  2 23  1  0  0  0  0
  4 24  1  0  0  0  0
  4 25  1  0  0  0  0
  4 26  1  0  0  0  0
  8 27  1  0  0  0  0
  8 28  1  0  0  0  0
  8 29  1  0  0  0  0
  9 30  1  0  0  0  0
  9 31  1  0  0  0  0
 10 32  1  0  0  0  0
 10 33  1  0  0  0  0
 10 34  1  0  0  0  0
 14 35  1  0  0  0  0
 14 36  1  0  0  0  0
 14 37  1  0  0  0  0
 15 38  1  0  0  0  0
 15 39  1  0  0  0  0
 16 40  1  0  0  0  0
 16 41  1  0  0  0  0
 16 42  1  0  0  0  0
M  END
>  <InChIKey>
KVWLLOIEGKLBPA-UHFFFAOYSA-N

>  <UN GHS>
Non-irritant

>  <CASRN>
24748-23-0

> <Outcome>
0

>  <Index>
407

>  <StandardizerResult>
Clear Stereo (ID: ClearStereo)
Wedge Clean (ID: WedgeClean)
Mesomerize (ID: Mesomerize)
Tautomerize (ID: Tautomerize)
Add Explicit Hydrogens (ID: AddExplicitH)
Neutralize (ID: Neutralize)
Clean 2D (ID: Clean2D)

> <knn Distance>
4.24264049530029

> <CpId>
407

$$$$
416
  Mrv1532301301811342D          

 20 20  0  0  0  0            999 V2000
    1.5264    2.2397    0.0000 C   0  0  0  0  0  0  0  0  0  0  0  0
    1.5264    1.4147    0.0000 C   0  0  0  0  0  0  0  0  0  0  0  0
    2.2408    1.0022    0.0000 O   0  0  0  0  0  0  0  0  0  0  0  0
    0.8119    1.0022    0.0000 N   0  0  0  0  0  0  0  0  0  0  0  0
    0.8119    0.1772    0.0000 C   0  0  0  0  0  0  0  0  0  0  0  0
    0.0974   -0.2353    0.0000 C   0  0  0  0  0  0  0  0  0  0  0  0
   -0.6170    0.1772    0.0000 O   0  0  0  0  0  0  0  0  0  0  0  0
   -0.6170    1.0022    0.0000 C   0  0  0  0  0  0  0  0  0  0  0  0
    0.0974    1.4147    0.0000 C   0  0  0  0  0  0  0  0  0  0  0  0
    2.3514    2.2397    0.0000 H   0  0  0  0  0  0  0  0  0  0  0  0
    1.5264    3.0647    0.0000 H   0  0  0  0  0  0  0  0  0  0  0  0
    0.7014    2.2397    0.0000 H   0  0  0  0  0  0  0  0  0  0  0  0
    1.2652   -0.5121    0.0000 H   0  0  0  0  0  0  0  0  0  0  0  0
    1.6355    0.1292    0.0000 H   0  0  0  0  0  0  0  0  0  0  0  0
   -0.2728   -0.9726    0.0000 H   0  0  0  0  0  0  0  0  0  0  0  0
    0.4677   -0.9726    0.0000 H   0  0  0  0  0  0  0  0  0  0  0  0
   -1.0704    1.6914    0.0000 H   0  0  0  0  0  0  0  0  0  0  0  0
   -1.4407    1.0501    0.0000 H   0  0  0  0  0  0  0  0  0  0  0  0
    0.4677    2.1519    0.0000 H   0  0  0  0  0  0  0  0  0  0  0  0
   -0.2728    2.1519    0.0000 H   0  0  0  0  0  0  0  0  0  0  0  0
  1  2  1  0  0  0  0
  2  3  2  0  0  0  0
  2  4  1  0  0  0  0
  4  5  1  0  0  0  0
  5  6  1  0  0  0  0
  6  7  1  0  0  0  0
  7  8  1  0  0  0  0
  8  9  1  0  0  0  0
  4  9  1  0  0  0  0
  1 10  1  0  0  0  0
  1 11  1  0  0  0  0
  1 12  1  0  0  0  0
  5 13  1  0  0  0  0
  5 14  1  0  0  0  0
  6 15  1  0  0  0  0
  6 16  1  0  0  0  0
  8 17  1  0  0  0  0
  8 18  1  0  0  0  0
  9 19  1  0  0  0  0
  9 20  1  0  0  0  0
M  END
>  <InChIKey>
KYWXRBNOYGGPIZ-UHFFFAOYSA-N

>  <UN GHS>
Non-irritant

>  <CASRN>
1696-20-4

> <Outcome>
0

>  <Index>
416

>  <StandardizerResult>
Clear Stereo (ID: ClearStereo)
Wedge Clean (ID: WedgeClean)
Mesomerize (ID: Mesomerize)
Tautomerize (ID: Tautomerize)
Add Explicit Hydrogens (ID: AddExplicitH)
Neutralize (ID: Neutralize)
Clean 2D (ID: Clean2D)

> <knn Distance>
4.24264049530029

> <CpId>
416

$$$$
822
  Mrv1532301301811342D          

103104  0  0  0  0            999 V2000
    1.4095   -8.2493    0.0000 C   0  0  0  0  0  0  0  0  0  0  0  0
    2.1240   -8.6618    0.0000 C   0  0  0  0  0  0  0  0  0  0  0  0
    1.7115   -9.3762    0.0000 C   0  0  0  0  0  0  0  0  0  0  0  0
    2.5365   -7.9473    0.0000 C   0  0  0  0  0  0  0  0  0  0  0  0
    2.8385   -9.0743    0.0000 C   0  0  0  0  0  0  0  0  0  0  0  0
    3.5529   -8.6618    0.0000 C   0  0  0  0  0  0  0  0  0  0  0  0
    4.2674   -9.0743    0.0000 C   0  0  0  0  0  0  0  0  0  0  0  0
    4.9819   -8.6618    0.0000 C   0  0  0  0  0  0  0  0  0  0  0  0
    5.6963   -9.0743    0.0000 C   0  0  0  0  0  0  0  0  0  0  0  0
    6.4108   -8.6618    0.0000 C   0  0  0  0  0  0  0  0  0  0  0  0
    6.4108   -7.8368    0.0000 O   0  0  0  0  0  0  0  0  0  0  0  0
    7.1253   -9.0743    0.0000 O   0  0  0  0  0  0  0  0  0  0  0  0
    7.8397   -8.6618    0.0000 C   0  0  0  0  0  0  0  0  0  0  0  0
    8.5542   -9.0743    0.0000 C   0  0  0  0  0  0  0  0  0  0  0  0
    9.2687   -8.6618    0.0000 S   0  0  0  0  0  0  0  0  0  0  0  0
    9.9832   -9.0743    0.0000 C   0  0  0  0  0  0  0  0  0  0  0  0
   10.6976   -8.6618    0.0000 C   0  0  0  0  0  0  0  0  0  0  0  0
   11.4121   -9.0743    0.0000 O   0  0  0  0  0  0  0  0  0  0  0  0
   12.1266   -8.6618    0.0000 C   0  0  0  0  0  0  0  0  0  0  0  0
   12.1266   -7.8368    0.0000 O   0  0  0  0  0  0  0  0  0  0  0  0
   12.8410   -9.0743    0.0000 C   0  0  0  0  0  0  0  0  0  0  0  0
   13.5555   -8.6618    0.0000 C   0  0  0  0  0  0  0  0  0  0  0  0
   14.2700   -9.0743    0.0000 C   0  0  0  0  0  0  0  0  0  0  0  0
   14.9845   -8.6618    0.0000 C   0  0  0  0  0  0  0  0  0  0  0  0
   15.6989   -9.0743    0.0000 C   0  0  0  0  0  0  0  0  0  0  0  0
   15.6989   -9.8993    0.0000 C   0  0  0  0  0  0  0  0  0  0  0  0
   16.4134  -10.3118    0.0000 O   0  0  0  0  0  0  0  0  0  0  0  0
   14.9845  -10.3118    0.0000 C   0  0  0  0  0  0  0  0  0  0  0  0
   14.2700   -9.8993    0.0000 C   0  0  0  0  0  0  0  0  0  0  0  0
   14.9845  -11.1368    0.0000 C   0  0  0  0  0  0  0  0  0  0  0  0
   14.9845  -11.9618    0.0000 C   0  0  0  0  0  0  0  0  0  0  0  0
   14.1595  -11.1368    0.0000 C   0  0  0  0  0  0  0  0  0  0  0  0
   15.8095  -11.1368    0.0000 C   0  0  0  0  0  0  0  0  0  0  0  0
   16.4134   -8.6618    0.0000 C   0  0  0  0  0  0  0  0  0  0  0  0
   17.1279   -8.2493    0.0000 C   0  0  0  0  0  0  0  0  0  0  0  0
   16.8259   -9.3762    0.0000 C   0  0  0  0  0  0  0  0  0  0  0  0
   16.0009   -7.9473    0.0000 C   0  0  0  0  0  0  0  0  0  0  0  0
    4.2674   -9.8993    0.0000 C   0  0  0  0  0  0  0  0  0  0  0  0
    3.5529  -10.3118    0.0000 C   0  0  0  0  0  0  0  0  0  0  0  0
    2.8385   -9.8993    0.0000 C   0  0  0  0  0  0  0  0  0  0  0  0
    2.1240  -10.3118    0.0000 O   0  0  0  0  0  0  0  0  0  0  0  0
    3.5529  -11.1368    0.0000 C   0  0  0  0  0  0  0  0  0  0  0  0
    3.5529  -11.9618    0.0000 C   0  0  0  0  0  0  0  0  0  0  0  0
    2.7279  -11.1368    0.0000 C   0  0  0  0  0  0  0  0  0  0  0  0
    4.3779  -11.1368    0.0000 C   0  0  0  0  0  0  0  0  0  0  0  0
    1.8220   -7.5348    0.0000 H   0  0  0  0  0  0  0  0  0  0  0  0
    0.6950   -7.8368    0.0000 H   0  0  0  0  0  0  0  0  0  0  0  0
    0.9970   -8.9637    0.0000 H   0  0  0  0  0  0  0  0  0  0  0  0
    1.0570   -9.8785    0.0000 H   0  0  0  0  0  0  0  0  0  0  0  0
    1.9250  -10.1731    0.0000 H   0  0  0  0  0  0  0  0  0  0  0  0
    2.5294   -9.4839    0.0000 H   0  0  0  0  0  0  0  0  0  0  0  0
    3.0387   -8.6018    0.0000 H   0  0  0  0  0  0  0  0  0  0  0  0
    3.3334   -7.7338    0.0000 H   0  0  0  0  0  0  0  0  0  0  0  0
    2.6442   -7.1294    0.0000 H   0  0  0  0  0  0  0  0  0  0  0  0
    4.2148   -8.1693    0.0000 H   0  0  0  0  0  0  0  0  0  0  0  0
    5.7027   -8.2606    0.0000 H   0  0  0  0  0  0  0  0  0  0  0  0
    5.0078   -7.8372    0.0000 H   0  0  0  0  0  0  0  0  0  0  0  0
    5.3261   -9.8115    0.0000 H   0  0  0  0  0  0  0  0  0  0  0  0
    6.0666   -9.8115    0.0000 H   0  0  0  0  0  0  0  0  0  0  0  0
    8.2100   -7.9245    0.0000 H   0  0  0  0  0  0  0  0  0  0  0  0
    7.4695   -7.9245    0.0000 H   0  0  0  0  0  0  0  0  0  0  0  0
    8.1840   -9.8115    0.0000 H   0  0  0  0  0  0  0  0  0  0  0  0
    8.9245   -9.8115    0.0000 H   0  0  0  0  0  0  0  0  0  0  0  0
    9.6129   -9.8115    0.0000 H   0  0  0  0  0  0  0  0  0  0  0  0
   10.3534   -9.8115    0.0000 H   0  0  0  0  0  0  0  0  0  0  0  0
   11.0679   -7.9245    0.0000 H   0  0  0  0  0  0  0  0  0  0  0  0
   10.3274   -7.9245    0.0000 H   0  0  0  0  0  0  0  0  0  0  0  0
   12.4708   -9.8115    0.0000 H   0  0  0  0  0  0  0  0  0  0  0  0
   13.2113   -9.8115    0.0000 H   0  0  0  0  0  0  0  0  0  0  0  0
   13.9258   -7.9245    0.0000 H   0  0  0  0  0  0  0  0  0  0  0  0
   13.1853   -7.9245    0.0000 H   0  0  0  0  0  0  0  0  0  0  0  0
   14.9845   -7.8368    0.0000 H   0  0  0  0  0  0  0  0  0  0  0  0
   16.4134  -11.1368    0.0000 H   0  0  0  0  0  0  0  0  0  0  0  0
   13.5555  -10.3118    0.0000 H   0  0  0  0  0  0  0  0  0  0  0  0
   14.1595  -11.9618    0.0000 H   0  0  0  0  0  0  0  0  0  0  0  0
   14.9845  -12.7868    0.0000 H   0  0  0  0  0  0  0  0  0  0  0  0
   15.8095  -11.9618    0.0000 H   0  0  0  0  0  0  0  0  0  0  0  0
   14.4752  -10.3746    0.0000 H   0  0  0  0  0  0  0  0  0  0  0  0
   13.5761  -10.5534    0.0000 H   0  0  0  0  0  0  0  0  0  0  0  0
   13.3973  -11.4525    0.0000 H   0  0  0  0  0  0  0  0  0  0  0  0
   16.0916  -10.3615    0.0000 H   0  0  0  0  0  0  0  0  0  0  0  0
   15.5273  -10.3615    0.0000 H   0  0  0  0  0  0  0  0  0  0  0  0
   16.3928  -11.7201    0.0000 H   0  0  0  0  0  0  0  0  0  0  0  0
   17.5404   -8.9637    0.0000 H   0  0  0  0  0  0  0  0  0  0  0  0
   17.8423   -7.8368    0.0000 H   0  0  0  0  0  0  0  0  0  0  0  0
   16.7154   -7.5348    0.0000 H   0  0  0  0  0  0  0  0  0  0  0  0
   16.0080   -9.4839    0.0000 H   0  0  0  0  0  0  0  0  0  0  0  0
   16.6124  -10.1731    0.0000 H   0  0  0  0  0  0  0  0  0  0  0  0
   17.4804   -9.8785    0.0000 H   0  0  0  0  0  0  0  0  0  0  0  0
   15.8932   -7.1294    0.0000 H   0  0  0  0  0  0  0  0  0  0  0  0
   15.2040   -7.7338    0.0000 H   0  0  0  0  0  0  0  0  0  0  0  0
   15.4987   -8.6018    0.0000 H   0  0  0  0  0  0  0  0  0  0  0  0
    4.9819  -10.3118    0.0000 H   0  0  0  0  0  0  0  0  0  0  0  0
    2.0889  -11.1360    0.0000 H   0  0  0  0  0  0  0  0  0  0  0  0
    2.7279  -11.9618    0.0000 H   0  0  0  0  0  0  0  0  0  0  0  0
    3.5529  -12.7868    0.0000 H   0  0  0  0  0  0  0  0  0  0  0  0
    4.3779  -11.9618    0.0000 H   0  0  0  0  0  0  0  0  0  0  0  0
    3.1407  -10.4225    0.0000 H   0  0  0  0  0  0  0  0  0  0  0  0
    2.3160  -10.4220    0.0000 H   0  0  0  0  0  0  0  0  0  0  0  0
    2.1442  -11.7198    0.0000 H   0  0  0  0  0  0  0  0  0  0  0  0
    5.1401  -11.4525    0.0000 H   0  0  0  0  0  0  0  0  0  0  0  0
    4.9613  -10.5534    0.0000 H   0  0  0  0  0  0  0  0  0  0  0  0
    4.0622  -10.3746    0.0000 H   0  0  0  0  0  0  0  0  0  0  0  0
  1  2  1  0  0  0  0
  2  3  1  0  0  0  0
  2  4  1  0  0  0  0
  2  5  1  0  0  0  0
  5  6  4  0  0  0  0
  6  7  4  0  0  0  0
  7  8  1  0  0  0  0
  8  9  1  0  0  0  0
  9 10  1  0  0  0  0
 10 11  2  0  0  0  0
 10 12  1  0  0  0  0
 12 13  1  0  0  0  0
 13 14  1  0  0  0  0
 14 15  1  0  0  0  0
 15 16  1  0  0  0  0
 16 17  1  0  0  0  0
 17 18  1  0  0  0  0
 18 19  1  0  0  0  0
 19 20  2  0  0  0  0
 19 21  1  0  0  0  0
 21 22  1  0  0  0  0
 22 23  1  0  0  0  0
 23 24  4  0  0  0  0
 24 25  4  0  0  0  0
 25 26  4  0  0  0  0
 26 27  1  0  0  0  0
 26 28  4  0  0  0  0
 28 29  4  0  0  0  0
 23 29  4  0  0  0  0
 28 30  1  0  0  0  0
 30 31  1  0  0  0  0
 30 32  1  0  0  0  0
 30 33  1  0  0  0  0
 25 34  1  0  0  0  0
 34 35  1  0  0  0  0
 34 36  1  0  0  0  0
 34 37  1  0  0  0  0
  7 38  4  0  0  0  0
 38 39  4  0  0  0  0
 39 40  4  0  0  0  0
  5 40  4  0  0  0  0
 40 41  1  0  0  0  0
 39 42  1  0  0  0  0
 42 43  1  0  0  0  0
 42 44  1  0  0  0  0
 42 45  1  0  0  0  0
  1 46  1  0  0  0  0
  1 47  1  0  0  0  0
  1 48  1  0  0  0  0
  3 49  1  0  0  0  0
  3 50  1  0  0  0  0
  3 51  1  0  0  0  0
  4 52  1  0  0  0  0
  4 53  1  0  0  0  0
  4 54  1  0  0  0  0
  6 55  1  0  0  0  0
  8 56  1  0  0  0  0
  8 57  1  0  0  0  0
  9 58  1  0  0  0  0
  9 59  1  0  0  0  0
 13 60  1  0  0  0  0
 13 61  1  0  0  0  0
 14 62  1  0  0  0  0
 14 63  1  0  0  0  0
 16 64  1  0  0  0  0
 16 65  1  0  0  0  0
 17 66  1  0  0  0  0
 17 67  1  0  0  0  0
 21 68  1  0  0  0  0
 21 69  1  0  0  0  0
 22 70  1  0  0  0  0
 22 71  1  0  0  0  0
 24 72  1  0  0  0  0
 27 73  1  0  0  0  0
 29 74  1  0  0  0  0
 31 75  1  0  0  0  0
 31 76  1  0  0  0  0
 31 77  1  0  0  0  0
 32 78  1  0  0  0  0
 32 79  1  0  0  0  0
 32 80  1  0  0  0  0
 33 81  1  0  0  0  0
 33 82  1  0  0  0  0
 33 83  1  0  0  0  0
 35 84  1  0  0  0  0
 35 85  1  0  0  0  0
 35 86  1  0  0  0  0
 36 87  1  0  0  0  0
 36 88  1  0  0  0  0
 36 89  1  0  0  0  0
 37 90  1  0  0  0  0
 37 91  1  0  0  0  0
 37 92  1  0  0  0  0
 38 93  1  0  0  0  0
 41 94  1  0  0  0  0
 43 95  1  0  0  0  0
 43 96  1  0  0  0  0
 43 97  1  0  0  0  0
 44 98  1  0  0  0  0
 44 99  1  0  0  0  0
 44100  1  0  0  0  0
 45101  1  0  0  0  0
 45102  1  0  0  0  0
 45103  1  0  0  0  0
M  END
>  <InChIKey>
VFBJXXJYHWLXRM-UHFFFAOYSA-N

>  <UN GHS>
Non-irritant

>  <CASRN>
41484-35-9

> <Outcome>
0

>  <Index>
822

>  <StandardizerResult>
Dearomatize (ID: Dearomatize)
Clear Stereo (ID: ClearStereo)
Wedge Clean (ID: WedgeClean)
Mesomerize (ID: Mesomerize)
Tautomerize (ID: Tautomerize)
Aromatize (ID: Aromatize)
Add Explicit Hydrogens (ID: AddExplicitH)
Neutralize (ID: Neutralize)
Clean 2D (ID: Clean2D)

> <knn Distance>
4.24264049530029

> <CpId>
822

$$$$
828
  Mrv1532301301811342D          

 65 66  0  0  0  0            999 V2000
   -7.1586   -4.1330    0.0000 C   0  0  0  0  0  0  0  0  0  0  0  0
   -6.4441   -3.7205    0.0000 C   0  0  0  0  0  0  0  0  0  0  0  0
   -5.7296   -4.1330    0.0000 C   0  0  0  0  0  0  0  0  0  0  0  0
   -6.4441   -2.8955    0.0000 C   0  0  0  0  0  0  0  0  0  0  0  0
   -7.1586   -2.4830    0.0000 O   0  0  0  0  0  0  0  0  0  0  0  0
   -5.7296   -2.4830    0.0000 O   0  0  0  0  0  0  0  0  0  0  0  0
   -5.7296   -1.6580    0.0000 C   0  0  0  0  0  0  0  0  0  0  0  0
   -5.0152   -1.2455    0.0000 C   0  0  0  0  0  0  0  0  0  0  0  0
   -5.0152   -0.4205    0.0000 O   0  0  0  0  0  0  0  0  0  0  0  0
   -4.3007   -0.0080    0.0000 C   0  0  0  0  0  0  0  0  0  0  0  0
   -4.3007    0.8170    0.0000 C   0  0  0  0  0  0  0  0  0  0  0  0
   -3.5862    1.2295    0.0000 C   0  0  0  0  0  0  0  0  0  0  0  0
   -2.8718    0.8170    0.0000 C   0  0  0  0  0  0  0  0  0  0  0  0
   -2.8718   -0.0080    0.0000 C   0  0  0  0  0  0  0  0  0  0  0  0
   -3.5862   -0.4205    0.0000 C   0  0  0  0  0  0  0  0  0  0  0  0
   -2.1573    1.2295    0.0000 C   0  0  0  0  0  0  0  0  0  0  0  0
   -1.7448    0.5150    0.0000 C   0  0  0  0  0  0  0  0  0  0  0  0
   -2.5698    1.9440    0.0000 C   0  0  0  0  0  0  0  0  0  0  0  0
   -1.4428    1.6420    0.0000 C   0  0  0  0  0  0  0  0  0  0  0  0
   -1.4428    2.4670    0.0000 C   0  0  0  0  0  0  0  0  0  0  0  0
   -0.7283    2.8795    0.0000 C   0  0  0  0  0  0  0  0  0  0  0  0
   -0.0139    2.4670    0.0000 C   0  0  0  0  0  0  0  0  0  0  0  0
    0.7006    2.8795    0.0000 O   0  0  0  0  0  0  0  0  0  0  0  0
    1.4151    2.4670    0.0000 C   0  0  0  0  0  0  0  0  0  0  0  0
    2.1295    2.8795    0.0000 C   0  0  0  0  0  0  0  0  0  0  0  0
    2.8440    2.4670    0.0000 O   0  0  0  0  0  0  0  0  0  0  0  0
    3.5585    2.8795    0.0000 C   0  0  0  0  0  0  0  0  0  0  0  0
    3.5585    3.7045    0.0000 O   0  0  0  0  0  0  0  0  0  0  0  0
    4.2730    2.4670    0.0000 C   0  0  0  0  0  0  0  0  0  0  0  0
    4.9874    2.8795    0.0000 C   0  0  0  0  0  0  0  0  0  0  0  0
    4.2730    1.6420    0.0000 C   0  0  0  0  0  0  0  0  0  0  0  0
   -0.0139    1.6420    0.0000 C   0  0  0  0  0  0  0  0  0  0  0  0
   -0.7283    1.2295    0.0000 C   0  0  0  0  0  0  0  0  0  0  0  0
   -7.5711   -3.4185    0.0000 H   0  0  0  0  0  0  0  0  0  0  0  0
   -7.8730   -4.5455    0.0000 H   0  0  0  0  0  0  0  0  0  0  0  0
   -6.7461   -4.8475    0.0000 H   0  0  0  0  0  0  0  0  0  0  0  0
   -5.7296   -4.9580    0.0000 H   0  0  0  0  0  0  0  0  0  0  0  0
   -5.0152   -3.7205    0.0000 H   0  0  0  0  0  0  0  0  0  0  0  0
   -6.1830   -0.9687    0.0000 H   0  0  0  0  0  0  0  0  0  0  0  0
   -6.5532   -1.6100    0.0000 H   0  0  0  0  0  0  0  0  0  0  0  0
   -4.5618   -1.9348    0.0000 H   0  0  0  0  0  0  0  0  0  0  0  0
   -4.1916   -1.2935    0.0000 H   0  0  0  0  0  0  0  0  0  0  0  0
   -5.0152    1.2295    0.0000 H   0  0  0  0  0  0  0  0  0  0  0  0
   -3.5862    2.0545    0.0000 H   0  0  0  0  0  0  0  0  0  0  0  0
   -2.1573   -0.4205    0.0000 H   0  0  0  0  0  0  0  0  0  0  0  0
   -3.5862   -1.2455    0.0000 H   0  0  0  0  0  0  0  0  0  0  0  0
   -2.4593    0.1025    0.0000 H   0  0  0  0  0  0  0  0  0  0  0  0
   -1.3323   -0.1994    0.0000 H   0  0  0  0  0  0  0  0  0  0  0  0
   -1.0303    0.9275    0.0000 H   0  0  0  0  0  0  0  0  0  0  0  0
   -1.8553    2.3565    0.0000 H   0  0  0  0  0  0  0  0  0  0  0  0
   -2.9823    2.6584    0.0000 H   0  0  0  0  0  0  0  0  0  0  0  0
   -3.2843    1.5315    0.0000 H   0  0  0  0  0  0  0  0  0  0  0  0
   -1.7585    3.2292    0.0000 H   0  0  0  0  0  0  0  0  0  0  0  0
   -0.7283    3.7045    0.0000 H   0  0  0  0  0  0  0  0  0  0  0  0
    1.0448    1.7297    0.0000 H   0  0  0  0  0  0  0  0  0  0  0  0
    1.7853    1.7297    0.0000 H   0  0  0  0  0  0  0  0  0  0  0  0
    2.4998    3.6167    0.0000 H   0  0  0  0  0  0  0  0  0  0  0  0
    1.7593    3.6167    0.0000 H   0  0  0  0  0  0  0  0  0  0  0  0
    5.3999    2.1650    0.0000 H   0  0  0  0  0  0  0  0  0  0  0  0
    5.7019    3.2920    0.0000 H   0  0  0  0  0  0  0  0  0  0  0  0
    4.5749    3.5940    0.0000 H   0  0  0  0  0  0  0  0  0  0  0  0
    3.5585    1.2295    0.0000 H   0  0  0  0  0  0  0  0  0  0  0  0
    4.9874    1.2295    0.0000 H   0  0  0  0  0  0  0  0  0  0  0  0
    0.7006    1.2295    0.0000 H   0  0  0  0  0  0  0  0  0  0  0  0
   -0.2261    0.5750    0.0000 H   0  0  0  0  0  0  0  0  0  0  0  0
  1  2  1  0  0  0  0
  2  3  2  0  0  0  0
  2  4  1  0  0  0  0
  4  5  2  0  0  0  0
  4  6  1  0  0  0  0
  6  7  1  0  0  0  0
  7  8  1  0  0  0  0
  8  9  1  0  0  0  0
  9 10  1  0  0  0  0
 10 11  4  0  0  0  0
 11 12  4  0  0  0  0
 12 13  4  0  0  0  0
 13 14  4  0  0  0  0
 14 15  4  0  0  0  0
 10 15  4  0  0  0  0
 13 16  1  0  0  0  0
 16 17  1  0  0  0  0
 16 18  1  0  0  0  0
 16 19  1  0  0  0  0
 19 20  4  0  0  0  0
 20 21  4  0  0  0  0
 21 22  4  0  0  0  0
 22 23  1  0  0  0  0
 23 24  1  0  0  0  0
 24 25  1  0  0  0  0
 25 26  1  0  0  0  0
 26 27  1  0  0  0  0
 27 28  2  0  0  0  0
 27 29  1  0  0  0  0
 29 30  1  0  0  0  0
 29 31  2  0  0  0  0
 22 32  4  0  0  0  0
 32 33  4  0  0  0  0
 19 33  4  0  0  0  0
  1 34  1  0  0  0  0
  1 35  1  0  0  0  0
  1 36  1  0  0  0  0
  3 37  1  0  0  0  0
  3 38  1  0  0  0  0
  7 39  1  0  0  0  0
  7 40  1  0  0  0  0
  8 41  1  0  0  0  0
  8 42  1  0  0  0  0
 11 43  1  0  0  0  0
 12 44  1  0  0  0  0
 14 45  1  0  0  0  0
 15 46  1  0  0  0  0
 17 47  1  0  0  0  0
 17 48  1  0  0  0  0
 17 49  1  0  0  0  0
 18 50  1  0  0  0  0
 18 51  1  0  0  0  0
 18 52  1  0  0  0  0
 20 53  1  0  0  0  0
 21 54  1  0  0  0  0
 24 55  1  0  0  0  0
 24 56  1  0  0  0  0
 25 57  1  0  0  0  0
 25 58  1  0  0  0  0
 30 59  1  0  0  0  0
 30 60  1  0  0  0  0
 30 61  1  0  0  0  0
 31 62  1  0  0  0  0
 31 63  1  0  0  0  0
 32 64  1  0  0  0  0
 33 65  1  0  0  0  0
M  END
>  <InChIKey>
VIYWVRIBDZTTMH-UHFFFAOYSA-N

>  <UN GHS>
Non-irritant

>  <CASRN>
41637-38-1

> <Outcome>
0

>  <Index>
828

>  <StandardizerResult>
Dearomatize (ID: Dearomatize)
Clear Stereo (ID: ClearStereo)
Wedge Clean (ID: WedgeClean)
Mesomerize (ID: Mesomerize)
Tautomerize (ID: Tautomerize)
Aromatize (ID: Aromatize)
Add Explicit Hydrogens (ID: AddExplicitH)
Neutralize (ID: Neutralize)
Clean 2D (ID: Clean2D)

> <knn Distance>
4.24264049530029

> <CpId>
828

$$$$
848
  Mrv1532301301811342D          

 34 33  0  0  0  0            999 V2000
   -0.1956    0.7511    0.0000 C   0  0  0  0  0  0  0  0  0  0  0  0
    0.5189    1.1636    0.0000 C   0  0  0  0  0  0  0  0  0  0  0  0
    0.5189    1.9886    0.0000 C   0  0  0  0  0  0  0  0  0  0  0  0
    1.2334    0.7511    0.0000 C   0  0  0  0  0  0  0  0  0  0  0  0
    1.2334   -0.0739    0.0000 O   0  0  0  0  0  0  0  0  0  0  0  0
    1.9479    1.1636    0.0000 N   0  0  0  0  0  0  0  0  0  0  0  0
    2.6623    0.7511    0.0000 C   0  0  0  0  0  0  0  0  0  0  0  0
    3.3768    1.1636    0.0000 C   0  0  0  0  0  0  0  0  0  0  0  0
    4.0913    0.7511    0.0000 C   0  0  0  0  0  0  0  0  0  0  0  0
    4.8057    1.1636    0.0000 N   0  3  0  0  0  0  0  0  0  0  0  0
    5.5202    1.5761    0.0000 C   0  0  0  0  0  0  0  0  0  0  0  0
    5.2182    0.4491    0.0000 C   0  0  0  0  0  0  0  0  0  0  0  0
    4.3932    1.8781    0.0000 C   0  0  0  0  0  0  0  0  0  0  0  0
   -0.6081    1.4656    0.0000 H   0  0  0  0  0  0  0  0  0  0  0  0
   -0.9100    0.3386    0.0000 H   0  0  0  0  0  0  0  0  0  0  0  0
    0.2169    0.0366    0.0000 H   0  0  0  0  0  0  0  0  0  0  0  0
    1.2334    2.4011    0.0000 H   0  0  0  0  0  0  0  0  0  0  0  0
   -0.1956    2.4011    0.0000 H   0  0  0  0  0  0  0  0  0  0  0  0
    1.9479    1.9886    0.0000 H   0  0  0  0  0  0  0  0  0  0  0  0
    2.2921    0.0138    0.0000 H   0  0  0  0  0  0  0  0  0  0  0  0
    3.0326    0.0138    0.0000 H   0  0  0  0  0  0  0  0  0  0  0  0
    3.7471    1.9008    0.0000 H   0  0  0  0  0  0  0  0  0  0  0  0
    3.0065    1.9008    0.0000 H   0  0  0  0  0  0  0  0  0  0  0  0
    3.7210    0.0138    0.0000 H   0  0  0  0  0  0  0  0  0  0  0  0
    4.4615    0.0138    0.0000 H   0  0  0  0  0  0  0  0  0  0  0  0
    5.9327    0.8616    0.0000 H   0  0  0  0  0  0  0  0  0  0  0  0
    6.2347    1.9886    0.0000 H   0  0  0  0  0  0  0  0  0  0  0  0
    5.1077    2.2906    0.0000 H   0  0  0  0  0  0  0  0  0  0  0  0
    5.0038   -0.3475    0.0000 H   0  0  0  0  0  0  0  0  0  0  0  0
    5.6302   -0.2657    0.0000 H   0  0  0  0  0  0  0  0  0  0  0  0
    6.0150    0.2353    0.0000 H   0  0  0  0  0  0  0  0  0  0  0  0
    4.5460    2.6888    0.0000 H   0  0  0  0  0  0  0  0  0  0  0  0
    3.8779    2.5223    0.0000 H   0  0  0  0  0  0  0  0  0  0  0  0
    3.9682    1.1710    0.0000 H   0  0  0  0  0  0  0  0  0  0  0  0
  1  2  1  0  0  0  0
  2  3  2  0  0  0  0
  2  4  1  0  0  0  0
  4  5  2  0  0  0  0
  4  6  1  0  0  0  0
  6  7  1  0  0  0  0
  7  8  1  0  0  0  0
  8  9  1  0  0  0  0
  9 10  1  0  0  0  0
 10 11  1  0  0  0  0
 10 12  1  0  0  0  0
 10 13  1  0  0  0  0
  1 14  1  0  0  0  0
  1 15  1  0  0  0  0
  1 16  1  0  0  0  0
  3 17  1  0  0  0  0
  3 18  1  0  0  0  0
  6 19  1  0  0  0  0
  7 20  1  0  0  0  0
  7 21  1  0  0  0  0
  8 22  1  0  0  0  0
  8 23  1  0  0  0  0
  9 24  1  0  0  0  0
  9 25  1  0  0  0  0
 11 26  1  0  0  0  0
 11 27  1  0  0  0  0
 11 28  1  0  0  0  0
 12 29  1  0  0  0  0
 12 30  1  0  0  0  0
 12 31  1  0  0  0  0
 13 32  1  0  0  0  0
 13 33  1  0  0  0  0
 13 34  1  0  0  0  0
M  CHG  1  10   1
M  END
>  <InChIKey>
VZTGWJFIMGVKSN-UHFFFAOYSA-O

>  <UN GHS>
Non-irritant

>  <CASRN>
51410-72-1

> <Outcome>
0

>  <Index>
848

>  <StandardizerResult>
Clear Stereo (ID: ClearStereo)
Wedge Clean (ID: WedgeClean)
Mesomerize (ID: Mesomerize)
Tautomerize (ID: Tautomerize)
Add Explicit Hydrogens (ID: AddExplicitH)
Clean 2D (ID: Clean2D)

> <knn Distance>
4.24264049530029

> <CpId>
848

$$$$
892
  Mrv1532301301811342D          

 51 51  0  0  0  0            999 V2000
    2.4392    2.2046    0.0000 C   0  0  0  0  0  0  0  0  0  0  0  0
    1.6198    2.3003    0.0000 C   0  0  0  0  0  0  0  0  0  0  0  0
    1.1271    1.6386    0.0000 C   0  0  0  0  0  0  0  0  0  0  0  0
    0.6345    2.3003    0.0000 C   0  0  0  0  0  0  0  0  0  0  0  0
   -0.1849    2.2046    0.0000 C   0  0  0  0  0  0  0  0  0  0  0  0
    1.9024    1.3564    0.0000 O   0  0  0  0  0  0  0  0  0  0  0  0
    2.3149    0.6419    0.0000 O   0  0  0  0  0  0  0  0  0  0  0  0
    2.1716   -0.1705    0.0000 C   0  0  0  0  0  0  0  0  0  0  0  0
    2.9910   -0.0747    0.0000 C   0  0  0  0  0  0  0  0  0  0  0  0
    3.3178    0.6828    0.0000 C   0  0  0  0  0  0  0  0  0  0  0  0
    2.4984   -0.9280    0.0000 C   0  0  0  0  0  0  0  0  0  0  0  0
    2.0057   -1.5898    0.0000 C   0  0  0  0  0  0  0  0  0  0  0  0
    1.5396   -0.7008    0.0000 O   0  0  0  0  0  0  0  0  0  0  0  0
    0.7146   -0.7008    0.0000 O   0  0  0  0  0  0  0  0  0  0  0  0
    0.0827   -0.1705    0.0000 C   0  0  0  0  0  0  0  0  0  0  0  0
   -0.2441   -0.9280    0.0000 C   0  0  0  0  0  0  0  0  0  0  0  0
   -1.0635   -1.0238    0.0000 C   0  0  0  0  0  0  0  0  0  0  0  0
   -0.7368   -0.0747    0.0000 C   0  0  0  0  0  0  0  0  0  0  0  0
   -1.0635    0.6828    0.0000 C   0  0  0  0  0  0  0  0  0  0  0  0
   -0.0606    0.6419    0.0000 O   0  0  0  0  0  0  0  0  0  0  0  0
    0.3519    1.3564    0.0000 O   0  0  0  0  0  0  0  0  0  0  0  0
    2.3434    1.3851    0.0000 H   0  0  0  0  0  0  0  0  0  0  0  0
    3.2586    2.1088    0.0000 H   0  0  0  0  0  0  0  0  0  0  0  0
    2.5350    3.0240    0.0000 H   0  0  0  0  0  0  0  0  0  0  0  0
    1.6678    3.1239    0.0000 H   0  0  0  0  0  0  0  0  0  0  0  0
    0.9878    2.8306    0.0000 H   0  0  0  0  0  0  0  0  0  0  0  0
    0.2035    3.0038    0.0000 H   0  0  0  0  0  0  0  0  0  0  0  0
    1.4592    2.3219    0.0000 H   0  0  0  0  0  0  0  0  0  0  0  0
   -0.8144    2.7379    0.0000 H   0  0  0  0  0  0  0  0  0  0  0  0
   -0.8576    1.7270    0.0000 H   0  0  0  0  0  0  0  0  0  0  0  0
    0.1110    1.4345    0.0000 H   0  0  0  0  0  0  0  0  0  0  0  0
    3.1343   -0.8872    0.0000 H   0  0  0  0  0  0  0  0  0  0  0  0
    3.7283   -0.4450    0.0000 H   0  0  0  0  0  0  0  0  0  0  0  0
    4.0753    0.3560    0.0000 H   0  0  0  0  0  0  0  0  0  0  0  0
    3.6446    1.4403    0.0000 H   0  0  0  0  0  0  0  0  0  0  0  0
    2.5603    1.0096    0.0000 H   0  0  0  0  0  0  0  0  0  0  0  0
    2.8921   -1.6530    0.0000 H   0  0  0  0  0  0  0  0  0  0  0  0
    2.9294   -0.2246    0.0000 H   0  0  0  0  0  0  0  0  0  0  0  0
    1.4868   -0.9485    0.0000 H   0  0  0  0  0  0  0  0  0  0  0  0
    1.2558   -1.9336    0.0000 H   0  0  0  0  0  0  0  0  0  0  0  0
    2.1529   -2.4016    0.0000 H   0  0  0  0  0  0  0  0  0  0  0  0
   -0.1009   -1.7405    0.0000 H   0  0  0  0  0  0  0  0  0  0  0  0
    0.4931   -1.2983    0.0000 H   0  0  0  0  0  0  0  0  0  0  0  0
   -1.1593   -0.2044    0.0000 H   0  0  0  0  0  0  0  0  0  0  0  0
   -1.8830   -1.1196    0.0000 H   0  0  0  0  0  0  0  0  0  0  0  0
   -0.9678   -1.8432    0.0000 H   0  0  0  0  0  0  0  0  0  0  0  0
   -0.6621   -0.8964    0.0000 H   0  0  0  0  0  0  0  0  0  0  0  0
   -0.2441    0.5870    0.0000 H   0  0  0  0  0  0  0  0  0  0  0  0
   -0.6631    1.4041    0.0000 H   0  0  0  0  0  0  0  0  0  0  0  0
   -1.5781    1.3277    0.0000 H   0  0  0  0  0  0  0  0  0  0  0  0
   -1.8557    0.4524    0.0000 H   0  0  0  0  0  0  0  0  0  0  0  0
  1  2  1  0  0  0  0
  2  3  1  0  0  0  0
  3  4  1  0  0  0  0
  4  5  1  0  0  0  0
  3  6  1  0  0  0  0
  6  7  1  0  0  0  0
  7  8  1  0  0  0  0
  8  9  1  0  0  0  0
  9 10  1  0  0  0  0
  8 11  1  0  0  0  0
 11 12  1  0  0  0  0
  8 13  1  0  0  0  0
 13 14  1  0  0  0  0
 14 15  1  0  0  0  0
 15 16  1  0  0  0  0
 16 17  1  0  0  0  0
 15 18  1  0  0  0  0
 18 19  1  0  0  0  0
 15 20  1  0  0  0  0
 20 21  1  0  0  0  0
  3 21  1  0  0  0  0
  1 22  1  0  0  0  0
  1 23  1  0  0  0  0
  1 24  1  0  0  0  0
  2 25  1  0  0  0  0
  2 26  1  0  0  0  0
  4 27  1  0  0  0  0
  4 28  1  0  0  0  0
  5 29  1  0  0  0  0
  5 30  1  0  0  0  0
  5 31  1  0  0  0  0
  9 32  1  0  0  0  0
  9 33  1  0  0  0  0
 10 34  1  0  0  0  0
 10 35  1  0  0  0  0
 10 36  1  0  0  0  0
 11 37  1  0  0  0  0
 11 38  1  0  0  0  0
 12 39  1  0  0  0  0
 12 40  1  0  0  0  0
 12 41  1  0  0  0  0
 16 42  1  0  0  0  0
 16 43  1  0  0  0  0
 17 44  1  0  0  0  0
 17 45  1  0  0  0  0
 17 46  1  0  0  0  0
 18 47  1  0  0  0  0
 18 48  1  0  0  0  0
 19 49  1  0  0  0  0
 19 50  1  0  0  0  0
 19 51  1  0  0  0  0
M  END
>  <InChIKey>
WYEDBMPUQDXWEF-UHFFFAOYSA-N

>  <UN GHS>
Non-irritant

> <Outcome>
0

>  <Index>
892

>  <StandardizerResult>
Clear Stereo (ID: ClearStereo)
Wedge Clean (ID: WedgeClean)
Mesomerize (ID: Mesomerize)
Tautomerize (ID: Tautomerize)
Add Explicit Hydrogens (ID: AddExplicitH)
Neutralize (ID: Neutralize)
Clean 2D (ID: Clean2D)

> <knn Distance>
4.24264049530029

> <CpId>
892

$$$$
912
  Mrv1532301301811342D          

 16 17  0  0  0  0            999 V2000
    0.8838   -2.1500    0.0000 O   0  0  0  0  0  0  0  0  0  0  0  0
    1.1387   -1.3653    0.0000 C   0  0  0  0  0  0  0  0  0  0  0  0
    0.6538   -0.6979    0.0000 N   0  0  0  0  0  0  0  0  0  0  0  0
    1.1387   -0.0305    0.0000 C   0  0  0  0  0  0  0  0  0  0  0  0
    0.8838    0.7541    0.0000 O   0  0  0  0  0  0  0  0  0  0  0  0
    1.9233   -0.2854    0.0000 C   0  0  0  0  0  0  0  0  0  0  0  0
    2.6378    0.1271    0.0000 C   0  0  0  0  0  0  0  0  0  0  0  0
    3.3523   -0.2854    0.0000 C   0  0  0  0  0  0  0  0  0  0  0  0
    3.3523   -1.1104    0.0000 C   0  0  0  0  0  0  0  0  0  0  0  0
    2.6378   -1.5229    0.0000 C   0  0  0  0  0  0  0  0  0  0  0  0
    1.9233   -1.1104    0.0000 C   0  0  0  0  0  0  0  0  0  0  0  0
   -0.1712   -0.6979    0.0000 H   0  0  0  0  0  0  0  0  0  0  0  0
    2.6378    0.9521    0.0000 H   0  0  0  0  0  0  0  0  0  0  0  0
    4.0668    0.1271    0.0000 H   0  0  0  0  0  0  0  0  0  0  0  0
    4.0668   -1.5229    0.0000 H   0  0  0  0  0  0  0  0  0  0  0  0
    2.6378   -2.3479    0.0000 H   0  0  0  0  0  0  0  0  0  0  0  0
  1  2  2  0  0  0  0
  2  3  1  0  0  0  0
  3  4  1  0  0  0  0
  4  5  2  0  0  0  0
  4  6  1  0  0  0  0
  6  7  4  0  0  0  0
  7  8  4  0  0  0  0
  8  9  4  0  0  0  0
  9 10  4  0  0  0  0
 10 11  4  0  0  0  0
  2 11  1  0  0  0  0
  6 11  4  0  0  0  0
  3 12  1  0  0  0  0
  7 13  1  0  0  0  0
  8 14  1  0  0  0  0
  9 15  1  0  0  0  0
 10 16  1  0  0  0  0
M  END
>  <InChIKey>
XKJCHHZQLQNZHY-UHFFFAOYSA-N

>  <UN GHS>
Non-irritant

>  <CASRN>
85-41-6

> <Outcome>
0

>  <Index>
912

>  <StandardizerResult>
Dearomatize (ID: Dearomatize)
Clear Stereo (ID: ClearStereo)
Wedge Clean (ID: WedgeClean)
Mesomerize (ID: Mesomerize)
Tautomerize (ID: Tautomerize)
Aromatize (ID: Aromatize)
Add Explicit Hydrogens (ID: AddExplicitH)
Neutralize (ID: Neutralize)
Clean 2D (ID: Clean2D)

> <knn Distance>
4.24264049530029

> <CpId>
912

$$$$
918
  Mrv1532301301811342D          

 50 50  0  0  0  0            999 V2000
    1.4940    2.4383    0.0000 C   0  0  0  0  0  0  0  0  0  0  0  0
    1.5069    1.6134    0.0000 Si  0  0  0  0  0  0  0  0  0  0  0  0
    0.6923    1.7440    0.0000 C   0  0  0  0  0  0  0  0  0  0  0  0
    2.3170    1.7693    0.0000 O   0  0  0  0  0  0  0  0  0  0  0  0
    2.8571    1.1457    0.0000 Si  0  0  0  0  0  0  0  0  0  0  0  0
    3.3775    1.7858    0.0000 C   0  0  0  0  0  0  0  0  0  0  0  0
    3.5779    0.7444    0.0000 C   0  0  0  0  0  0  0  0  0  0  0  0
    2.5870    0.3661    0.0000 O   0  0  0  0  0  0  0  0  0  0  0  0
    1.7769    0.2102    0.0000 Si  0  0  0  0  0  0  0  0  0  0  0  0
    2.4977   -0.1911    0.0000 C   0  0  0  0  0  0  0  0  0  0  0  0
    2.0711   -0.5606    0.0000 C   0  0  0  0  0  0  0  0  0  0  0  0
    1.5069   -0.5694    0.0000 O   0  0  0  0  0  0  0  0  0  0  0  0
    0.6967   -0.7253    0.0000 Si  0  0  0  0  0  0  0  0  0  0  0  0
    0.9909   -1.4960    0.0000 C   0  0  0  0  0  0  0  0  0  0  0  0
   -0.0112   -1.1489    0.0000 C   0  0  0  0  0  0  0  0  0  0  0  0
    0.1566   -0.1016    0.0000 O   0  0  0  0  0  0  0  0  0  0  0  0
    0.4267    0.6779    0.0000 Si  0  0  0  0  0  0  0  0  0  0  0  0
   -0.3879    0.8085    0.0000 C   0  0  0  0  0  0  0  0  0  0  0  0
    0.4138    1.5028    0.0000 C   0  0  0  0  0  0  0  0  0  0  0  0
    1.2368    0.8338    0.0000 O   0  0  0  0  0  0  0  0  0  0  0  0
    2.3189    2.4512    0.0000 H   0  0  0  0  0  0  0  0  0  0  0  0
    1.4811    3.2632    0.0000 H   0  0  0  0  0  0  0  0  0  0  0  0
    0.6691    2.4254    0.0000 H   0  0  0  0  0  0  0  0  0  0  0  0
   -0.0639    2.0740    0.0000 H   0  0  0  0  0  0  0  0  0  0  0  0
    0.9182    0.9505    0.0000 H   0  0  0  0  0  0  0  0  0  0  0  0
    1.3109    2.2898    0.0000 H   0  0  0  0  0  0  0  0  0  0  0  0
    4.0176    1.2655    0.0000 H   0  0  0  0  0  0  0  0  0  0  0  0
    3.8978    2.4260    0.0000 H   0  0  0  0  0  0  0  0  0  0  0  0
    2.7373    2.3062    0.0000 H   0  0  0  0  0  0  0  0  0  0  0  0
    2.9073    0.2637    0.0000 H   0  0  0  0  0  0  0  0  0  0  0  0
    3.7264   -0.0672    0.0000 H   0  0  0  0  0  0  0  0  0  0  0  0
    4.3752    0.5323    0.0000 H   0  0  0  0  0  0  0  0  0  0  0  0
    2.4642   -1.0154    0.0000 H   0  0  0  0  0  0  0  0  0  0  0  0
    3.0754   -0.7801    0.0000 H   0  0  0  0  0  0  0  0  0  0  0  0
    3.3225   -0.1735    0.0000 H   0  0  0  0  0  0  0  0  0  0  0  0
    1.3822   -1.0144    0.0000 H   0  0  0  0  0  0  0  0  0  0  0  0
    1.7337   -1.3134    0.0000 H   0  0  0  0  0  0  0  0  0  0  0  0
    2.1909   -1.3768    0.0000 H   0  0  0  0  0  0  0  0  0  0  0  0
    0.1674   -1.4474    0.0000 H   0  0  0  0  0  0  0  0  0  0  0  0
    0.6081   -2.2268    0.0000 H   0  0  0  0  0  0  0  0  0  0  0  0
    1.4998   -2.1454    0.0000 H   0  0  0  0  0  0  0  0  0  0  0  0
   -0.1316   -0.3327    0.0000 H   0  0  0  0  0  0  0  0  0  0  0  0
   -0.8113   -0.9477    0.0000 H   0  0  0  0  0  0  0  0  0  0  0  0
   -0.5032   -1.8111    0.0000 H   0  0  0  0  0  0  0  0  0  0  0  0
   -0.2574    1.6231    0.0000 H   0  0  0  0  0  0  0  0  0  0  0  0
   -1.2025    0.9391    0.0000 H   0  0  0  0  0  0  0  0  0  0  0  0
   -0.5185   -0.0061    0.0000 H   0  0  0  0  0  0  0  0  0  0  0  0
   -0.3827    1.2879    0.0000 H   0  0  0  0  0  0  0  0  0  0  0  0
   -0.2148    0.9685    0.0000 H   0  0  0  0  0  0  0  0  0  0  0  0
    0.0734    0.7513    0.0000 H   0  0  0  0  0  0  0  0  0  0  0  0
  1  2  1  0  0  0  0
  2  3  1  0  0  0  0
  2  4  1  0  0  0  0
  4  5  1  0  0  0  0
  5  6  1  0  0  0  0
  5  7  1  0  0  0  0
  5  8  1  0  0  0  0
  8  9  1  0  0  0  0
  9 10  1  0  0  0  0
  9 11  1  0  0  0  0
  9 12  1  0  0  0  0
 12 13  1  0  0  0  0
 13 14  1  0  0  0  0
 13 15  1  0  0  0  0
 13 16  1  0  0  0  0
 16 17  1  0  0  0  0
 17 18  1  0  0  0  0
 17 19  1  0  0  0  0
 17 20  1  0  0  0  0
  2 20  1  0  0  0  0
  1 21  1  0  0  0  0
  1 22  1  0  0  0  0
  1 23  1  0  0  0  0
  3 24  1  0  0  0  0
  3 25  1  0  0  0  0
  3 26  1  0  0  0  0
  6 27  1  0  0  0  0
  6 28  1  0  0  0  0
  6 29  1  0  0  0  0
  7 30  1  0  0  0  0
  7 31  1  0  0  0  0
  7 32  1  0  0  0  0
 10 33  1  0  0  0  0
 10 34  1  0  0  0  0
 10 35  1  0  0  0  0
 11 36  1  0  0  0  0
 11 37  1  0  0  0  0
 11 38  1  0  0  0  0
 14 39  1  0  0  0  0
 14 40  1  0  0  0  0
 14 41  1  0  0  0  0
 15 42  1  0  0  0  0
 15 43  1  0  0  0  0
 15 44  1  0  0  0  0
 18 45  1  0  0  0  0
 18 46  1  0  0  0  0
 18 47  1  0  0  0  0
 19 48  1  0  0  0  0
 19 49  1  0  0  0  0
 19 50  1  0  0  0  0
M  END
>  <InChIKey>
XMSXQFUHVRWGNA-UHFFFAOYSA-N

>  <UN GHS>
Non-irritant

>  <CASRN>
541-02-6

> <Outcome>
0

>  <Index>
918

>  <StandardizerResult>
Clear Stereo (ID: ClearStereo)
Wedge Clean (ID: WedgeClean)
Mesomerize (ID: Mesomerize)
Tautomerize (ID: Tautomerize)
Add Explicit Hydrogens (ID: AddExplicitH)
Neutralize (ID: Neutralize)
Clean 2D (ID: Clean2D)

> <knn Distance>
4.24264049530029

> <CpId>
918

$$$$
932
  Mrv1532301301811342D          

 32 32  0  0  0  0            999 V2000
   -0.6543    3.7877    0.0000 C   0  0  0  0  0  0  0  0  0  0  0  0
    0.0602    3.3752    0.0000 O   0  0  0  0  0  0  0  0  0  0  0  0
    0.0602    2.5502    0.0000 Si  0  0  0  0  0  0  0  0  0  0  0  0
    0.7747    2.1377    0.0000 C   0  0  0  0  0  0  0  0  0  0  0  0
    0.7747    1.3127    0.0000 C   0  0  0  0  0  0  0  0  0  0  0  0
    1.4891    0.9002    0.0000 C   0  0  0  0  0  0  0  0  0  0  0  0
    1.4891    0.0752    0.0000 C   0  0  0  0  0  0  0  0  0  0  0  0
    0.7747   -0.3373    0.0000 C   0  0  0  0  0  0  0  0  0  0  0  0
    0.0602    0.0752    0.0000 C   0  0  0  0  0  0  0  0  0  0  0  0
    0.0602    0.9002    0.0000 C   0  0  0  0  0  0  0  0  0  0  0  0
   -0.6543    2.1377    0.0000 O   0  0  0  0  0  0  0  0  0  0  0  0
   -0.6543    1.3127    0.0000 C   0  0  0  0  0  0  0  0  0  0  0  0
   -0.2418    4.5021    0.0000 H   0  0  0  0  0  0  0  0  0  0  0  0
   -1.3687    4.2002    0.0000 H   0  0  0  0  0  0  0  0  0  0  0  0
   -1.0668    3.0732    0.0000 H   0  0  0  0  0  0  0  0  0  0  0  0
    0.7747    2.9627    0.0000 H   0  0  0  0  0  0  0  0  0  0  0  0
    1.5499    1.8555    0.0000 H   0  0  0  0  0  0  0  0  0  0  0  0
    1.5499    2.4198    0.0000 H   0  0  0  0  0  0  0  0  0  0  0  0
    0.0602    1.7252    0.0000 H   0  0  0  0  0  0  0  0  0  0  0  0
    2.1947    0.4726    0.0000 H   0  0  0  0  0  0  0  0  0  0  0  0
    2.2204    1.2821    0.0000 H   0  0  0  0  0  0  0  0  0  0  0  0
    1.4862   -0.7498    0.0000 H   0  0  0  0  0  0  0  0  0  0  0  0
    2.2007   -0.3424    0.0000 H   0  0  0  0  0  0  0  0  0  0  0  0
    0.0600   -0.7494    0.0000 H   0  0  0  0  0  0  0  0  0  0  0  0
    0.7737   -1.1623    0.0000 H   0  0  0  0  0  0  0  0  0  0  0  0
   -0.6542    0.4877    0.0000 H   0  0  0  0  0  0  0  0  0  0  0  0
   -0.6543   -0.3372    0.0000 H   0  0  0  0  0  0  0  0  0  0  0  0
    0.5905    0.2682    0.0000 H   0  0  0  0  0  0  0  0  0  0  0  0
    0.8727    0.7569    0.0000 H   0  0  0  0  0  0  0  0  0  0  0  0
   -1.2376    1.8960    0.0000 H   0  0  0  0  0  0  0  0  0  0  0  0
   -1.4793    1.3127    0.0000 H   0  0  0  0  0  0  0  0  0  0  0  0
   -1.2376    0.7293    0.0000 H   0  0  0  0  0  0  0  0  0  0  0  0
  1  2  1  0  0  0  0
  2  3  1  0  0  0  0
  3  4  1  0  0  0  0
  4  5  1  0  0  0  0
  5  6  1  0  0  0  0
  6  7  1  0  0  0  0
  7  8  1  0  0  0  0
  8  9  1  0  0  0  0
  9 10  1  0  0  0  0
  5 10  1  0  0  0  0
  3 11  1  0  0  0  0
 11 12  1  0  0  0  0
  1 13  1  0  0  0  0
  1 14  1  0  0  0  0
  1 15  1  0  0  0  0
  3 16  1  0  0  0  0
  4 17  1  0  0  0  0
  4 18  1  0  0  0  0
  5 19  1  0  0  0  0
  6 20  1  0  0  0  0
  6 21  1  0  0  0  0
  7 22  1  0  0  0  0
  7 23  1  0  0  0  0
  8 24  1  0  0  0  0
  8 25  1  0  0  0  0
  9 26  1  0  0  0  0
  9 27  1  0  0  0  0
 10 28  1  0  0  0  0
 10 29  1  0  0  0  0
 12 30  1  0  0  0  0
 12 31  1  0  0  0  0
 12 32  1  0  0  0  0
M  END
>  <InChIKey>
XRLIOAUFFCHSIC-UHFFFAOYSA-N

>  <UN GHS>
Non-irritant

>  <CASRN>
17865-32-6

> <Outcome>
0

>  <Index>
932

>  <StandardizerResult>
Clear Stereo (ID: ClearStereo)
Wedge Clean (ID: WedgeClean)
Mesomerize (ID: Mesomerize)
Tautomerize (ID: Tautomerize)
Add Explicit Hydrogens (ID: AddExplicitH)
Neutralize (ID: Neutralize)
Clean 2D (ID: Clean2D)

> <knn Distance>
4.24264049530029

> <CpId>
932

$$$$
976
  Mrv1532301301811342D          

 20 19  0  0  0  0            999 V2000
   -0.1792    0.7178    0.0000 C   0  0  0  0  0  0  0  0  0  0  0  0
    0.5352    1.1303    0.0000 N   0  0  0  0  0  0  0  0  0  0  0  0
    0.5352    1.9553    0.0000 C   0  0  0  0  0  0  0  0  0  0  0  0
    1.2497    0.7178    0.0000 C   0  0  0  0  0  0  0  0  0  0  0  0
    1.2497   -0.1072    0.0000 O   0  0  0  0  0  0  0  0  0  0  0  0
    1.9642    1.1303    0.0000 C   0  0  0  0  0  0  0  0  0  0  0  0
    2.6786    0.7178    0.0000 C   0  0  0  0  0  0  0  0  0  0  0  0
    3.3931    1.1303    0.0000 C   0  0  0  0  0  0  0  0  0  0  0  0
    2.6786   -0.1072    0.0000 O   0  0  0  0  0  0  0  0  0  0  0  0
   -0.5917    1.4323    0.0000 H   0  0  0  0  0  0  0  0  0  0  0  0
   -0.8937    0.3053    0.0000 H   0  0  0  0  0  0  0  0  0  0  0  0
    0.2333    0.0033    0.0000 H   0  0  0  0  0  0  0  0  0  0  0  0
    1.3602    1.9553    0.0000 H   0  0  0  0  0  0  0  0  0  0  0  0
    0.5352    2.7803    0.0000 H   0  0  0  0  0  0  0  0  0  0  0  0
   -0.2898    1.9553    0.0000 H   0  0  0  0  0  0  0  0  0  0  0  0
    2.3344    1.8676    0.0000 H   0  0  0  0  0  0  0  0  0  0  0  0
    1.5939    1.8676    0.0000 H   0  0  0  0  0  0  0  0  0  0  0  0
    3.8056    0.4158    0.0000 H   0  0  0  0  0  0  0  0  0  0  0  0
    4.1076    1.5428    0.0000 H   0  0  0  0  0  0  0  0  0  0  0  0
    2.9806    1.8448    0.0000 H   0  0  0  0  0  0  0  0  0  0  0  0
  1  2  1  0  0  0  0
  2  3  1  0  0  0  0
  2  4  1  0  0  0  0
  4  5  2  0  0  0  0
  4  6  1  0  0  0  0
  6  7  1  0  0  0  0
  7  8  1  0  0  0  0
  7  9  2  0  0  0  0
  1 10  1  0  0  0  0
  1 11  1  0  0  0  0
  1 12  1  0  0  0  0
  3 13  1  0  0  0  0
  3 14  1  0  0  0  0
  3 15  1  0  0  0  0
  6 16  1  0  0  0  0
  6 17  1  0  0  0  0
  8 18  1  0  0  0  0
  8 19  1  0  0  0  0
  8 20  1  0  0  0  0
M  END
>  <InChIKey>
YPEWWOUWRRQBAX-UHFFFAOYSA-N

>  <UN GHS>
Non-irritant

>  <CASRN>
2044-64-6

> <Outcome>
0

>  <Index>
976

>  <StandardizerResult>
Clear Stereo (ID: ClearStereo)
Wedge Clean (ID: WedgeClean)
Mesomerize (ID: Mesomerize)
Tautomerize (ID: Tautomerize)
Add Explicit Hydrogens (ID: AddExplicitH)
Neutralize (ID: Neutralize)
Clean 2D (ID: Clean2D)

> <knn Distance>
4.24264049530029

> <CpId>
976

$$$$
1055
  Mrv1532301301811342D          

 16 15  0  0  0  0            999 V2000
    0.1105   -2.8875    0.0000 O   0  0  0  0  0  0  0  0  0  0  0  0
    0.1105   -2.0625    0.0000 S   0  0  0  0  0  0  0  0  0  0  0  0
    0.9355   -2.0625    0.0000 O   0  0  0  0  0  0  0  0  0  0  0  0
   -0.7145   -2.0625    0.0000 O   0  0  0  0  0  0  0  0  0  0  0  0
    0.1105   -1.2375    0.0000 C   0  0  0  0  0  0  0  0  0  0  0  0
    0.8250   -0.8250    0.0000 C   0  0  0  0  0  0  0  0  0  0  0  0
    0.8250   -0.0000    0.0000 S   0  0  0  0  0  0  0  0  0  0  0  0
    0.8250    0.8250    0.0000 O   0  0  0  0  0  0  0  0  0  0  0  0
    1.6500   -0.0000    0.0000 O   0  0  0  0  0  0  0  0  0  0  0  0
   -0.0000   -0.0000    0.0000 O   0  0  0  0  0  0  0  0  0  0  0  0
   -0.6040   -3.3000    0.0000 H   0  0  0  0  0  0  0  0  0  0  0  0
   -0.3428   -0.5482    0.0000 H   0  0  0  0  0  0  0  0  0  0  0  0
   -0.7131   -1.1895    0.0000 H   0  0  0  0  0  0  0  0  0  0  0  0
    1.2783   -1.5143    0.0000 H   0  0  0  0  0  0  0  0  0  0  0  0
    1.6486   -0.8730    0.0000 H   0  0  0  0  0  0  0  0  0  0  0  0
    1.5395    1.2375    0.0000 H   0  0  0  0  0  0  0  0  0  0  0  0
  1  2  1  0  0  0  0
  2  3  2  0  0  0  0
  2  4  2  0  0  0  0
  2  5  1  0  0  0  0
  5  6  1  0  0  0  0
  6  7  1  0  0  0  0
  7  8  1  0  0  0  0
  7  9  2  0  0  0  0
  7 10  2  0  0  0  0
  1 11  1  0  0  0  0
  5 12  1  0  0  0  0
  5 13  1  0  0  0  0
  6 14  1  0  0  0  0
  6 15  1  0  0  0  0
  8 16  1  0  0  0  0
M  END
>  <InChIKey>
InChI=1S/C2H6O6S2/c3-9(4,5)1-2-10(6,7)8/h1-2H2,(H,3,4,5)(H,6,7,8)

>  <CASRN>
110-04-3

> <Outcome>
0

>  <Index>
1055

>  <StandardizerResult>
Clear Stereo (ID: ClearStereo)
Wedge Clean (ID: WedgeClean)
Mesomerize (ID: Mesomerize)
Tautomerize (ID: Tautomerize)
Add Explicit Hydrogens (ID: AddExplicitH)
Neutralize (ID: Neutralize)
Clean 2D (ID: Clean2D)

> <knn Distance>
4.24264049530029

> <CpId>
1055

$$$$
1071
  Mrv1532301301811342D          

 64 64  0  0  0  0            999 V2000
   -3.7060   -2.3288    0.0000 C   0  0  0  0  0  0  0  0  0  0  0  0
   -3.5345   -1.5218    0.0000 C   0  0  0  0  0  0  0  0  0  0  0  0
   -2.7499   -1.2668    0.0000 C   0  0  0  0  0  0  0  0  0  0  0  0
   -2.5783   -0.4599    0.0000 C   0  0  0  0  0  0  0  0  0  0  0  0
   -1.7937   -0.2049    0.0000 C   0  0  0  0  0  0  0  0  0  0  0  0
   -1.5388   -0.9896    0.0000 C   0  0  0  0  0  0  0  0  0  0  0  0
   -2.0486    0.5797    0.0000 C   0  0  0  0  0  0  0  0  0  0  0  0
   -1.0091    0.0500    0.0000 C   0  0  0  0  0  0  0  0  0  0  0  0
   -0.3960   -0.5020    0.0000 O   0  0  0  0  0  0  0  0  0  0  0  0
   -0.8376    0.8570    0.0000 C   0  0  0  0  0  0  0  0  0  0  0  0
   -0.0529    1.1119    0.0000 C   0  0  0  0  0  0  0  0  0  0  0  0
    0.1186    1.9189    0.0000 C   0  0  0  0  0  0  0  0  0  0  0  0
   -0.4334    2.5320    0.0000 C   0  0  0  0  0  0  0  0  0  0  0  0
   -1.2539    2.4457    0.0000 O   0  0  0  0  0  0  0  0  0  0  0  0
   -0.0209    3.2465    0.0000 C   0  0  0  0  0  0  0  0  0  0  0  0
    0.7860    3.0749    0.0000 C   0  0  0  0  0  0  0  0  0  0  0  0
    1.3991    3.6270    0.0000 Cl  0  0  0  0  0  0  0  0  0  0  0  0
    0.8723    2.2544    0.0000 C   0  0  0  0  0  0  0  0  0  0  0  0
    1.5867    1.8419    0.0000 C   0  0  0  0  0  0  0  0  0  0  0  0
    2.3012    2.2544    0.0000 C   0  0  0  0  0  0  0  0  0  0  0  0
    3.0157    1.8419    0.0000 C   0  0  0  0  0  0  0  0  0  0  0  0
    3.7301    2.2544    0.0000 C   0  0  0  0  0  0  0  0  0  0  0  0
    4.4446    1.8419    0.0000 C   0  0  0  0  0  0  0  0  0  0  0  0
    5.1591    2.2544    0.0000 C   0  0  0  0  0  0  0  0  0  0  0  0
    5.8736    1.8419    0.0000 C   0  0  0  0  0  0  0  0  0  0  0  0
    6.5880    2.2544    0.0000 O   0  0  0  0  0  0  0  0  0  0  0  0
    5.8736    1.0169    0.0000 O   0  0  0  0  0  0  0  0  0  0  0  0
   -4.5130   -2.1572    0.0000 H   0  0  0  0  0  0  0  0  0  0  0  0
   -3.8775   -3.1357    0.0000 H   0  0  0  0  0  0  0  0  0  0  0  0
   -2.8990   -2.5003    0.0000 H   0  0  0  0  0  0  0  0  0  0  0  0
   -3.8346   -0.7533    0.0000 H   0  0  0  0  0  0  0  0  0  0  0  0
   -4.3301   -1.3036    0.0000 H   0  0  0  0  0  0  0  0  0  0  0  0
   -2.4497   -2.0353    0.0000 H   0  0  0  0  0  0  0  0  0  0  0  0
   -1.9542   -1.4850    0.0000 H   0  0  0  0  0  0  0  0  0  0  0  0
   -2.8785    0.3086    0.0000 H   0  0  0  0  0  0  0  0  0  0  0  0
   -3.3740   -0.2417    0.0000 H   0  0  0  0  0  0  0  0  0  0  0  0
   -1.2632   -1.7672    0.0000 H   0  0  0  0  0  0  0  0  0  0  0  0
   -0.7289   -1.1468    0.0000 H   0  0  0  0  0  0  0  0  0  0  0  0
   -0.9922   -0.3716    0.0000 H   0  0  0  0  0  0  0  0  0  0  0  0
   -1.2262    0.5153    0.0000 H   0  0  0  0  0  0  0  0  0  0  0  0
   -1.6747    1.3151    0.0000 H   0  0  0  0  0  0  0  0  0  0  0  0
   -2.5852    1.2064    0.0000 H   0  0  0  0  0  0  0  0  0  0  0  0
   -0.2245    0.3049    0.0000 H   0  0  0  0  0  0  0  0  0  0  0  0
    0.3809   -0.7795    0.0000 H   0  0  0  0  0  0  0  0  0  0  0  0
   -0.7607    1.6784    0.0000 H   0  0  0  0  0  0  0  0  0  0  0  0
    0.7540    0.9404    0.0000 H   0  0  0  0  0  0  0  0  0  0  0  0
    0.7597    1.3997    0.0000 H   0  0  0  0  0  0  0  0  0  0  0  0
   -0.8828    3.2239    0.0000 H   0  0  0  0  0  0  0  0  0  0  0  0
   -2.0773    2.3937    0.0000 H   0  0  0  0  0  0  0  0  0  0  0  0
    0.3504    3.9832    0.0000 H   0  0  0  0  0  0  0  0  0  0  0  0
   -0.2518    4.0385    0.0000 H   0  0  0  0  0  0  0  0  0  0  0  0
    1.5562    2.7793    0.0000 H   0  0  0  0  0  0  0  0  0  0  0  0
    0.1578    2.6669    0.0000 H   0  0  0  0  0  0  0  0  0  0  0  0
    1.7138    1.0268    0.0000 H   0  0  0  0  0  0  0  0  0  0  0  0
    2.2120    1.3037    0.0000 H   0  0  0  0  0  0  0  0  0  0  0  0
    2.7455    2.9496    0.0000 H   0  0  0  0  0  0  0  0  0  0  0  0
    3.4517    1.1416    0.0000 H   0  0  0  0  0  0  0  0  0  0  0  0
    4.1004    2.9917    0.0000 H   0  0  0  0  0  0  0  0  0  0  0  0
    3.3599    2.9917    0.0000 H   0  0  0  0  0  0  0  0  0  0  0  0
    4.0744    1.1047    0.0000 H   0  0  0  0  0  0  0  0  0  0  0  0
    4.8149    1.1047    0.0000 H   0  0  0  0  0  0  0  0  0  0  0  0
    5.5293    2.9917    0.0000 H   0  0  0  0  0  0  0  0  0  0  0  0
    4.7888    2.9917    0.0000 H   0  0  0  0  0  0  0  0  0  0  0  0
    7.3025    1.8419    0.0000 H   0  0  0  0  0  0  0  0  0  0  0  0
  1  2  1  0  0  0  0
  2  3  1  0  0  0  0
  3  4  1  0  0  0  0
  4  5  1  0  0  0  0
  5  6  1  0  0  0  0
  5  7  1  0  0  0  0
  5  8  1  0  0  0  0
  8  9  1  0  0  0  0
 10  8  1  4  0  0  0
 10 11  2  0  0  0  0
 11 12  1  0  0  0  0
 12 13  1  0  0  0  0
 13 14  1  0  0  0  0
 13 15  1  0  0  0  0
 15 16  1  0  0  0  0
 16 17  1  0  0  0  0
 16 18  1  0  0  0  0
 12 18  1  0  0  0  0
 18 19  1  0  0  0  0
 20 19  1  4  0  0  0
 20 21  2  0  0  0  0
 21 22  1  0  0  0  0
 22 23  1  0  0  0  0
 23 24  1  0  0  0  0
 24 25  1  0  0  0  0
 25 26  1  0  0  0  0
 25 27  2  0  0  0  0
  1 28  1  0  0  0  0
  1 29  1  0  0  0  0
  1 30  1  0  0  0  0
  2 31  1  0  0  0  0
  2 32  1  0  0  0  0
  3 33  1  0  0  0  0
  3 34  1  0  0  0  0
  4 35  1  0  0  0  0
  4 36  1  0  0  0  0
  6 37  1  0  0  0  0
  6 38  1  0  0  0  0
  6 39  1  0  0  0  0
  7 40  1  0  0  0  0
  7 41  1  0  0  0  0
  7 42  1  0  0  0  0
  8 43  1  0  0  0  0
  9 44  1  0  0  0  0
 10 45  1  0  0  0  0
 11 46  1  0  0  0  0
 12 47  1  0  0  0  0
 13 48  1  0  0  0  0
 14 49  1  0  0  0  0
 15 50  1  0  0  0  0
 15 51  1  0  0  0  0
 16 52  1  0  0  0  0
 18 53  1  0  0  0  0
 19 54  1  0  0  0  0
 19 55  1  0  0  0  0
 20 56  1  0  0  0  0
 21 57  1  0  0  0  0
 22 58  1  0  0  0  0
 22 59  1  0  0  0  0
 23 60  1  0  0  0  0
 23 61  1  0  0  0  0
 24 62  1  0  0  0  0
 24 63  1  0  0  0  0
 26 64  1  0  0  0  0
M  END
>  <InChIKey>
InChI=1S/C22H37ClO4/c1-4-5-14-22(2,3)20(25)13-12-17-16(18(23)15-19(17)24)10-8-6-7-9-11-21(26)27/h6,8,12-13,16-20,24-25H,4-5,7,9-11,14-15H2,1-3H3,(H,26,27)

>  <CASRN>
79360-43-3

> <Outcome>
0

>  <Index>
1071

>  <StandardizerResult>
Clear Stereo (ID: ClearStereo)
Wedge Clean (ID: WedgeClean)
Mesomerize (ID: Mesomerize)
Tautomerize (ID: Tautomerize)
Add Explicit Hydrogens (ID: AddExplicitH)
Neutralize (ID: Neutralize)
Clean 2D (ID: Clean2D)

> <knn Distance>
4.24264049530029

> <CpId>
1071

$$$$
1165
  Mrv1532301301811342D          

 45 47  0  0  0  0            999 V2000
   -0.5510   -2.6977    0.0000 C   0  0  0  0  0  0  0  0  0  0  0  0
    0.1634   -3.1102    0.0000 N   0  0  0  0  0  0  0  0  0  0  0  0
    0.1634   -3.9352    0.0000 C   0  0  0  0  0  0  0  0  0  0  0  0
    0.8779   -2.6977    0.0000 C   0  0  0  0  0  0  0  0  0  0  0  0
    1.5924   -3.1102    0.0000 C   0  0  0  0  0  0  0  0  0  0  0  0
    2.3069   -2.6977    0.0000 C   0  0  0  0  0  0  0  0  0  0  0  0
    3.0213   -3.1102    0.0000 N   0  0  0  0  0  0  0  0  0  0  0  0
    3.7030   -2.6454    0.0000 C   0  0  0  0  0  0  0  0  0  0  0  0
    3.5194   -1.8411    0.0000 C   0  0  0  0  0  0  0  0  0  0  0  0
    4.1242   -1.2800    0.0000 C   0  0  0  0  0  0  0  0  0  0  0  0
    4.9125   -1.5232    0.0000 C   0  0  0  0  0  0  0  0  0  0  0  0
    5.0961   -2.3275    0.0000 C   0  0  0  0  0  0  0  0  0  0  0  0
    4.4913   -2.8886    0.0000 C   0  0  0  0  0  0  0  0  0  0  0  0
    4.7927   -3.6566    0.0000 C   0  0  0  0  0  0  0  0  0  0  0  0
    4.3802   -4.3711    0.0000 C   0  0  0  0  0  0  0  0  0  0  0  0
    3.5644   -4.4940    0.0000 C   0  0  0  0  0  0  0  0  0  0  0  0
    3.3809   -5.2983    0.0000 C   0  0  0  0  0  0  0  0  0  0  0  0
    2.5925   -5.5415    0.0000 C   0  0  0  0  0  0  0  0  0  0  0  0
    1.9877   -4.9804    0.0000 C   0  0  0  0  0  0  0  0  0  0  0  0
    2.1713   -4.1760    0.0000 C   0  0  0  0  0  0  0  0  0  0  0  0
    2.9597   -3.9329    0.0000 C   0  0  0  0  0  0  0  0  0  0  0  0
   -0.1385   -1.9832    0.0000 H   0  0  0  0  0  0  0  0  0  0  0  0
   -1.2655   -2.2852    0.0000 H   0  0  0  0  0  0  0  0  0  0  0  0
   -0.9635   -3.4121    0.0000 H   0  0  0  0  0  0  0  0  0  0  0  0
   -0.6616   -3.9352    0.0000 H   0  0  0  0  0  0  0  0  0  0  0  0
    0.1634   -4.7602    0.0000 H   0  0  0  0  0  0  0  0  0  0  0  0
    0.9884   -3.9352    0.0000 H   0  0  0  0  0  0  0  0  0  0  0  0
    1.2482   -1.9604    0.0000 H   0  0  0  0  0  0  0  0  0  0  0  0
    0.5077   -1.9604    0.0000 H   0  0  0  0  0  0  0  0  0  0  0  0
    1.2221   -3.8474    0.0000 H   0  0  0  0  0  0  0  0  0  0  0  0
    1.9626   -3.8474    0.0000 H   0  0  0  0  0  0  0  0  0  0  0  0
    2.6771   -1.9604    0.0000 H   0  0  0  0  0  0  0  0  0  0  0  0
    1.9366   -1.9604    0.0000 H   0  0  0  0  0  0  0  0  0  0  0  0
    3.1647   -1.0962    0.0000 H   0  0  0  0  0  0  0  0  0  0  0  0
    3.9406   -0.4757    0.0000 H   0  0  0  0  0  0  0  0  0  0  0  0
    5.5173   -0.9620    0.0000 H   0  0  0  0  0  0  0  0  0  0  0  0
    5.8844   -2.5706    0.0000 H   0  0  0  0  0  0  0  0  0  0  0  0
    5.5072   -4.0691    0.0000 H   0  0  0  0  0  0  0  0  0  0  0  0
    5.5607   -3.3552    0.0000 H   0  0  0  0  0  0  0  0  0  0  0  0
    4.5032   -5.1868    0.0000 H   0  0  0  0  0  0  0  0  0  0  0  0
    5.0947   -4.7836    0.0000 H   0  0  0  0  0  0  0  0  0  0  0  0
    3.9856   -5.8595    0.0000 H   0  0  0  0  0  0  0  0  0  0  0  0
    2.4089   -6.3458    0.0000 H   0  0  0  0  0  0  0  0  0  0  0  0
    1.1994   -5.2235    0.0000 H   0  0  0  0  0  0  0  0  0  0  0  0
    1.3583   -4.3162    0.0000 H   0  0  0  0  0  0  0  0  0  0  0  0
  1  2  1  0  0  0  0
  2  3  1  0  0  0  0
  2  4  1  0  0  0  0
  4  5  1  0  0  0  0
  5  6  1  0  0  0  0
  6  7  1  0  0  0  0
  7  8  1  0  0  0  0
  8  9  4  0  0  0  0
  9 10  4  0  0  0  0
 10 11  4  0  0  0  0
 11 12  4  0  0  0  0
 12 13  4  0  0  0  0
  8 13  4  0  0  0  0
 13 14  1  0  0  0  0
 14 15  1  0  0  0  0
 15 16  1  0  0  0  0
 16 17  4  0  0  0  0
 17 18  4  0  0  0  0
 18 19  4  0  0  0  0
 19 20  4  0  0  0  0
 20 21  4  0  0  0  0
  7 21  1  0  0  0  0
 16 21  4  0  0  0  0
  1 22  1  0  0  0  0
  1 23  1  0  0  0  0
  1 24  1  0  0  0  0
  3 25  1  0  0  0  0
  3 26  1  0  0  0  0
  3 27  1  0  0  0  0
  4 28  1  0  0  0  0
  4 29  1  0  0  0  0
  5 30  1  0  0  0  0
  5 31  1  0  0  0  0
  6 32  1  0  0  0  0
  6 33  1  0  0  0  0
  9 34  1  0  0  0  0
 10 35  1  0  0  0  0
 11 36  1  0  0  0  0
 12 37  1  0  0  0  0
 14 38  1  0  0  0  0
 14 39  1  0  0  0  0
 15 40  1  0  0  0  0
 15 41  1  0  0  0  0
 17 42  1  0  0  0  0
 18 43  1  0  0  0  0
 19 44  1  0  0  0  0
 20 45  1  0  0  0  0
M  END
>  <InChIKey>
InChI=1S/C19H24N2/c1-20(2)14-7-15-21-18-10-5-3-8-16(18)12-13-17-9-4-6-11-19(17)21/h3-6,8-11H,7,12-15H2,1-2H3

>  <CASRN>
50-49-7

> <Outcome>
0

>  <Index>
1165

>  <StandardizerResult>
Dearomatize (ID: Dearomatize)
Clear Stereo (ID: ClearStereo)
Wedge Clean (ID: WedgeClean)
Mesomerize (ID: Mesomerize)
Tautomerize (ID: Tautomerize)
Aromatize (ID: Aromatize)
Add Explicit Hydrogens (ID: AddExplicitH)
Neutralize (ID: Neutralize)
Clean 2D (ID: Clean2D)

> <knn Distance>
4.24264049530029

> <CpId>
1165

$$$$
1205
  Mrv1532301301811342D          

 70 72  0  0  0  0            999 V2000
   -2.3936    2.3959    0.0000 C   0  0  0  0  0  0  0  0  0  0  0  0
   -2.3936    1.5709    0.0000 C   0  0  0  0  0  0  0  0  0  0  0  0
   -1.6791    1.1584    0.0000 C   0  0  0  0  0  0  0  0  0  0  0  0
   -2.0916    0.4439    0.0000 C   0  0  0  0  0  0  0  0  0  0  0  0
   -0.9646    0.7459    0.0000 O   0  0  0  0  0  0  0  0  0  0  0  0
   -0.9646   -0.0791    0.0000 C   0  0  0  0  0  0  0  0  0  0  0  0
   -0.2502   -0.4916    0.0000 C   0  0  0  0  0  0  0  0  0  0  0  0
   -0.2502   -1.3166    0.0000 C   0  0  0  0  0  0  0  0  0  0  0  0
   -0.9646   -1.7291    0.0000 C   0  0  0  0  0  0  0  0  0  0  0  0
   -1.6791   -1.3166    0.0000 C   0  0  0  0  0  0  0  0  0  0  0  0
   -1.6791   -0.4916    0.0000 C   0  0  0  0  0  0  0  0  0  0  0  0
   -0.9646   -2.5541    0.0000 C   0  0  0  0  0  0  0  0  0  0  0  0
   -0.6825   -3.3294    0.0000 C   0  0  0  0  0  0  0  0  0  0  0  0
   -1.2128   -3.9614    0.0000 C   0  0  0  0  0  0  0  0  0  0  0  0
   -2.0252   -3.8181    0.0000 C   0  0  0  0  0  0  0  0  0  0  0  0
   -2.3074   -3.0429    0.0000 C   0  0  0  0  0  0  0  0  0  0  0  0
   -1.7771   -2.4109    0.0000 C   0  0  0  0  0  0  0  0  0  0  0  0
   -0.1522   -2.4109    0.0000 C   0  0  0  0  0  0  0  0  0  0  0  0
    0.1300   -1.6356    0.0000 C   0  0  0  0  0  0  0  0  0  0  0  0
    0.9425   -1.4924    0.0000 C   0  0  0  0  0  0  0  0  0  0  0  0
    1.4728   -2.1244    0.0000 C   0  0  0  0  0  0  0  0  0  0  0  0
    2.2852   -1.9811    0.0000 O   0  0  0  0  0  0  0  0  0  0  0  0
    2.8155   -2.6131    0.0000 C   0  0  0  0  0  0  0  0  0  0  0  0
    2.1835   -3.1434    0.0000 C   0  0  0  0  0  0  0  0  0  0  0  0
    3.3458   -3.2451    0.0000 C   0  0  0  0  0  0  0  0  0  0  0  0
    4.1583   -3.1018    0.0000 C   0  0  0  0  0  0  0  0  0  0  0  0
    3.4475   -2.0828    0.0000 C   0  0  0  0  0  0  0  0  0  0  0  0
    4.2228   -2.3650    0.0000 O   0  0  0  0  0  0  0  0  0  0  0  0
    3.3043   -1.2703    0.0000 O   0  0  0  0  0  0  0  0  0  0  0  0
    1.1906   -2.8996    0.0000 C   0  0  0  0  0  0  0  0  0  0  0  0
    0.3781   -3.0429    0.0000 C   0  0  0  0  0  0  0  0  0  0  0  0
   -1.2666    1.8728    0.0000 C   0  0  0  0  0  0  0  0  0  0  0  0
   -0.4416    1.8728    0.0000 O   0  0  0  0  0  0  0  0  0  0  0  0
   -1.6791    2.5873    0.0000 O   0  0  0  0  0  0  0  0  0  0  0  0
   -2.2326    3.2050    0.0000 H   0  0  0  0  0  0  0  0  0  0  0  0
   -3.0481    2.8981    0.0000 H   0  0  0  0  0  0  0  0  0  0  0  0
   -3.1335    2.0310    0.0000 H   0  0  0  0  0  0  0  0  0  0  0  0
   -3.0360    1.0533    0.0000 H   0  0  0  0  0  0  0  0  0  0  0  0
   -2.5472    0.7603    0.0000 H   0  0  0  0  0  0  0  0  0  0  0  0
   -2.7763   -0.0164    0.0000 H   0  0  0  0  0  0  0  0  0  0  0  0
   -1.9115   -0.3612    0.0000 H   0  0  0  0  0  0  0  0  0  0  0  0
   -1.2761    0.3192    0.0000 H   0  0  0  0  0  0  0  0  0  0  0  0
    0.4643   -0.0791    0.0000 H   0  0  0  0  0  0  0  0  0  0  0  0
    0.4975   -0.9680    0.0000 H   0  0  0  0  0  0  0  0  0  0  0  0
   -2.3936   -1.7291    0.0000 H   0  0  0  0  0  0  0  0  0  0  0  0
   -0.9646   -0.9041    0.0000 H   0  0  0  0  0  0  0  0  0  0  0  0
   -0.0207   -3.8220    0.0000 H   0  0  0  0  0  0  0  0  0  0  0  0
    0.1079   -3.0928    0.0000 H   0  0  0  0  0  0  0  0  0  0  0  0
   -1.3086   -4.7808    0.0000 H   0  0  0  0  0  0  0  0  0  0  0  0
   -0.6127   -4.5275    0.0000 H   0  0  0  0  0  0  0  0  0  0  0  0
   -2.7828   -4.1449    0.0000 H   0  0  0  0  0  0  0  0  0  0  0  0
   -2.2155   -4.6209    0.0000 H   0  0  0  0  0  0  0  0  0  0  0  0
   -2.9692   -2.5502    0.0000 H   0  0  0  0  0  0  0  0  0  0  0  0
   -3.0977   -3.2795    0.0000 H   0  0  0  0  0  0  0  0  0  0  0  0
   -1.3779   -1.6889    0.0000 H   0  0  0  0  0  0  0  0  0  0  0  0
   -1.4949   -3.1861    0.0000 H   0  0  0  0  0  0  0  0  0  0  0  0
   -0.6669   -1.8492    0.0000 H   0  0  0  0  0  0  0  0  0  0  0  0
    1.5730   -0.9604    0.0000 H   0  0  0  0  0  0  0  0  0  0  0  0
    1.6532   -2.5114    0.0000 H   0  0  0  0  0  0  0  0  0  0  0  0
    1.5516   -3.6737    0.0000 H   0  0  0  0  0  0  0  0  0  0  0  0
    2.7138   -3.7754    0.0000 H   0  0  0  0  0  0  0  0  0  0  0  0
    3.6945   -3.9928    0.0000 H   0  0  0  0  0  0  0  0  0  0  0  0
    3.6280   -2.4698    0.0000 H   0  0  0  0  0  0  0  0  0  0  0  0
    3.9274   -3.8939    0.0000 H   0  0  0  0  0  0  0  0  0  0  0  0
    4.7665   -3.6592    0.0000 H   0  0  0  0  0  0  0  0  0  0  0  0
    4.9272   -2.8028    0.0000 H   0  0  0  0  0  0  0  0  0  0  0  0
    4.5835   -1.6230    0.0000 H   0  0  0  0  0  0  0  0  0  0  0  0
    0.6603   -2.2676    0.0000 H   0  0  0  0  0  0  0  0  0  0  0  0
    0.8682   -3.7065    0.0000 H   0  0  0  0  0  0  0  0  0  0  0  0
   -0.0291    1.1584    0.0000 H   0  0  0  0  0  0  0  0  0  0  0  0
  1  2  1  0  0  0  0
  2  3  1  0  0  0  0
  3  4  1  0  0  0  0
  3  5  1  0  0  0  0
  5  6  1  0  0  0  0
  6  7  4  0  0  0  0
  7  8  4  0  0  0  0
  8  9  4  0  0  0  0
  9 10  4  0  0  0  0
 10 11  4  0  0  0  0
  6 11  4  0  0  0  0
  9 12  1  0  0  0  0
 12 13  1  0  0  0  0
 13 14  1  0  0  0  0
 14 15  1  0  0  0  0
 15 16  1  0  0  0  0
 16 17  1  0  0  0  0
 12 17  1  0  0  0  0
 12 18  1  0  0  0  0
 18 19  4  0  0  0  0
 19 20  4  0  0  0  0
 20 21  4  0  0  0  0
 21 22  1  0  0  0  0
 22 23  1  0  0  0  0
 23 24  1  0  0  0  0
 23 25  1  0  0  0  0
 25 26  1  0  0  0  0
 23 27  1  0  0  0  0
 27 28  1  0  0  0  0
 27 29  2  0  0  0  0
 21 30  4  0  0  0  0
 30 31  4  0  0  0  0
 18 31  4  0  0  0  0
  3 32  1  0  0  0  0
 32 33  1  0  0  0  0
 32 34  2  0  0  0  0
  1 35  1  0  0  0  0
  1 36  1  0  0  0  0
  1 37  1  0  0  0  0
  2 38  1  0  0  0  0
  2 39  1  0  0  0  0
  4 40  1  0  0  0  0
  4 41  1  0  0  0  0
  4 42  1  0  0  0  0
  7 43  1  0  0  0  0
  8 44  1  0  0  0  0
 10 45  1  0  0  0  0
 11 46  1  0  0  0  0
 13 47  1  0  0  0  0
 13 48  1  0  0  0  0
 14 49  1  0  0  0  0
 14 50  1  0  0  0  0
 15 51  1  0  0  0  0
 15 52  1  0  0  0  0
 16 53  1  0  0  0  0
 16 54  1  0  0  0  0
 17 55  1  0  0  0  0
 17 56  1  0  0  0  0
 19 57  1  0  0  0  0
 20 58  1  0  0  0  0
 24 59  1  0  0  0  0
 24 60  1  0  0  0  0
 24 61  1  0  0  0  0
 25 62  1  0  0  0  0
 25 63  1  0  0  0  0
 26 64  1  0  0  0  0
 26 65  1  0  0  0  0
 26 66  1  0  0  0  0
 28 67  1  0  0  0  0
 30 68  1  0  0  0  0
 31 69  1  0  0  0  0
 33 70  1  0  0  0  0
M  END
>  <InChIKey>
InChI=1S/C28H36O6/c1-5-26(3,24(29)30)33-22-14-10-20(11-15-22)28(18-8-7-9-19-28)21-12-16-23(17-13-21)34-27(4,6-2)25(31)32/h10-17H,5-9,18-19H2,1-4H3,(H,29,30)(H,31,32)

>  <CASRN>
30299-08-2

> <Outcome>
0

>  <Index>
1205

>  <StandardizerResult>
Dearomatize (ID: Dearomatize)
Clear Stereo (ID: ClearStereo)
Wedge Clean (ID: WedgeClean)
Mesomerize (ID: Mesomerize)
Tautomerize (ID: Tautomerize)
Aromatize (ID: Aromatize)
Add Explicit Hydrogens (ID: AddExplicitH)
Neutralize (ID: Neutralize)
Clean 2D (ID: Clean2D)

> <knn Distance>
4.24264049530029

> <CpId>
1205

$$$$
1277
  Mrv1532301301811342D          

 55 56  0  0  0  0            999 V2000
   -5.3843   -3.1720    0.0000 C   0  0  0  0  0  0  0  0  0  0  0  0
   -4.5917   -2.9432    0.0000 C   0  0  0  0  0  0  0  0  0  0  0  0
   -3.9972   -3.5152    0.0000 N   0  0  0  0  0  0  0  0  0  0  0  0
   -4.1953   -4.3161    0.0000 C   0  0  0  0  0  0  0  0  0  0  0  0
   -4.9880   -4.5449    0.0000 C   0  0  0  0  0  0  0  0  0  0  0  0
   -3.2045   -3.2864    0.0000 C   0  0  0  0  0  0  0  0  0  0  0  0
   -2.6101   -3.8585    0.0000 C   0  0  0  0  0  0  0  0  0  0  0  0
   -1.8174   -3.6296    0.0000 O   0  0  0  0  0  0  0  0  0  0  0  0
   -1.2230   -4.2017    0.0000 C   0  0  0  0  0  0  0  0  0  0  0  0
   -0.4303   -3.9729    0.0000 C   0  0  0  0  0  0  0  0  0  0  0  0
    0.1641   -4.5449    0.0000 O   0  0  0  0  0  0  0  0  0  0  0  0
    0.9568   -4.3161    0.0000 C   0  0  0  0  0  0  0  0  0  0  0  0
    1.1549   -3.5152    0.0000 O   0  0  0  0  0  0  0  0  0  0  0  0
    1.5513   -4.8881    0.0000 C   0  0  0  0  0  0  0  0  0  0  0  0
    2.2517   -5.3241    0.0000 C   0  0  0  0  0  0  0  0  0  0  0  0
    2.0535   -6.1249    0.0000 C   0  0  0  0  0  0  0  0  0  0  0  0
    1.2306   -6.1839    0.0000 C   0  0  0  0  0  0  0  0  0  0  0  0
    0.9202   -5.4196    0.0000 C   0  0  0  0  0  0  0  0  0  0  0  0
    2.0580   -4.2371    0.0000 C   0  0  0  0  0  0  0  0  0  0  0  0
    1.7476   -3.4727    0.0000 C   0  0  0  0  0  0  0  0  0  0  0  0
    2.2544   -2.8217    0.0000 C   0  0  0  0  0  0  0  0  0  0  0  0
    3.0715   -2.9351    0.0000 C   0  0  0  0  0  0  0  0  0  0  0  0
    3.3820   -3.6995    0.0000 C   0  0  0  0  0  0  0  0  0  0  0  0
    2.8752   -4.3505    0.0000 C   0  0  0  0  0  0  0  0  0  0  0  0
   -5.6131   -2.3794    0.0000 H   0  0  0  0  0  0  0  0  0  0  0  0
   -6.1769   -3.4008    0.0000 H   0  0  0  0  0  0  0  0  0  0  0  0
   -5.1555   -3.9647    0.0000 H   0  0  0  0  0  0  0  0  0  0  0  0
   -4.0552   -2.3165    0.0000 H   0  0  0  0  0  0  0  0  0  0  0  0
   -4.7740   -2.1386    0.0000 H   0  0  0  0  0  0  0  0  0  0  0  0
   -3.9208   -5.0941    0.0000 H   0  0  0  0  0  0  0  0  0  0  0  0
   -3.4074   -4.5605    0.0000 H   0  0  0  0  0  0  0  0  0  0  0  0
   -5.8078   -4.4530    0.0000 H   0  0  0  0  0  0  0  0  0  0  0  0
   -5.3867   -5.2672    0.0000 H   0  0  0  0  0  0  0  0  0  0  0  0
   -4.4733   -5.1896    0.0000 H   0  0  0  0  0  0  0  0  0  0  0  0
   -2.6680   -2.6597    0.0000 H   0  0  0  0  0  0  0  0  0  0  0  0
   -3.3869   -2.4818    0.0000 H   0  0  0  0  0  0  0  0  0  0  0  0
   -3.1466   -4.4852    0.0000 H   0  0  0  0  0  0  0  0  0  0  0  0
   -2.4277   -4.6631    0.0000 H   0  0  0  0  0  0  0  0  0  0  0  0
   -1.7595   -4.8284    0.0000 H   0  0  0  0  0  0  0  0  0  0  0  0
   -1.0406   -5.0063    0.0000 H   0  0  0  0  0  0  0  0  0  0  0  0
    0.1062   -3.3461    0.0000 H   0  0  0  0  0  0  0  0  0  0  0  0
   -0.6127   -3.1683    0.0000 H   0  0  0  0  0  0  0  0  0  0  0  0
    3.0723   -5.4088    0.0000 H   0  0  0  0  0  0  0  0  0  0  0  0
    2.7808   -4.6911    0.0000 H   0  0  0  0  0  0  0  0  0  0  0  0
    2.2265   -6.9316    0.0000 H   0  0  0  0  0  0  0  0  0  0  0  0
    2.8190   -6.4326    0.0000 H   0  0  0  0  0  0  0  0  0  0  0  0
    0.5169   -6.5977    0.0000 H   0  0  0  0  0  0  0  0  0  0  0  0
    1.1745   -7.0070    0.0000 H   0  0  0  0  0  0  0  0  0  0  0  0
    0.3061   -4.8686    0.0000 H   0  0  0  0  0  0  0  0  0  0  0  0
    0.1201   -5.6206    0.0000 H   0  0  0  0  0  0  0  0  0  0  0  0
    1.3590   -2.7450    0.0000 H   0  0  0  0  0  0  0  0  0  0  0  0
    2.3463   -2.0019    0.0000 H   0  0  0  0  0  0  0  0  0  0  0  0
    3.5783   -2.2841    0.0000 H   0  0  0  0  0  0  0  0  0  0  0  0
    4.1991   -3.8128    0.0000 H   0  0  0  0  0  0  0  0  0  0  0  0
    3.6123   -4.7210    0.0000 H   0  0  0  0  0  0  0  0  0  0  0  0
  1  2  1  0  0  0  0
  2  3  1  0  0  0  0
  3  4  1  0  0  0  0
  4  5  1  0  0  0  0
  3  6  1  0  0  0  0
  6  7  1  0  0  0  0
  7  8  1  0  0  0  0
  8  9  1  0  0  0  0
  9 10  1  0  0  0  0
 10 11  1  0  0  0  0
 11 12  1  0  0  0  0
 12 13  2  0  0  0  0
 12 14  1  0  0  0  0
 14 15  1  0  0  0  0
 15 16  1  0  0  0  0
 16 17  1  0  0  0  0
 17 18  1  0  0  0  0
 14 18  1  0  0  0  0
 14 19  1  0  0  0  0
 19 20  4  0  0  0  0
 20 21  4  0  0  0  0
 21 22  4  0  0  0  0
 22 23  4  0  0  0  0
 23 24  4  0  0  0  0
 19 24  4  0  0  0  0
  1 25  1  0  0  0  0
  1 26  1  0  0  0  0
  1 27  1  0  0  0  0
  2 28  1  0  0  0  0
  2 29  1  0  0  0  0
  4 30  1  0  0  0  0
  4 31  1  0  0  0  0
  5 32  1  0  0  0  0
  5 33  1  0  0  0  0
  5 34  1  0  0  0  0
  6 35  1  0  0  0  0
  6 36  1  0  0  0  0
  7 37  1  0  0  0  0
  7 38  1  0  0  0  0
  9 39  1  0  0  0  0
  9 40  1  0  0  0  0
 10 41  1  0  0  0  0
 10 42  1  0  0  0  0
 15 43  1  0  0  0  0
 15 44  1  0  0  0  0
 16 45  1  0  0  0  0
 16 46  1  0  0  0  0
 17 47  1  0  0  0  0
 17 48  1  0  0  0  0
 18 49  1  0  0  0  0
 18 50  1  0  0  0  0
 20 51  1  0  0  0  0
 21 52  1  0  0  0  0
 22 53  1  0  0  0  0
 23 54  1  0  0  0  0
 24 55  1  0  0  0  0
M  END
>  <InChIKey>
InChI=1S/C20H31NO3/c1-3-21(4-2)14-15-23-16-17-24-19(22)20(12-8-9-13-20)18-10-6-5-7-11-18/h5-7,10-11H,3-4,8-9,12-17H2,1-2H3

>  <CASRN>
77-23-6

> <Outcome>
0

>  <Index>
1277

>  <StandardizerResult>
Dearomatize (ID: Dearomatize)
Clear Stereo (ID: ClearStereo)
Wedge Clean (ID: WedgeClean)
Mesomerize (ID: Mesomerize)
Tautomerize (ID: Tautomerize)
Aromatize (ID: Aromatize)
Add Explicit Hydrogens (ID: AddExplicitH)
Neutralize (ID: Neutralize)
Clean 2D (ID: Clean2D)

> <knn Distance>
4.24264049530029

> <CpId>
1277

$$$$
1364
  Mrv1532301301811342D          

 56 59  0  0  0  0            999 V2000
   -2.1367   -2.8877    0.0000 C   0  0  0  0  0  0  0  0  0  0  0  0
   -2.1367   -3.7127    0.0000 C   0  0  0  0  0  0  0  0  0  0  0  0
   -1.4222   -4.1252    0.0000 C   0  0  0  0  0  0  0  0  0  0  0  0
   -1.4222   -4.9502    0.0000 C   0  0  0  0  0  0  0  0  0  0  0  0
   -0.7077   -5.3627    0.0000 C   0  0  0  0  0  0  0  0  0  0  0  0
   -0.7077   -6.1877    0.0000 C   0  0  0  0  0  0  0  0  0  0  0  0
   -1.4222   -6.6002    0.0000 C   0  0  0  0  0  0  0  0  0  0  0  0
   -2.1367   -6.1877    0.0000 C   0  0  0  0  0  0  0  0  0  0  0  0
   -2.1367   -5.3627    0.0000 C   0  0  0  0  0  0  0  0  0  0  0  0
   -1.4222   -2.4752    0.0000 N   0  0  0  0  0  0  0  0  0  0  0  0
   -1.4222   -1.6502    0.0000 C   0  0  0  0  0  0  0  0  0  0  0  0
   -0.7077   -1.2377    0.0000 C   0  0  0  0  0  0  0  0  0  0  0  0
    0.0067   -1.6502    0.0000 N   0  0  0  0  0  0  0  0  0  0  0  0
    0.0067   -2.4752    0.0000 C   0  0  0  0  0  0  0  0  0  0  0  0
   -0.7077   -2.8877    0.0000 C   0  0  0  0  0  0  0  0  0  0  0  0
    0.7212   -1.2377    0.0000 C   0  0  0  0  0  0  0  0  0  0  0  0
    1.4357   -1.6502    0.0000 C   0  0  0  0  0  0  0  0  0  0  0  0
    2.1501   -1.2377    0.0000 C   0  0  0  0  0  0  0  0  0  0  0  0
    2.8646   -1.6502    0.0000 C   0  0  0  0  0  0  0  0  0  0  0  0
    2.8646   -2.4752    0.0000 C   0  0  0  0  0  0  0  0  0  0  0  0
    2.1501   -2.8877    0.0000 C   0  0  0  0  0  0  0  0  0  0  0  0
    1.4357   -2.4752    0.0000 C   0  0  0  0  0  0  0  0  0  0  0  0
    0.7212   -0.4127    0.0000 C   0  0  0  0  0  0  0  0  0  0  0  0
    0.0067   -0.0002    0.0000 C   0  0  0  0  0  0  0  0  0  0  0  0
    0.0067    0.8248    0.0000 C   0  0  0  0  0  0  0  0  0  0  0  0
    0.7212    1.2373    0.0000 C   0  0  0  0  0  0  0  0  0  0  0  0
    1.4357    0.8248    0.0000 C   0  0  0  0  0  0  0  0  0  0  0  0
    1.4357   -0.0002    0.0000 C   0  0  0  0  0  0  0  0  0  0  0  0
   -2.5900   -2.1984    0.0000 H   0  0  0  0  0  0  0  0  0  0  0  0
   -2.9603   -2.8397    0.0000 H   0  0  0  0  0  0  0  0  0  0  0  0
   -2.8512   -4.1252    0.0000 H   0  0  0  0  0  0  0  0  0  0  0  0
   -0.7077   -3.7127    0.0000 H   0  0  0  0  0  0  0  0  0  0  0  0
    0.0067   -4.9502    0.0000 H   0  0  0  0  0  0  0  0  0  0  0  0
    0.0067   -6.6002    0.0000 H   0  0  0  0  0  0  0  0  0  0  0  0
   -1.4222   -7.4252    0.0000 H   0  0  0  0  0  0  0  0  0  0  0  0
   -2.8512   -6.6002    0.0000 H   0  0  0  0  0  0  0  0  0  0  0  0
   -2.8512   -4.9502    0.0000 H   0  0  0  0  0  0  0  0  0  0  0  0
   -1.8756   -0.9609    0.0000 H   0  0  0  0  0  0  0  0  0  0  0  0
   -2.2458   -1.6022    0.0000 H   0  0  0  0  0  0  0  0  0  0  0  0
   -0.3375   -0.5005    0.0000 H   0  0  0  0  0  0  0  0  0  0  0  0
   -1.0780   -0.5005    0.0000 H   0  0  0  0  0  0  0  0  0  0  0  0
    0.4601   -3.1645    0.0000 H   0  0  0  0  0  0  0  0  0  0  0  0
    0.8303   -2.5232    0.0000 H   0  0  0  0  0  0  0  0  0  0  0  0
   -1.4222   -3.3002    0.0000 H   0  0  0  0  0  0  0  0  0  0  0  0
    0.0067   -3.3002    0.0000 H   0  0  0  0  0  0  0  0  0  0  0  0
    0.7212   -2.0627    0.0000 H   0  0  0  0  0  0  0  0  0  0  0  0
    2.1501   -0.4127    0.0000 H   0  0  0  0  0  0  0  0  0  0  0  0
    3.5791   -1.2377    0.0000 H   0  0  0  0  0  0  0  0  0  0  0  0
    3.5791   -2.8877    0.0000 H   0  0  0  0  0  0  0  0  0  0  0  0
    2.1501   -3.7127    0.0000 H   0  0  0  0  0  0  0  0  0  0  0  0
    1.2538   -3.2799    0.0000 H   0  0  0  0  0  0  0  0  0  0  0  0
   -0.7811    0.2446    0.0000 H   0  0  0  0  0  0  0  0  0  0  0  0
   -0.7077    1.2373    0.0000 H   0  0  0  0  0  0  0  0  0  0  0  0
    0.7212    2.0623    0.0000 H   0  0  0  0  0  0  0  0  0  0  0  0
    2.1501    1.2373    0.0000 H   0  0  0  0  0  0  0  0  0  0  0  0
    1.4357   -0.8252    0.0000 H   0  0  0  0  0  0  0  0  0  0  0  0
  2  1  1  4  0  0  0
  2  3  2  0  0  0  0
  3  4  1  0  0  0  0
  4  5  4  0  0  0  0
  5  6  4  0  0  0  0
  6  7  4  0  0  0  0
  7  8  4  0  0  0  0
  8  9  4  0  0  0  0
  4  9  4  0  0  0  0
  1 10  1  0  0  0  0
 10 11  1  0  0  0  0
 11 12  1  0  0  0  0
 12 13  1  0  0  0  0
 13 14  1  0  0  0  0
 14 15  1  0  0  0  0
 10 15  1  0  0  0  0
 13 16  1  0  0  0  0
 16 17  1  0  0  0  0
 17 18  4  0  0  0  0
 18 19  4  0  0  0  0
 19 20  4  0  0  0  0
 20 21  4  0  0  0  0
 21 22  4  0  0  0  0
 17 22  4  0  0  0  0
 16 23  1  0  0  0  0
 23 24  4  0  0  0  0
 24 25  4  0  0  0  0
 25 26  4  0  0  0  0
 26 27  4  0  0  0  0
 27 28  4  0  0  0  0
 23 28  4  0  0  0  0
  1 29  1  0  0  0  0
  1 30  1  0  0  0  0
  2 31  1  0  0  0  0
  3 32  1  0  0  0  0
  5 33  1  0  0  0  0
  6 34  1  0  0  0  0
  7 35  1  0  0  0  0
  8 36  1  0  0  0  0
  9 37  1  0  0  0  0
 11 38  1  0  0  0  0
 11 39  1  0  0  0  0
 12 40  1  0  0  0  0
 12 41  1  0  0  0  0
 14 42  1  0  0  0  0
 14 43  1  0  0  0  0
 15 44  1  0  0  0  0
 15 45  1  0  0  0  0
 16 46  1  0  0  0  0
 18 47  1  0  0  0  0
 19 48  1  0  0  0  0
 20 49  1  0  0  0  0
 21 50  1  0  0  0  0
 22 51  1  0  0  0  0
 24 52  1  0  0  0  0
 25 53  1  0  0  0  0
 26 54  1  0  0  0  0
 27 55  1  0  0  0  0
 28 56  1  0  0  0  0
M  END
>  <InChIKey>
InChI=1S/C26H28N2/c1-4-11-23(12-5-1)13-10-18-27-19-21-28(22-20-27)26(24-14-6-2-7-15-24)25-16-8-3-9-17-25/h1-17,26H,18-22H2

>  <CASRN>
298-57-7

> <Outcome>
0

>  <Index>
1364

>  <StandardizerResult>
Dearomatize (ID: Dearomatize)
Clear Stereo (ID: ClearStereo)
Wedge Clean (ID: WedgeClean)
Mesomerize (ID: Mesomerize)
Tautomerize (ID: Tautomerize)
Aromatize (ID: Aromatize)
Add Explicit Hydrogens (ID: AddExplicitH)
Neutralize (ID: Neutralize)
Clean 2D (ID: Clean2D)

> <knn Distance>
4.24264049530029

> <CpId>
1364

$$$$
1405
  Mrv1532301301811342D          

129136  0  0  0  0            999 V2000
    8.6970   -7.7489    0.0000 C   0  0  0  0  0  0  0  0  0  0  0  0
    8.9773   -6.9730    0.0000 C   0  0  0  0  0  0  0  0  0  0  0  0
    8.4455   -6.3423    0.0000 O   0  0  0  0  0  0  0  0  0  0  0  0
    8.7258   -5.5664    0.0000 C   0  0  0  0  0  0  0  0  0  0  0  0
    9.5379   -5.4212    0.0000 C   0  0  0  0  0  0  0  0  0  0  0  0
   10.0697   -6.0519    0.0000 C   0  0  0  0  0  0  0  0  0  0  0  0
   10.8818   -5.9067    0.0000 O   0  0  0  0  0  0  0  0  0  0  0  0
   11.4137   -6.5374    0.0000 C   0  0  0  0  0  0  0  0  0  0  0  0
   12.2258   -6.3922    0.0000 O   0  0  0  0  0  0  0  0  0  0  0  0
    9.7894   -6.8278    0.0000 C   0  0  0  0  0  0  0  0  0  0  0  0
   10.3212   -7.4585    0.0000 O   0  0  0  0  0  0  0  0  0  0  0  0
   11.1334   -7.3133    0.0000 C   0  0  0  0  0  0  0  0  0  0  0  0
   11.6652   -7.9440    0.0000 O   0  0  0  0  0  0  0  0  0  0  0  0
    8.1940   -4.9357    0.0000 O   0  0  0  0  0  0  0  0  0  0  0  0
    8.4743   -4.1598    0.0000 C   0  0  0  0  0  0  0  0  0  0  0  0
    7.9424   -3.5291    0.0000 C   0  0  0  0  0  0  0  0  0  0  0  0
    7.1303   -3.6743    0.0000 C   0  0  0  0  0  0  0  0  0  0  0  0
    8.2227   -2.7531    0.0000 O   0  0  0  0  0  0  0  0  0  0  0  0
    9.0349   -2.6079    0.0000 C   0  0  0  0  0  0  0  0  0  0  0  0
    9.5667   -3.2386    0.0000 C   0  0  0  0  0  0  0  0  0  0  0  0
    9.2864   -4.0145    0.0000 C   0  0  0  0  0  0  0  0  0  0  0  0
    9.8182   -4.6453    0.0000 O   0  0  0  0  0  0  0  0  0  0  0  0
   10.6303   -4.5000    0.0000 C   0  0  0  0  0  0  0  0  0  0  0  0
   11.1621   -5.1307    0.0000 O   0  0  0  0  0  0  0  0  0  0  0  0
    9.3152   -1.8320    0.0000 O   0  0  0  0  0  0  0  0  0  0  0  0
    8.7833   -1.2013    0.0000 C   0  0  0  0  0  0  0  0  0  0  0  0
    7.9712   -1.3465    0.0000 C   0  0  0  0  0  0  0  0  0  0  0  0
    7.6909   -2.1224    0.0000 C   0  0  0  0  0  0  0  0  0  0  0  0
    7.4394   -0.7158    0.0000 O   0  0  0  0  0  0  0  0  0  0  0  0
    7.7197    0.0601    0.0000 C   0  0  0  0  0  0  0  0  0  0  0  0
    8.5318    0.2053    0.0000 C   0  0  0  0  0  0  0  0  0  0  0  0
    9.0636   -0.4254    0.0000 C   0  0  0  0  0  0  0  0  0  0  0  0
    9.8758   -0.2801    0.0000 O   0  0  0  0  0  0  0  0  0  0  0  0
   10.1561    0.4958    0.0000 C   0  0  0  0  0  0  0  0  0  0  0  0
   10.9682    0.6410    0.0000 O   0  0  0  0  0  0  0  0  0  0  0  0
    7.1879    0.6908    0.0000 O   0  0  0  0  0  0  0  0  0  0  0  0
    6.3758    0.5456    0.0000 C   0  0  0  0  0  0  0  0  0  0  0  0
    6.0955   -0.2303    0.0000 C   0  0  0  0  0  0  0  0  0  0  0  0
    5.2833   -0.3755    0.0000 C   0  0  0  0  0  0  0  0  0  0  0  0
    4.7515    0.2552    0.0000 C   0  0  0  0  0  0  0  0  0  0  0  0
    4.4712   -0.5207    0.0000 C   0  0  0  0  0  0  0  0  0  0  0  0
    5.0318    1.0311    0.0000 C   0  0  0  0  0  0  0  0  0  0  0  0
    4.5000    1.6618    0.0000 C   0  0  0  0  0  0  0  0  0  0  0  0
    3.6879    1.5166    0.0000 C   0  0  0  0  0  0  0  0  0  0  0  0
    3.4076    0.7407    0.0000 C   0  0  0  0  0  0  0  0  0  0  0  0
    3.9394    0.1100    0.0000 C   0  0  0  0  0  0  0  0  0  0  0  0
    3.6591   -0.6659    0.0000 C   0  0  0  0  0  0  0  0  0  0  0  0
    2.8470   -0.8112    0.0000 C   0  0  0  0  0  0  0  0  0  0  0  0
    2.3152   -0.1805    0.0000 C   0  0  0  0  0  0  0  0  0  0  0  0
    1.9553   -0.9228    0.0000 C   0  0  0  0  0  0  0  0  0  0  0  0
    1.4906   -0.1536    0.0000 C   0  0  0  0  0  0  0  0  0  0  0  0
    1.2613    0.6388    0.0000 C   0  0  0  0  0  0  0  0  0  0  0  0
    1.9441    1.1018    0.0000 C   0  0  0  0  0  0  0  0  0  0  0  0
    2.5955    0.5955    0.0000 C   0  0  0  0  0  0  0  0  0  0  0  0
    2.7931    1.3964    0.0000 O   0  0  0  0  0  0  0  0  0  0  0  0
    0.4854    0.9191    0.0000 O   0  0  0  0  0  0  0  0  0  0  0  0
    0.3402    1.7313    0.0000 C   0  0  0  0  0  0  0  0  0  0  0  0
   -0.4358    2.0116    0.0000 O   0  0  0  0  0  0  0  0  0  0  0  0
    0.9843   -0.8050    0.0000 C   0  0  0  0  0  0  0  0  0  0  0  0
    0.1597   -0.7782    0.0000 C   0  0  0  0  0  0  0  0  0  0  0  0
   -0.1206   -1.5541    0.0000 C   0  0  0  0  0  0  0  0  0  0  0  0
   -0.9131   -1.7834    0.0000 O   0  0  0  0  0  0  0  0  0  0  0  0
    0.5307   -2.0604    0.0000 O   0  0  0  0  0  0  0  0  0  0  0  0
    1.2136   -1.5975    0.0000 C   0  0  0  0  0  0  0  0  0  0  0  0
    5.8439    1.1763    0.0000 C   0  0  0  0  0  0  0  0  0  0  0  0
    7.9211   -7.4687    0.0000 H   0  0  0  0  0  0  0  0  0  0  0  0
    8.4167   -8.5249    0.0000 H   0  0  0  0  0  0  0  0  0  0  0  0
    9.4729   -8.0292    0.0000 H   0  0  0  0  0  0  0  0  0  0  0  0
    9.5091   -7.6037    0.0000 H   0  0  0  0  0  0  0  0  0  0  0  0
    9.0061   -4.7905    0.0000 H   0  0  0  0  0  0  0  0  0  0  0  0
   10.3500   -5.2760    0.0000 H   0  0  0  0  0  0  0  0  0  0  0  0
    9.2576   -6.1971    0.0000 H   0  0  0  0  0  0  0  0  0  0  0  0
   10.6015   -6.6826    0.0000 H   0  0  0  0  0  0  0  0  0  0  0  0
   11.6940   -5.7615    0.0000 H   0  0  0  0  0  0  0  0  0  0  0  0
    9.9346   -7.6399    0.0000 H   0  0  0  0  0  0  0  0  0  0  0  0
   11.9455   -7.1681    0.0000 H   0  0  0  0  0  0  0  0  0  0  0  0
    7.6621   -4.3050    0.0000 H   0  0  0  0  0  0  0  0  0  0  0  0
    8.7546   -3.3838    0.0000 H   0  0  0  0  0  0  0  0  0  0  0  0
    7.2003   -2.8522    0.0000 H   0  0  0  0  0  0  0  0  0  0  0  0
    6.3544   -3.3940    0.0000 H   0  0  0  0  0  0  0  0  0  0  0  0
    6.6588   -4.3512    0.0000 H   0  0  0  0  0  0  0  0  0  0  0  0
    9.8470   -2.4627    0.0000 H   0  0  0  0  0  0  0  0  0  0  0  0
   10.1999   -3.7674    0.0000 H   0  0  0  0  0  0  0  0  0  0  0  0
   10.3917   -3.2366    0.0000 H   0  0  0  0  0  0  0  0  0  0  0  0
    8.6557   -4.5464    0.0000 H   0  0  0  0  0  0  0  0  0  0  0  0
   11.3038   -4.0235    0.0000 H   0  0  0  0  0  0  0  0  0  0  0  0
    9.5955   -1.0561    0.0000 H   0  0  0  0  0  0  0  0  0  0  0  0
    8.5030   -1.9772    0.0000 H   0  0  0  0  0  0  0  0  0  0  0  0
    7.3869   -1.3555    0.0000 H   0  0  0  0  0  0  0  0  0  0  0  0
    6.9551   -1.7493    0.0000 H   0  0  0  0  0  0  0  0  0  0  0  0
    6.8926   -2.3304    0.0000 H   0  0  0  0  0  0  0  0  0  0  0  0
    8.0000    0.8361    0.0000 H   0  0  0  0  0  0  0  0  0  0  0  0
    9.3064    0.4894    0.0000 H   0  0  0  0  0  0  0  0  0  0  0  0
    8.9426    0.9208    0.0000 H   0  0  0  0  0  0  0  0  0  0  0  0
    8.2515   -0.5706    0.0000 H   0  0  0  0  0  0  0  0  0  0  0  0
   10.0801    1.3173    0.0000 H   0  0  0  0  0  0  0  0  0  0  0  0
    6.6561    1.3215    0.0000 H   0  0  0  0  0  0  0  0  0  0  0  0
    6.2877   -1.0326    0.0000 H   0  0  0  0  0  0  0  0  0  0  0  0
    6.8538   -0.5552    0.0000 H   0  0  0  0  0  0  0  0  0  0  0  0
    5.1420   -1.1883    0.0000 H   0  0  0  0  0  0  0  0  0  0  0  0
    5.6976   -1.0890    0.0000 H   0  0  0  0  0  0  0  0  0  0  0  0
    3.8523   -1.0662    0.0000 H   0  0  0  0  0  0  0  0  0  0  0  0
    4.2250   -1.3081    0.0000 H   0  0  0  0  0  0  0  0  0  0  0  0
    4.6692   -1.3216    0.0000 H   0  0  0  0  0  0  0  0  0  0  0  0
    5.3121    1.8070    0.0000 H   0  0  0  0  0  0  0  0  0  0  0  0
    4.6413    2.4746    0.0000 H   0  0  0  0  0  0  0  0  0  0  0  0
    4.0858    2.3753    0.0000 H   0  0  0  0  0  0  0  0  0  0  0  0
    3.1984    2.1807    0.0000 H   0  0  0  0  0  0  0  0  0  0  0  0
    4.2197    0.8859    0.0000 H   0  0  0  0  0  0  0  0  0  0  0  0
    3.1273   -0.0352    0.0000 H   0  0  0  0  0  0  0  0  0  0  0  0
    4.0846   -0.7021    0.0000 H   0  0  0  0  0  0  0  0  0  0  0  0
    3.0793   -1.2528    0.0000 H   0  0  0  0  0  0  0  0  0  0  0  0
    3.5237   -1.4798    0.0000 H   0  0  0  0  0  0  0  0  0  0  0  0
    2.2536   -1.3843    0.0000 H   0  0  0  0  0  0  0  0  0  0  0  0
    2.7161   -1.6257    0.0000 H   0  0  0  0  0  0  0  0  0  0  0  0
    1.1529   -0.7313    0.0000 H   0  0  0  0  0  0  0  0  0  0  0  0
    1.2557   -1.3601    0.0000 H   0  0  0  0  0  0  0  0  0  0  0  0
    1.7759   -1.7281    0.0000 H   0  0  0  0  0  0  0  0  0  0  0  0
    0.6804    0.0018    0.0000 H   0  0  0  0  0  0  0  0  0  0  0  0
    1.1588    1.4575    0.0000 H   0  0  0  0  0  0  0  0  0  0  0  0
    1.9817    1.9260    0.0000 H   0  0  0  0  0  0  0  0  0  0  0  0
    1.9173    0.2773    0.0000 H   0  0  0  0  0  0  0  0  0  0  0  0
    2.5828    2.1942    0.0000 H   0  0  0  0  0  0  0  0  0  0  0  0
    0.6112    2.5105    0.0000 H   0  0  0  0  0  0  0  0  0  0  0  0
   -0.5767   -0.4063    0.0000 H   0  0  0  0  0  0  0  0  0  0  0  0
    1.3643   -2.4086    0.0000 H   0  0  0  0  0  0  0  0  0  0  0  0
    1.9021   -1.1430    0.0000 H   0  0  0  0  0  0  0  0  0  0  0  0
    6.1242    1.9523    0.0000 H   0  0  0  0  0  0  0  0  0  0  0  0
    5.5636    0.4004    0.0000 H   0  0  0  0  0  0  0  0  0  0  0  0
  1  2  1  0  0  0  0
  2  3  1  0  0  0  0
  3  4  1  0  0  0  0
  4  5  1  0  0  0  0
  5  6  1  0  0  0  0
  6  7  1  0  0  0  0
  7  8  1  0  0  0  0
  8  9  2  0  0  0  0
  6 10  1  0  0  0  0
  2 10  1  0  0  0  0
 10 11  1  0  0  0  0
 11 12  1  0  0  0  0
 12 13  2  0  0  0  0
  4 14  1  0  0  0  0
 14 15  1  0  0  0  0
 15 16  1  0  0  0  0
 16 17  1  0  0  0  0
 16 18  1  0  0  0  0
 18 19  1  0  0  0  0
 19 20  1  0  0  0  0
 20 21  1  0  0  0  0
 15 21  1  0  0  0  0
 21 22  1  0  0  0  0
 22 23  1  0  0  0  0
 23 24  2  0  0  0  0
 19 25  1  0  0  0  0
 25 26  1  0  0  0  0
 26 27  1  0  0  0  0
 27 28  1  0  0  0  0
 27 29  1  0  0  0  0
 29 30  1  0  0  0  0
 30 31  1  0  0  0  0
 31 32  1  0  0  0  0
 26 32  1  0  0  0  0
 32 33  1  0  0  0  0
 33 34  1  0  0  0  0
 34 35  2  0  0  0  0
 30 36  1  0  0  0  0
 36 37  1  0  0  0  0
 37 38  1  0  0  0  0
 38 39  1  0  0  0  0
 39 40  1  0  0  0  0
 40 41  1  0  0  0  0
 40 42  1  0  0  0  0
 42 43  1  0  0  0  0
 43 44  1  0  0  0  0
 44 45  1  0  0  0  0
 45 46  1  0  0  0  0
 40 46  1  0  0  0  0
 46 47  1  0  0  0  0
 47 48  1  0  0  0  0
 48 49  1  0  0  0  0
 49 50  1  0  0  0  0
 49 51  1  0  0  0  0
 51 52  1  0  0  0  0
 52 53  1  0  0  0  0
 53 54  1  0  0  0  0
 45 54  1  0  0  0  0
 49 54  1  0  0  0  0
 54 55  1  0  0  0  0
 52 56  1  0  0  0  0
 56 57  1  0  0  0  0
 57 58  2  0  0  0  0
 51 59  1  0  0  0  0
 59 60  2  0  0  0  0
 60 61  1  0  0  0  0
 61 62  2  0  0  0  0
 61 63  1  0  0  0  0
 63 64  1  0  0  0  0
 59 64  1  0  0  0  0
 42 65  1  0  0  0  0
 37 65  1  0  0  0  0
  1 66  1  0  0  0  0
  1 67  1  0  0  0  0
  1 68  1  0  0  0  0
  2 69  1  0  0  0  0
  4 70  1  0  0  0  0
  5 71  1  0  0  0  0
  5 72  1  0  0  0  0
  6 73  1  0  0  0  0
  8 74  1  0  0  0  0
 10 75  1  0  0  0  0
 12 76  1  0  0  0  0
 15 77  1  0  0  0  0
 16 78  1  0  0  0  0
 17 79  1  0  0  0  0
 17 80  1  0  0  0  0
 17 81  1  0  0  0  0
 19 82  1  0  0  0  0
 20 83  1  0  0  0  0
 20 84  1  0  0  0  0
 21 85  1  0  0  0  0
 23 86  1  0  0  0  0
 26 87  1  0  0  0  0
 27 88  1  0  0  0  0
 28 89  1  0  0  0  0
 28 90  1  0  0  0  0
 28 91  1  0  0  0  0
 30 92  1  0  0  0  0
 31 93  1  0  0  0  0
 31 94  1  0  0  0  0
 32 95  1  0  0  0  0
 34 96  1  0  0  0  0
 37 97  1  0  0  0  0
 38 98  1  0  0  0  0
 38 99  1  0  0  0  0
 39100  1  0  0  0  0
 39101  1  0  0  0  0
 41102  1  0  0  0  0
 41103  1  0  0  0  0
 41104  1  0  0  0  0
 42105  1  0  0  0  0
 43106  1  0  0  0  0
 43107  1  0  0  0  0
 44108  1  0  0  0  0
 44109  1  0  0  0  0
 45110  1  0  0  0  0
 46111  1  0  0  0  0
 47112  1  0  0  0  0
 47113  1  0  0  0  0
 48114  1  0  0  0  0
 48115  1  0  0  0  0
 50116  1  0  0  0  0
 50117  1  0  0  0  0
 50118  1  0  0  0  0
 51119  1  0  0  0  0
 52120  1  0  0  0  0
 53121  1  0  0  0  0
 53122  1  0  0  0  0
 55123  1  0  0  0  0
 57124  1  0  0  0  0
 60125  1  0  0  0  0
 64126  1  0  0  0  0
 64127  1  0  0  0  0
 65128  1  0  0  0  0
 65129  1  0  0  0  0
M  END
>  <InChIKey>
InChI=1S/C46H64O19/c1-24-41(59-23-51)32(55-19-47)14-38(60-24)64-43-26(3)62-39(16-34(43)57-21-49)65-42-25(2)61-37(15-33(42)56-20-48)63-29-8-10-44(4)28(13-29)6-7-31-30(44)9-11-45(5)40(27-12-36(52)54-18-27)35(58-22-50)17-46(31,45)53/h12,19-26,28-35,37-43,53H,6-11,13-18H2,1-5H3

>  <CASRN>
10176-39-3

> <Outcome>
0

>  <Index>
1405

>  <StandardizerResult>
Clear Stereo (ID: ClearStereo)
Wedge Clean (ID: WedgeClean)
Mesomerize (ID: Mesomerize)
Tautomerize (ID: Tautomerize)
Add Explicit Hydrogens (ID: AddExplicitH)
Neutralize (ID: Neutralize)
Clean 2D (ID: Clean2D)

> <knn Distance>
4.24264049530029

> <CpId>
1405

$$$$
1454
  Mrv1532301301811342D          

 19 19  0  0  0  0            999 V2000
    0.7145    2.0625    0.0000 N   0  0  0  0  0  0  0  0  0  0  0  0
    0.7145    1.2375    0.0000 C   0  0  0  0  0  0  0  0  0  0  0  0
    1.4290    0.8250    0.0000 C   0  0  0  0  0  0  0  0  0  0  0  0
    1.4290   -0.0000    0.0000 C   0  0  0  0  0  0  0  0  0  0  0  0
    0.7145   -0.4125    0.0000 C   0  0  0  0  0  0  0  0  0  0  0  0
    0.0000    0.0000    0.0000 C   0  0  0  0  0  0  0  0  0  0  0  0
    0.0000    0.8250    0.0000 C   0  0  0  0  0  0  0  0  0  0  0  0
    0.7145   -1.2375    0.0000 S   0  0  0  0  0  0  0  0  0  0  0  0
    0.7145   -2.0625    0.0000 N   0  0  0  0  0  0  0  0  0  0  0  0
   -0.1105   -1.2375    0.0000 O   0  0  0  0  0  0  0  0  0  0  0  0
    1.5395   -1.2375    0.0000 O   0  0  0  0  0  0  0  0  0  0  0  0
    1.4290    2.4750    0.0000 H   0  0  0  0  0  0  0  0  0  0  0  0
    0.0000    2.4750    0.0000 H   0  0  0  0  0  0  0  0  0  0  0  0
    2.1434    1.2375    0.0000 H   0  0  0  0  0  0  0  0  0  0  0  0
    2.1434   -0.4125    0.0000 H   0  0  0  0  0  0  0  0  0  0  0  0
   -0.7145   -0.4125    0.0000 H   0  0  0  0  0  0  0  0  0  0  0  0
   -0.7145    1.2375    0.0000 H   0  0  0  0  0  0  0  0  0  0  0  0
    0.0000   -2.4750    0.0000 H   0  0  0  0  0  0  0  0  0  0  0  0
    1.4290   -2.4750    0.0000 H   0  0  0  0  0  0  0  0  0  0  0  0
  1  2  1  0  0  0  0
  2  3  4  0  0  0  0
  3  4  4  0  0  0  0
  4  5  4  0  0  0  0
  5  6  4  0  0  0  0
  6  7  4  0  0  0  0
  2  7  4  0  0  0  0
  5  8  1  0  0  0  0
  8  9  1  0  0  0  0
  8 10  2  0  0  0  0
  8 11  2  0  0  0  0
  1 12  1  0  0  0  0
  1 13  1  0  0  0  0
  3 14  1  0  0  0  0
  4 15  1  0  0  0  0
  6 16  1  0  0  0  0
  7 17  1  0  0  0  0
  9 18  1  0  0  0  0
  9 19  1  0  0  0  0
M  END
>  <InChIKey>
InChI=1S/C6H8N2O2S/c7-5-1-3-6(4-2-5)11(8,9)10/h1-4H,7H2,(H2,8,9,10)

>  <CASRN>
63-74-1

> <Outcome>
0

>  <Index>
1454

>  <StandardizerResult>
Dearomatize (ID: Dearomatize)
Clear Stereo (ID: ClearStereo)
Wedge Clean (ID: WedgeClean)
Mesomerize (ID: Mesomerize)
Tautomerize (ID: Tautomerize)
Aromatize (ID: Aromatize)
Add Explicit Hydrogens (ID: AddExplicitH)
Neutralize (ID: Neutralize)
Clean 2D (ID: Clean2D)

> <knn Distance>
4.24264049530029

> <CpId>
1454

$$$$
1489
  Mrv1532301301811342D          

 75 78  0  0  0  0            999 V2000
    5.0106    1.7660    0.0000 C   0  0  0  0  0  0  0  0  0  0  0  0
    4.5257    1.0986    0.0000 C   0  0  0  0  0  0  0  0  0  0  0  0
    4.8612    0.3449    0.0000 C   0  0  0  0  0  0  0  0  0  0  0  0
    4.3763   -0.3225    0.0000 C   0  0  0  0  0  0  0  0  0  0  0  0
    3.6226    0.0130    0.0000 O   0  0  0  0  0  0  0  0  0  0  0  0
    4.7118   -1.0762    0.0000 O   0  0  0  0  0  0  0  0  0  0  0  0
    4.2269   -1.7436    0.0000 C   0  0  0  0  0  0  0  0  0  0  0  0
    3.8914   -2.4973    0.0000 C   0  0  0  0  0  0  0  0  0  0  0  0
    3.0709   -2.4111    0.0000 C   0  0  0  0  0  0  0  0  0  0  0  0
    2.8994   -1.6041    0.0000 C   0  0  0  0  0  0  0  0  0  0  0  0
    2.1849   -1.1916    0.0000 C   0  0  0  0  0  0  0  0  0  0  0  0
    1.4704   -1.6041    0.0000 C   0  0  0  0  0  0  0  0  0  0  0  0
    0.7559   -1.1916    0.0000 C   0  0  0  0  0  0  0  0  0  0  0  0
    0.7559   -0.3666    0.0000 C   0  0  0  0  0  0  0  0  0  0  0  0
    0.0415    0.0459    0.0000 C   0  0  0  0  0  0  0  0  0  0  0  0
    0.0415    0.8709    0.0000 C   0  0  0  0  0  0  0  0  0  0  0  0
   -0.6730    1.2834    0.0000 O   0  0  0  0  0  0  0  0  0  0  0  0
    0.7559    1.2834    0.0000 C   0  0  0  0  0  0  0  0  0  0  0  0
    1.4704    0.8709    0.0000 C   0  0  0  0  0  0  0  0  0  0  0  0
    1.4704    0.0459    0.0000 C   0  0  0  0  0  0  0  0  0  0  0  0
    2.1849    0.4584    0.0000 C   0  0  0  0  0  0  0  0  0  0  0  0
    2.1849   -0.3666    0.0000 C   0  0  0  0  0  0  0  0  0  0  0  0
    2.8994    0.0459    0.0000 C   0  0  0  0  0  0  0  0  0  0  0  0
    2.8994    0.8709    0.0000 O   0  0  0  0  0  0  0  0  0  0  0  0
    3.6138   -0.3666    0.0000 C   0  0  0  0  0  0  0  0  0  0  0  0
    3.6138   -1.1916    0.0000 C   0  0  0  0  0  0  0  0  0  0  0  0
    4.3675   -0.8561    0.0000 C   0  0  0  0  0  0  0  0  0  0  0  0
    4.9414   -2.1561    0.0000 C   0  0  0  0  0  0  0  0  0  0  0  0
    4.9414   -2.9811    0.0000 O   0  0  0  0  0  0  0  0  0  0  0  0
    5.6559   -1.7436    0.0000 C   0  0  0  0  0  0  0  0  0  0  0  0
    6.3703   -2.1561    0.0000 O   0  0  0  0  0  0  0  0  0  0  0  0
    7.0848   -1.7436    0.0000 C   0  0  0  0  0  0  0  0  0  0  0  0
    7.0848   -0.9186    0.0000 O   0  0  0  0  0  0  0  0  0  0  0  0
    7.7993   -2.1561    0.0000 C   0  0  0  0  0  0  0  0  0  0  0  0
    8.5137   -1.7436    0.0000 C   0  0  0  0  0  0  0  0  0  0  0  0
    5.6780    1.2811    0.0000 H   0  0  0  0  0  0  0  0  0  0  0  0
    5.4955    2.4335    0.0000 H   0  0  0  0  0  0  0  0  0  0  0  0
    4.3431    2.2509    0.0000 H   0  0  0  0  0  0  0  0  0  0  0  0
    3.8311    1.5439    0.0000 H   0  0  0  0  0  0  0  0  0  0  0  0
    3.7537    0.8074    0.0000 H   0  0  0  0  0  0  0  0  0  0  0  0
    5.5557   -0.1004    0.0000 H   0  0  0  0  0  0  0  0  0  0  0  0
    5.6331    0.6361    0.0000 H   0  0  0  0  0  0  0  0  0  0  0  0
    3.9202   -3.3218    0.0000 H   0  0  0  0  0  0  0  0  0  0  0  0
    4.5910   -2.9345    0.0000 H   0  0  0  0  0  0  0  0  0  0  0  0
    2.2956   -2.6933    0.0000 H   0  0  0  0  0  0  0  0  0  0  0  0
    2.8713   -3.2116    0.0000 H   0  0  0  0  0  0  0  0  0  0  0  0
    2.8994   -0.7791    0.0000 H   0  0  0  0  0  0  0  0  0  0  0  0
    2.1849   -2.0166    0.0000 H   0  0  0  0  0  0  0  0  0  0  0  0
    0.8384   -2.1344    0.0000 H   0  0  0  0  0  0  0  0  0  0  0  0
    1.3272   -2.4166    0.0000 H   0  0  0  0  0  0  0  0  0  0  0  0
   -0.0284   -0.9359    0.0000 H   0  0  0  0  0  0  0  0  0  0  0  0
   -0.0032   -1.5147    0.0000 H   0  0  0  0  0  0  0  0  0  0  0  0
   -0.6730   -0.3666    0.0000 H   0  0  0  0  0  0  0  0  0  0  0  0
    1.1262    2.0206    0.0000 H   0  0  0  0  0  0  0  0  0  0  0  0
    0.3857    2.0206    0.0000 H   0  0  0  0  0  0  0  0  0  0  0  0
    2.1024    1.4012    0.0000 H   0  0  0  0  0  0  0  0  0  0  0  0
    1.6137    1.6834    0.0000 H   0  0  0  0  0  0  0  0  0  0  0  0
    2.6966    1.1055    0.0000 H   0  0  0  0  0  0  0  0  0  0  0  0
    2.4215    1.2487    0.0000 H   0  0  0  0  0  0  0  0  0  0  0  0
    3.0099    0.4584    0.0000 H   0  0  0  0  0  0  0  0  0  0  0  0
    1.4704   -0.7791    0.0000 H   0  0  0  0  0  0  0  0  0  0  0  0
    3.5651    0.5331    0.0000 H   0  0  0  0  0  0  0  0  0  0  0  0
    3.2701    1.6079    0.0000 H   0  0  0  0  0  0  0  0  0  0  0  0
    3.2013   -1.0811    0.0000 H   0  0  0  0  0  0  0  0  0  0  0  0
    2.7888   -0.3666    0.0000 H   0  0  0  0  0  0  0  0  0  0  0  0
    3.9798   -0.1278    0.0000 H   0  0  0  0  0  0  0  0  0  0  0  0
    5.1846   -0.7418    0.0000 H   0  0  0  0  0  0  0  0  0  0  0  0
    4.9141   -0.2381    0.0000 H   0  0  0  0  0  0  0  0  0  0  0  0
    6.0261   -1.0064    0.0000 H   0  0  0  0  0  0  0  0  0  0  0  0
    5.2856   -1.0064    0.0000 H   0  0  0  0  0  0  0  0  0  0  0  0
    7.4290   -2.8934    0.0000 H   0  0  0  0  0  0  0  0  0  0  0  0
    8.1695   -2.8934    0.0000 H   0  0  0  0  0  0  0  0  0  0  0  0
    8.9262   -2.4581    0.0000 H   0  0  0  0  0  0  0  0  0  0  0  0
    9.2282   -1.3311    0.0000 H   0  0  0  0  0  0  0  0  0  0  0  0
    8.1012   -1.0292    0.0000 H   0  0  0  0  0  0  0  0  0  0  0  0
  1  2  1  0  0  0  0
  2  3  1  0  0  0  0
  3  4  1  0  0  0  0
  4  5  2  0  0  0  0
  4  6  1  0  0  0  0
  6  7  1  0  0  0  0
  7  8  1  0  0  0  0
  8  9  1  0  0  0  0
  9 10  1  0  0  0  0
 10 11  1  0  0  0  0
 11 12  1  0  0  0  0
 12 13  1  0  0  0  0
 13 14  1  0  0  0  0
 14 15  2  0  0  0  0
 15 16  1  0  0  0  0
 16 17  2  0  0  0  0
 16 18  1  0  0  0  0
 18 19  1  0  0  0  0
 19 20  1  0  0  0  0
 14 20  1  0  0  0  0
 20 21  1  0  0  0  0
 20 22  1  0  0  0  0
 11 22  1  0  0  0  0
 22 23  1  0  0  0  0
 23 24  1  0  0  0  0
 23 25  1  0  0  0  0
 25 26  1  0  0  0  0
  7 26  1  0  0  0  0
 10 26  1  0  0  0  0
 26 27  1  0  0  0  0
  7 28  1  0  0  0  0
 28 29  2  0  0  0  0
 28 30  1  0  0  0  0
 30 31  1  0  0  0  0
 31 32  1  0  0  0  0
 32 33  2  0  0  0  0
 32 34  1  0  0  0  0
 34 35  1  0  0  0  0
  1 36  1  0  0  0  0
  1 37  1  0  0  0  0
  1 38  1  0  0  0  0
  2 39  1  0  0  0  0
  2 40  1  0  0  0  0
  3 41  1  0  0  0  0
  3 42  1  0  0  0  0
  8 43  1  0  0  0  0
  8 44  1  0  0  0  0
  9 45  1  0  0  0  0
  9 46  1  0  0  0  0
 10 47  1  0  0  0  0
 11 48  1  0  0  0  0
 12 49  1  0  0  0  0
 12 50  1  0  0  0  0
 13 51  1  0  0  0  0
 13 52  1  0  0  0  0
 15 53  1  0  0  0  0
 18 54  1  0  0  0  0
 18 55  1  0  0  0  0
 19 56  1  0  0  0  0
 19 57  1  0  0  0  0
 21 58  1  0  0  0  0
 21 59  1  0  0  0  0
 21 60  1  0  0  0  0
 22 61  1  0  0  0  0
 23 62  1  0  0  0  0
 24 63  1  0  0  0  0
 25 64  1  0  0  0  0
 25 65  1  0  0  0  0
 27 66  1  0  0  0  0
 27 67  1  0  0  0  0
 27 68  1  0  0  0  0
 30 69  1  0  0  0  0
 30 70  1  0  0  0  0
 34 71  1  0  0  0  0
 34 72  1  0  0  0  0
 35 73  1  0  0  0  0
 35 74  1  0  0  0  0
 35 75  1  0  0  0  0
M  END
>  <InChIKey>
InChI=1S/C28H40O7/c1-5-7-24(33)35-28(22(31)16-34-23(32)6-2)13-11-20-19-9-8-17-14-18(29)10-12-26(17,3)25(19)21(30)15-27(20,28)4/h14,19-21,25,30H,5-13,15-16H2,1-4H3

>  <CASRN>
72590-77-3

> <Outcome>
0

>  <Index>
1489

>  <StandardizerResult>
Clear Stereo (ID: ClearStereo)
Wedge Clean (ID: WedgeClean)
Mesomerize (ID: Mesomerize)
Tautomerize (ID: Tautomerize)
Add Explicit Hydrogens (ID: AddExplicitH)
Neutralize (ID: Neutralize)
Clean 2D (ID: Clean2D)

> <knn Distance>
4.24264049530029

> <CpId>
1489

$$$$
1561
  Mrv1532301301811342D          

 22 22  0  0  0  0            999 V2000
    0.7145    2.8875    0.0000 N   0  0  0  0  0  0  0  0  0  0  0  0
    0.7145    2.0625    0.0000 S   0  0  0  0  0  0  0  0  0  0  0  0
   -0.1105    2.0625    0.0000 O   0  0  0  0  0  0  0  0  0  0  0  0
    1.5395    2.0625    0.0000 O   0  0  0  0  0  0  0  0  0  0  0  0
    0.7145    1.2375    0.0000 C   0  0  0  0  0  0  0  0  0  0  0  0
    1.4290    0.8250    0.0000 C   0  0  0  0  0  0  0  0  0  0  0  0
    1.4290   -0.0000    0.0000 C   0  0  0  0  0  0  0  0  0  0  0  0
    2.1434   -0.4125    0.0000 Cl  0  0  0  0  0  0  0  0  0  0  0  0
    0.7145   -0.4125    0.0000 C   0  0  0  0  0  0  0  0  0  0  0  0
    0.7145   -1.2375    0.0000 Cl  0  0  0  0  0  0  0  0  0  0  0  0
    0.0000   -0.0000    0.0000 C   0  0  0  0  0  0  0  0  0  0  0  0
    0.0000    0.8250    0.0000 C   0  0  0  0  0  0  0  0  0  0  0  0
   -0.7145   -0.4125    0.0000 S   0  0  0  0  0  0  0  0  0  0  0  0
   -1.4289   -0.8250    0.0000 N   0  0  0  0  0  0  0  0  0  0  0  0
   -1.1270    0.3020    0.0000 O   0  0  0  0  0  0  0  0  0  0  0  0
   -0.3020   -1.1270    0.0000 O   0  0  0  0  0  0  0  0  0  0  0  0
    1.4290    3.3000    0.0000 H   0  0  0  0  0  0  0  0  0  0  0  0
    0.0000    3.3000    0.0000 H   0  0  0  0  0  0  0  0  0  0  0  0
    2.1434    1.2375    0.0000 H   0  0  0  0  0  0  0  0  0  0  0  0
   -0.7145    1.2375    0.0000 H   0  0  0  0  0  0  0  0  0  0  0  0
   -2.1434   -0.4125    0.0000 H   0  0  0  0  0  0  0  0  0  0  0  0
   -1.4289   -1.6500    0.0000 H   0  0  0  0  0  0  0  0  0  0  0  0
  1  2  1  0  0  0  0
  2  3  2  0  0  0  0
  2  4  2  0  0  0  0
  2  5  1  0  0  0  0
  5  6  4  0  0  0  0
  6  7  4  0  0  0  0
  7  8  1  0  0  0  0
  7  9  4  0  0  0  0
  9 10  1  0  0  0  0
  9 11  4  0  0  0  0
 11 12  4  0  0  0  0
  5 12  4  0  0  0  0
 11 13  1  0  0  0  0
 13 14  1  0  0  0  0
 13 15  2  0  0  0  0
 13 16  2  0  0  0  0
  1 17  1  0  0  0  0
  1 18  1  0  0  0  0
  6 19  1  0  0  0  0
 12 20  1  0  0  0  0
 14 21  1  0  0  0  0
 14 22  1  0  0  0  0
M  END
>  <InChIKey>
InChI=1S/C6H6Cl2N2O4S2/c7-4-1-3(15(9,11)12)2-5(6(4)8)16(10,13)14/h1-2H,(H2,9,11,12)(H2,10,13,14)

>  <CASRN>
120-97-8

> <Outcome>
0

>  <Index>
1561

>  <StandardizerResult>
Dearomatize (ID: Dearomatize)
Clear Stereo (ID: ClearStereo)
Wedge Clean (ID: WedgeClean)
Mesomerize (ID: Mesomerize)
Tautomerize (ID: Tautomerize)
Aromatize (ID: Aromatize)
Add Explicit Hydrogens (ID: AddExplicitH)
Neutralize (ID: Neutralize)
Clean 2D (ID: Clean2D)

> <knn Distance>
4.24264049530029

> <CpId>
1561

$$$$
1570
  Mrv1532301301811342D          

 74 76  0  0  0  0            999 V2000
    1.4221   -2.8053    0.0000 C   0  0  0  0  0  0  0  0  0  0  0  0
    0.8701   -2.1922    0.0000 C   0  0  0  0  0  0  0  0  0  0  0  0
    0.0631   -2.3637    0.0000 C   0  0  0  0  0  0  0  0  0  0  0  0
   -0.1918   -3.1483    0.0000 C   0  0  0  0  0  0  0  0  0  0  0  0
   -0.9988   -3.3199    0.0000 C   0  0  0  0  0  0  0  0  0  0  0  0
   -1.2537   -4.1045    0.0000 C   0  0  0  0  0  0  0  0  0  0  0  0
   -1.5087   -4.8891    0.0000 C   0  0  0  0  0  0  0  0  0  0  0  0
   -0.4691   -4.3594    0.0000 C   0  0  0  0  0  0  0  0  0  0  0  0
   -2.0383   -3.8495    0.0000 O   0  0  0  0  0  0  0  0  0  0  0  0
    1.1250   -1.4076    0.0000 C   0  0  0  0  0  0  0  0  0  0  0  0
    0.6401   -0.7401    0.0000 C   0  0  0  0  0  0  0  0  0  0  0  0
    1.1250   -0.0727    0.0000 C   0  0  0  0  0  0  0  0  0  0  0  0
    1.9097   -0.3276    0.0000 C   0  0  0  0  0  0  0  0  0  0  0  0
    2.6241    0.0849    0.0000 C   0  0  0  0  0  0  0  0  0  0  0  0
    3.3386   -0.3276    0.0000 C   0  0  0  0  0  0  0  0  0  0  0  0
    3.3386   -1.1526    0.0000 C   0  0  0  0  0  0  0  0  0  0  0  0
    2.6241   -1.5651    0.0000 C   0  0  0  0  0  0  0  0  0  0  0  0
    1.9097   -1.1526    0.0000 C   0  0  0  0  0  0  0  0  0  0  0  0
    1.8234   -1.9731    0.0000 C   0  0  0  0  0  0  0  0  0  0  0  0
    2.6241    0.9099    0.0000 C   0  0  0  0  0  0  0  0  0  0  0  0
    1.9097    1.3224    0.0000 C   0  0  0  0  0  0  0  0  0  0  0  0
    1.9097    2.1474    0.0000 C   0  0  0  0  0  0  0  0  0  0  0  0
    1.1952    2.5599    0.0000 C   0  0  0  0  0  0  0  0  0  0  0  0
    1.1952    3.3849    0.0000 C   0  0  0  0  0  0  0  0  0  0  0  0
    0.4807    3.7974    0.0000 O   0  0  0  0  0  0  0  0  0  0  0  0
    1.9097    3.7974    0.0000 C   0  0  0  0  0  0  0  0  0  0  0  0
    2.6241    3.3849    0.0000 C   0  0  0  0  0  0  0  0  0  0  0  0
    3.3386    3.7974    0.0000 O   0  0  0  0  0  0  0  0  0  0  0  0
    2.6241    2.5599    0.0000 C   0  0  0  0  0  0  0  0  0  0  0  0
    3.3386    2.1474    0.0000 C   0  0  0  0  0  0  0  0  0  0  0  0
    0.6748   -3.1548    0.0000 H   0  0  0  0  0  0  0  0  0  0  0  0
    1.5388   -3.6220    0.0000 H   0  0  0  0  0  0  0  0  0  0  0  0
    2.2374   -2.9316    0.0000 H   0  0  0  0  0  0  0  0  0  0  0  0
    0.6152   -2.9768    0.0000 H   0  0  0  0  0  0  0  0  0  0  0  0
   -0.1550   -1.5681    0.0000 H   0  0  0  0  0  0  0  0  0  0  0  0
   -0.7053   -2.0636    0.0000 H   0  0  0  0  0  0  0  0  0  0  0  0
   -0.1086   -3.9691    0.0000 H   0  0  0  0  0  0  0  0  0  0  0  0
   -0.7438   -2.5352    0.0000 H   0  0  0  0  0  0  0  0  0  0  0  0
   -1.6489   -2.8119    0.0000 H   0  0  0  0  0  0  0  0  0  0  0  0
   -1.8233   -3.3487    0.0000 H   0  0  0  0  0  0  0  0  0  0  0  0
   -2.2933   -4.6342    0.0000 H   0  0  0  0  0  0  0  0  0  0  0  0
   -1.7636   -5.6737    0.0000 H   0  0  0  0  0  0  0  0  0  0  0  0
   -0.7240   -5.1440    0.0000 H   0  0  0  0  0  0  0  0  0  0  0  0
   -0.0107   -5.0453    0.0000 H   0  0  0  0  0  0  0  0  0  0  0  0
    0.3534   -4.4239    0.0000 H   0  0  0  0  0  0  0  0  0  0  0  0
   -0.6776   -3.5612    0.0000 H   0  0  0  0  0  0  0  0  0  0  0  0
   -2.8105   -3.5590    0.0000 H   0  0  0  0  0  0  0  0  0  0  0  0
    0.3102   -1.5366    0.0000 H   0  0  0  0  0  0  0  0  0  0  0  0
    0.1181   -0.1013    0.0000 H   0  0  0  0  0  0  0  0  0  0  0  0
   -0.1773   -0.6289    0.0000 H   0  0  0  0  0  0  0  0  0  0  0  0
    1.2683    0.7398    0.0000 H   0  0  0  0  0  0  0  0  0  0  0  0
    0.5316    0.5004    0.0000 H   0  0  0  0  0  0  0  0  0  0  0  0
    2.6241   -0.7401    0.0000 H   0  0  0  0  0  0  0  0  0  0  0  0
    4.1622   -0.2797    0.0000 H   0  0  0  0  0  0  0  0  0  0  0  0
    3.7920    0.3616    0.0000 H   0  0  0  0  0  0  0  0  0  0  0  0
    3.7920   -1.8419    0.0000 H   0  0  0  0  0  0  0  0  0  0  0  0
    4.1622   -1.2006    0.0000 H   0  0  0  0  0  0  0  0  0  0  0  0
    2.7413   -2.3818    0.0000 H   0  0  0  0  0  0  0  0  0  0  0  0
    3.2452   -2.1082    0.0000 H   0  0  0  0  0  0  0  0  0  0  0  0
    2.1303   -2.7389    0.0000 H   0  0  0  0  0  0  0  0  0  0  0  0
    2.5958   -2.2631    0.0000 H   0  0  0  0  0  0  0  0  0  0  0  0
    1.0184   -2.1535    0.0000 H   0  0  0  0  0  0  0  0  0  0  0  0
    3.3386    1.3224    0.0000 H   0  0  0  0  0  0  0  0  0  0  0  0
    1.1553    1.6563    0.0000 H   0  0  0  0  0  0  0  0  0  0  0  0
    0.4869    2.9828    0.0000 H   0  0  0  0  0  0  0  0  0  0  0  0
    0.4689    2.1686    0.0000 H   0  0  0  0  0  0  0  0  0  0  0  0
    1.1952    4.2099    0.0000 H   0  0  0  0  0  0  0  0  0  0  0  0
   -0.2353    4.2072    0.0000 H   0  0  0  0  0  0  0  0  0  0  0  0
    2.5417    4.3277    0.0000 H   0  0  0  0  0  0  0  0  0  0  0  0
    2.0529    4.6098    0.0000 H   0  0  0  0  0  0  0  0  0  0  0  0
    3.3386    2.9724    0.0000 H   0  0  0  0  0  0  0  0  0  0  0  0
    4.0658    4.1870    0.0000 H   0  0  0  0  0  0  0  0  0  0  0  0
    4.1139    1.8652    0.0000 H   0  0  0  0  0  0  0  0  0  0  0  0
    4.1139    2.4295    0.0000 H   0  0  0  0  0  0  0  0  0  0  0  0
  1  2  1  0  0  0  0
  2  3  1  0  0  0  0
  3  4  1  0  0  0  0
  4  5  1  0  0  0  0
  5  6  1  0  0  0  0
  6  7  1  0  0  0  0
  6  8  1  0  0  0  0
  6  9  1  0  0  0  0
  2 10  1  0  0  0  0
 10 11  1  0  0  0  0
 11 12  1  0  0  0  0
 12 13  1  0  0  0  0
 13 14  1  0  0  0  0
 14 15  1  0  0  0  0
 15 16  1  0  0  0  0
 16 17  1  0  0  0  0
 17 18  1  0  0  0  0
 10 18  1  0  0  0  0
 13 18  1  0  0  0  0
 18 19  1  0  0  0  0
 14 20  2  0  0  0  0
 20 21  1  4  0  0  0
 21 22  2  0  0  0  0
 22 23  1  4  0  0  0
 23 24  1  0  0  0  0
 24 25  1  0  0  0  0
 24 26  1  0  0  0  0
 26 27  1  0  0  0  0
 27 28  1  0  0  0  0
 27 29  1  0  0  0  0
 22 29  1  0  0  0  0
 29 30  2  0  0  0  0
  1 31  1  0  0  0  0
  1 32  1  0  0  0  0
  1 33  1  0  0  0  0
  2 34  1  0  0  0  0
  3 35  1  0  0  0  0
  3 36  1  0  0  0  0
  4 37  1  0  0  0  0
  4 38  1  0  0  0  0
  5 39  1  0  0  0  0
  5 40  1  0  0  0  0
  7 41  1  0  0  0  0
  7 42  1  0  0  0  0
  7 43  1  0  0  0  0
  8 44  1  0  0  0  0
  8 45  1  0  0  0  0
  8 46  1  0  0  0  0
  9 47  1  0  0  0  0
 10 48  1  0  0  0  0
 11 49  1  0  0  0  0
 11 50  1  0  0  0  0
 12 51  1  0  0  0  0
 12 52  1  0  0  0  0
 13 53  1  0  0  0  0
 15 54  1  0  0  0  0
 15 55  1  0  0  0  0
 16 56  1  0  0  0  0
 16 57  1  0  0  0  0
 17 58  1  0  0  0  0
 17 59  1  0  0  0  0
 19 60  1  0  0  0  0
 19 61  1  0  0  0  0
 19 62  1  0  0  0  0
 20 63  1  0  0  0  0
 21 64  1  0  0  0  0
 23 65  1  0  0  0  0
 23 66  1  0  0  0  0
 24 67  1  0  0  0  0
 25 68  1  0  0  0  0
 26 69  1  0  0  0  0
 26 70  1  0  0  0  0
 27 71  1  0  0  0  0
 28 72  1  0  0  0  0
 30 73  1  0  0  0  0
 30 74  1  0  0  0  0
M  END
>  <InChIKey>
InChI=1S/C27H44O3/c1-18(8-6-14-26(3,4)30)23-12-13-24-20(9-7-15-27(23,24)5)10-11-21-16-22(28)17-25(29)19(21)2/h10-11,18,22-25,28-30H,2,6-9,12-17H2,1,3-5H3

>  <CASRN>
32222-06-3

> <Outcome>
0

>  <Index>
1570

>  <StandardizerResult>
Clear Stereo (ID: ClearStereo)
Wedge Clean (ID: WedgeClean)
Mesomerize (ID: Mesomerize)
Tautomerize (ID: Tautomerize)
Add Explicit Hydrogens (ID: AddExplicitH)
Neutralize (ID: Neutralize)
Clean 2D (ID: Clean2D)

> <knn Distance>
4.24264049530029

> <CpId>
1570

$$$$
1686
  Mrv1532301301811342D          

123130  0  0  0  0            999 V2000
   14.8831    0.5637    0.0000 C   0  0  0  0  0  0  0  0  0  0  0  0
   14.0710    0.4185    0.0000 C   0  0  0  0  0  0  0  0  0  0  0  0
   13.7907   -0.3574    0.0000 O   0  0  0  0  0  0  0  0  0  0  0  0
   12.9786   -0.5027    0.0000 C   0  0  0  0  0  0  0  0  0  0  0  0
   12.4468    0.1281    0.0000 C   0  0  0  0  0  0  0  0  0  0  0  0
   12.7271    0.9040    0.0000 C   0  0  0  0  0  0  0  0  0  0  0  0
   12.1953    1.5347    0.0000 O   0  0  0  0  0  0  0  0  0  0  0  0
   12.4756    2.3106    0.0000 C   0  0  0  0  0  0  0  0  0  0  0  0
   11.9437    2.9413    0.0000 C   0  0  0  0  0  0  0  0  0  0  0  0
   13.2877    2.4558    0.0000 O   0  0  0  0  0  0  0  0  0  0  0  0
   13.5392    1.0492    0.0000 C   0  0  0  0  0  0  0  0  0  0  0  0
   13.8195    1.8251    0.0000 O   0  0  0  0  0  0  0  0  0  0  0  0
   12.6983   -1.2786    0.0000 O   0  0  0  0  0  0  0  0  0  0  0  0
   11.8862   -1.4238    0.0000 C   0  0  0  0  0  0  0  0  0  0  0  0
   11.6059   -2.1997    0.0000 C   0  0  0  0  0  0  0  0  0  0  0  0
   12.1377   -2.8304    0.0000 O   0  0  0  0  0  0  0  0  0  0  0  0
   10.7938   -2.3449    0.0000 C   0  0  0  0  0  0  0  0  0  0  0  0
   10.2619   -1.7142    0.0000 C   0  0  0  0  0  0  0  0  0  0  0  0
    9.4498   -1.8594    0.0000 O   0  0  0  0  0  0  0  0  0  0  0  0
    8.9180   -1.2287    0.0000 C   0  0  0  0  0  0  0  0  0  0  0  0
    8.1059   -1.3739    0.0000 C   0  0  0  0  0  0  0  0  0  0  0  0
    7.8256   -2.1499    0.0000 O   0  0  0  0  0  0  0  0  0  0  0  0
    7.5741   -0.7432    0.0000 C   0  0  0  0  0  0  0  0  0  0  0  0
    7.8544    0.0327    0.0000 C   0  0  0  0  0  0  0  0  0  0  0  0
    7.3225    0.6634    0.0000 O   0  0  0  0  0  0  0  0  0  0  0  0
    6.5104    0.5182    0.0000 C   0  0  0  0  0  0  0  0  0  0  0  0
    6.2301   -0.2577    0.0000 C   0  0  0  0  0  0  0  0  0  0  0  0
    5.4180   -0.4030    0.0000 C   0  0  0  0  0  0  0  0  0  0  0  0
    4.8862    0.2278    0.0000 C   0  0  0  0  0  0  0  0  0  0  0  0
    4.6059   -0.5482    0.0000 C   0  0  0  0  0  0  0  0  0  0  0  0
    5.1665    1.0037    0.0000 C   0  0  0  0  0  0  0  0  0  0  0  0
    4.6347    1.6344    0.0000 C   0  0  0  0  0  0  0  0  0  0  0  0
    3.8226    1.4892    0.0000 C   0  0  0  0  0  0  0  0  0  0  0  0
    3.5423    0.7132    0.0000 C   0  0  0  0  0  0  0  0  0  0  0  0
    4.0741    0.0825    0.0000 C   0  0  0  0  0  0  0  0  0  0  0  0
    3.7938   -0.6934    0.0000 C   0  0  0  0  0  0  0  0  0  0  0  0
    2.9817   -0.8386    0.0000 C   0  0  0  0  0  0  0  0  0  0  0  0
    2.4498   -0.2079    0.0000 C   0  0  0  0  0  0  0  0  0  0  0  0
    2.0900   -0.9503    0.0000 C   0  0  0  0  0  0  0  0  0  0  0  0
    1.6253   -0.1811    0.0000 C   0  0  0  0  0  0  0  0  0  0  0  0
    1.3960    0.6114    0.0000 C   0  0  0  0  0  0  0  0  0  0  0  0
    2.0788    1.0744    0.0000 C   0  0  0  0  0  0  0  0  0  0  0  0
    2.7301    0.5680    0.0000 C   0  0  0  0  0  0  0  0  0  0  0  0
    2.9278    1.3690    0.0000 O   0  0  0  0  0  0  0  0  0  0  0  0
    1.1189   -0.8324    0.0000 C   0  0  0  0  0  0  0  0  0  0  0  0
    1.3482   -1.6249    0.0000 C   0  0  0  0  0  0  0  0  0  0  0  0
    0.6654   -2.0879    0.0000 C   0  0  0  0  0  0  0  0  0  0  0  0
    0.6386   -2.9125    0.0000 O   0  0  0  0  0  0  0  0  0  0  0  0
    0.0140   -1.5815    0.0000 O   0  0  0  0  0  0  0  0  0  0  0  0
    0.2943   -0.8056    0.0000 C   0  0  0  0  0  0  0  0  0  0  0  0
    5.9786    1.1489    0.0000 C   0  0  0  0  0  0  0  0  0  0  0  0
    8.6665    0.1779    0.0000 O   0  0  0  0  0  0  0  0  0  0  0  0
    9.1983   -0.4528    0.0000 C   0  0  0  0  0  0  0  0  0  0  0  0
   10.0104   -0.3076    0.0000 C   0  0  0  0  0  0  0  0  0  0  0  0
   10.5422   -0.9383    0.0000 O   0  0  0  0  0  0  0  0  0  0  0  0
   11.3544   -0.7931    0.0000 C   0  0  0  0  0  0  0  0  0  0  0  0
   11.6347   -0.0172    0.0000 C   0  0  0  0  0  0  0  0  0  0  0  0
   15.0284   -0.2484    0.0000 H   0  0  0  0  0  0  0  0  0  0  0  0
   15.6953    0.7089    0.0000 H   0  0  0  0  0  0  0  0  0  0  0  0
   14.7379    1.3758    0.0000 H   0  0  0  0  0  0  0  0  0  0  0  0
   14.3513    1.1944    0.0000 H   0  0  0  0  0  0  0  0  0  0  0  0
   12.1665   -0.6479    0.0000 H   0  0  0  0  0  0  0  0  0  0  0  0
   11.9150    0.7588    0.0000 H   0  0  0  0  0  0  0  0  0  0  0  0
   13.2589    0.2733    0.0000 H   0  0  0  0  0  0  0  0  0  0  0  0
   13.0074    1.6799    0.0000 H   0  0  0  0  0  0  0  0  0  0  0  0
   12.5744    3.4731    0.0000 H   0  0  0  0  0  0  0  0  0  0  0  0
   11.4119    3.5720    0.0000 H   0  0  0  0  0  0  0  0  0  0  0  0
   11.3130    2.4095    0.0000 H   0  0  0  0  0  0  0  0  0  0  0  0
   14.1699    1.5810    0.0000 H   0  0  0  0  0  0  0  0  0  0  0  0
   14.3754    2.4347    0.0000 H   0  0  0  0  0  0  0  0  0  0  0  0
   11.0741   -1.5690    0.0000 H   0  0  0  0  0  0  0  0  0  0  0  0
   12.4180   -2.0545    0.0000 H   0  0  0  0  0  0  0  0  0  0  0  0
   12.2829   -3.6425    0.0000 H   0  0  0  0  0  0  0  0  0  0  0  0
   10.1950   -2.9125    0.0000 H   0  0  0  0  0  0  0  0  0  0  0  0
   10.8915   -3.1641    0.0000 H   0  0  0  0  0  0  0  0  0  0  0  0
    9.7301   -1.0835    0.0000 H   0  0  0  0  0  0  0  0  0  0  0  0
    8.6377   -2.0047    0.0000 H   0  0  0  0  0  0  0  0  0  0  0  0
    7.2938   -1.5192    0.0000 H   0  0  0  0  0  0  0  0  0  0  0  0
    7.5453   -2.9258    0.0000 H   0  0  0  0  0  0  0  0  0  0  0  0
    6.9408   -0.2145    0.0000 H   0  0  0  0  0  0  0  0  0  0  0  0
    6.7491   -0.7452    0.0000 H   0  0  0  0  0  0  0  0  0  0  0  0
    8.1347    0.8086    0.0000 H   0  0  0  0  0  0  0  0  0  0  0  0
    6.7907    1.2941    0.0000 H   0  0  0  0  0  0  0  0  0  0  0  0
    5.9953   -1.0486    0.0000 H   0  0  0  0  0  0  0  0  0  0  0  0
    5.6983    0.3730    0.0000 H   0  0  0  0  0  0  0  0  0  0  0  0
    4.8954   -1.0413    0.0000 H   0  0  0  0  0  0  0  0  0  0  0  0
    5.4360   -1.2278    0.0000 H   0  0  0  0  0  0  0  0  0  0  0  0
    3.9532   -1.0528    0.0000 H   0  0  0  0  0  0  0  0  0  0  0  0
    4.2608   -1.2976    0.0000 H   0  0  0  0  0  0  0  0  0  0  0  0
    4.6469   -1.3722    0.0000 H   0  0  0  0  0  0  0  0  0  0  0  0
    5.4468    1.7796    0.0000 H   0  0  0  0  0  0  0  0  0  0  0  0
    4.7760    2.4472    0.0000 H   0  0  0  0  0  0  0  0  0  0  0  0
    4.2205    2.3479    0.0000 H   0  0  0  0  0  0  0  0  0  0  0  0
    3.3331    2.1533    0.0000 H   0  0  0  0  0  0  0  0  0  0  0  0
    4.3544    0.8585    0.0000 H   0  0  0  0  0  0  0  0  0  0  0  0
    3.2620   -0.0627    0.0000 H   0  0  0  0  0  0  0  0  0  0  0  0
    4.2193   -0.7296    0.0000 H   0  0  0  0  0  0  0  0  0  0  0  0
    3.2077   -1.2740    0.0000 H   0  0  0  0  0  0  0  0  0  0  0  0
    3.6410   -1.5041    0.0000 H   0  0  0  0  0  0  0  0  0  0  0  0
    2.3872   -1.4107    0.0000 H   0  0  0  0  0  0  0  0  0  0  0  0
    2.8479   -1.6527    0.0000 H   0  0  0  0  0  0  0  0  0  0  0  0
    1.2875   -0.7586    0.0000 H   0  0  0  0  0  0  0  0  0  0  0  0
    1.3903   -1.3874    0.0000 H   0  0  0  0  0  0  0  0  0  0  0  0
    1.9103   -1.7555    0.0000 H   0  0  0  0  0  0  0  0  0  0  0  0
    0.8150   -0.0256    0.0000 H   0  0  0  0  0  0  0  0  0  0  0  0
    1.1221    1.3896    0.0000 H   0  0  0  0  0  0  0  0  0  0  0  0
    0.6649    0.9938    0.0000 H   0  0  0  0  0  0  0  0  0  0  0  0
    2.0073    1.8963    0.0000 H   0  0  0  0  0  0  0  0  0  0  0  0
    1.4628    1.6231    0.0000 H   0  0  0  0  0  0  0  0  0  0  0  0
    2.3876    1.9925    0.0000 H   0  0  0  0  0  0  0  0  0  0  0  0
    1.4990   -2.4360    0.0000 H   0  0  0  0  0  0  0  0  0  0  0  0
   -0.2541   -0.1893    0.0000 H   0  0  0  0  0  0  0  0  0  0  0  0
   -0.5272   -0.7301    0.0000 H   0  0  0  0  0  0  0  0  0  0  0  0
    6.5074    1.7822    0.0000 H   0  0  0  0  0  0  0  0  0  0  0  0
    5.9766    1.9739    0.0000 H   0  0  0  0  0  0  0  0  0  0  0  0
    9.4786    0.3231    0.0000 H   0  0  0  0  0  0  0  0  0  0  0  0
   10.8325   -0.3775    0.0000 H   0  0  0  0  0  0  0  0  0  0  0  0
   10.6411    0.2242    0.0000 H   0  0  0  0  0  0  0  0  0  0  0  0
   10.0803    0.5144    0.0000 H   0  0  0  0  0  0  0  0  0  0  0  0
   11.1297    0.0007    0.0000 H   0  0  0  0  0  0  0  0  0  0  0  0
   11.4061    0.7756    0.0000 H   0  0  0  0  0  0  0  0  0  0  0  0
   10.9843    0.4905    0.0000 H   0  0  0  0  0  0  0  0  0  0  0  0
   12.4106   -0.2975    0.0000 H   0  0  0  0  0  0  0  0  0  0  0  0
  1  2  1  0  0  0  0
  2  3  1  0  0  0  0
  3  4  1  0  0  0  0
  4  5  1  0  0  0  0
  5  6  1  0  0  0  0
  6  7  1  0  0  0  0
  7  8  1  0  0  0  0
  8  9  1  0  0  0  0
  8 10  2  0  0  0  0
  6 11  1  0  0  0  0
  2 11  1  0  0  0  0
 11 12  1  0  0  0  0
  4 13  1  0  0  0  0
 13 14  1  0  0  0  0
 14 15  1  0  0  0  0
 15 16  1  0  0  0  0
 15 17  1  0  0  0  0
 17 18  1  0  0  0  0
 18 19  1  0  0  0  0
 19 20  1  0  0  0  0
 20 21  1  0  0  0  0
 21 22  1  0  0  0  0
 21 23  1  0  0  0  0
 23 24  1  0  0  0  0
 24 25  1  0  0  0  0
 25 26  1  0  0  0  0
 26 27  1  0  0  0  0
 27 28  1  0  0  0  0
 28 29  1  0  0  0  0
 29 30  1  0  0  0  0
 29 31  1  0  0  0  0
 31 32  1  0  0  0  0
 32 33  1  0  0  0  0
 33 34  1  0  0  0  0
 34 35  1  0  0  0  0
 29 35  1  0  0  0  0
 35 36  1  0  0  0  0
 36 37  1  0  0  0  0
 37 38  1  0  0  0  0
 38 39  1  0  0  0  0
 38 40  1  0  0  0  0
 40 41  1  0  0  0  0
 41 42  1  0  0  0  0
 42 43  1  0  0  0  0
 34 43  1  0  0  0  0
 38 43  1  0  0  0  0
 43 44  1  0  0  0  0
 40 45  1  0  0  0  0
 45 46  2  0  0  0  0
 46 47  1  0  0  0  0
 47 48  2  0  0  0  0
 47 49  1  0  0  0  0
 49 50  1  0  0  0  0
 45 50  1  0  0  0  0
 31 51  1  0  0  0  0
 26 51  1  0  0  0  0
 24 52  1  0  0  0  0
 52 53  1  0  0  0  0
 20 53  1  0  0  0  0
 53 54  1  0  0  0  0
 18 55  1  0  0  0  0
 55 56  1  0  0  0  0
 14 56  1  0  0  0  0
 56 57  1  0  0  0  0
  1 58  1  0  0  0  0
  1 59  1  0  0  0  0
  1 60  1  0  0  0  0
  2 61  1  0  0  0  0
  4 62  1  0  0  0  0
  5 63  1  0  0  0  0
  5 64  1  0  0  0  0
  6 65  1  0  0  0  0
  9 66  1  0  0  0  0
  9 67  1  0  0  0  0
  9 68  1  0  0  0  0
 11 69  1  0  0  0  0
 12 70  1  0  0  0  0
 14 71  1  0  0  0  0
 15 72  1  0  0  0  0
 16 73  1  0  0  0  0
 17 74  1  0  0  0  0
 17 75  1  0  0  0  0
 18 76  1  0  0  0  0
 20 77  1  0  0  0  0
 21 78  1  0  0  0  0
 22 79  1  0  0  0  0
 23 80  1  0  0  0  0
 23 81  1  0  0  0  0
 24 82  1  0  0  0  0
 26 83  1  0  0  0  0
 27 84  1  0  0  0  0
 27 85  1  0  0  0  0
 28 86  1  0  0  0  0
 28 87  1  0  0  0  0
 30 88  1  0  0  0  0
 30 89  1  0  0  0  0
 30 90  1  0  0  0  0
 31 91  1  0  0  0  0
 32 92  1  0  0  0  0
 32 93  1  0  0  0  0
 33 94  1  0  0  0  0
 33 95  1  0  0  0  0
 34 96  1  0  0  0  0
 35 97  1  0  0  0  0
 36 98  1  0  0  0  0
 36 99  1  0  0  0  0
 37100  1  0  0  0  0
 37101  1  0  0  0  0
 39102  1  0  0  0  0
 39103  1  0  0  0  0
 39104  1  0  0  0  0
 40105  1  0  0  0  0
 41106  1  0  0  0  0
 41107  1  0  0  0  0
 42108  1  0  0  0  0
 42109  1  0  0  0  0
 44110  1  0  0  0  0
 46111  1  0  0  0  0
 50112  1  0  0  0  0
 50113  1  0  0  0  0
 51114  1  0  0  0  0
 51115  1  0  0  0  0
 53116  1  0  0  0  0
 54117  1  0  0  0  0
 54118  1  0  0  0  0
 54119  1  0  0  0  0
 56120  1  0  0  0  0
 57121  1  0  0  0  0
 57122  1  0  0  0  0
 57123  1  0  0  0  0
M  END
>  <InChIKey>
InChI=1S/C43H66O14/c1-21-38(48)33(54-24(4)44)19-37(51-21)57-40-23(3)53-36(18-32(40)46)56-39-22(2)52-35(17-31(39)45)55-27-9-12-41(5)26(16-27)7-8-30-29(41)10-13-42(6)28(11-14-43(30,42)49)25-15-34(47)50-20-25/h15,21-23,26-33,35-40,45-46,48-49H,7-14,16-20H2,1-6H3

>  <CASRN>
1111-39-3

> <Outcome>
0

>  <Index>
1686

>  <StandardizerResult>
Clear Stereo (ID: ClearStereo)
Wedge Clean (ID: WedgeClean)
Mesomerize (ID: Mesomerize)
Tautomerize (ID: Tautomerize)
Add Explicit Hydrogens (ID: AddExplicitH)
Neutralize (ID: Neutralize)
Clean 2D (ID: Clean2D)

> <knn Distance>
4.24264049530029

> <CpId>
1686

$$$$
1741
  Mrv1532301301811342D          

 30 30  0  0  0  0            999 V2000
    0.7145   -3.7125    0.0000 N   0  0  0  0  0  0  0  0  0  0  0  0
    1.4289   -4.1250    0.0000 C   0  0  0  0  0  0  0  0  0  0  0  0
    1.4289   -4.9500    0.0000 N   0  0  0  0  0  0  0  0  0  0  0  0
    2.1434   -3.7125    0.0000 N   0  0  0  0  0  0  0  0  0  0  0  0
    2.8579   -4.1250    0.0000 C   0  0  0  0  0  0  0  0  0  0  0  0
    2.8579   -4.9500    0.0000 N   0  0  0  0  0  0  0  0  0  0  0  0
    3.5723   -3.7125    0.0000 N   0  0  0  0  0  0  0  0  0  0  0  0
    4.2868   -4.1250    0.0000 C   0  0  0  0  0  0  0  0  0  0  0  0
    5.0013   -3.7125    0.0000 C   0  0  0  0  0  0  0  0  0  0  0  0
    5.7158   -4.1250    0.0000 C   0  0  0  0  0  0  0  0  0  0  0  0
    6.4302   -3.7125    0.0000 C   0  0  0  0  0  0  0  0  0  0  0  0
    7.1447   -4.1250    0.0000 C   0  0  0  0  0  0  0  0  0  0  0  0
    7.1447   -4.9500    0.0000 C   0  0  0  0  0  0  0  0  0  0  0  0
    6.4302   -5.3625    0.0000 C   0  0  0  0  0  0  0  0  0  0  0  0
    5.7158   -4.9500    0.0000 C   0  0  0  0  0  0  0  0  0  0  0  0
    0.7145   -2.8875    0.0000 H   0  0  0  0  0  0  0  0  0  0  0  0
   -0.0000   -4.1250    0.0000 H   0  0  0  0  0  0  0  0  0  0  0  0
    0.7145   -5.3625    0.0000 H   0  0  0  0  0  0  0  0  0  0  0  0
    2.1434   -2.8875    0.0000 H   0  0  0  0  0  0  0  0  0  0  0  0
    2.1434   -5.3625    0.0000 H   0  0  0  0  0  0  0  0  0  0  0  0
    3.5723   -2.8875    0.0000 H   0  0  0  0  0  0  0  0  0  0  0  0
    3.9166   -4.8622    0.0000 H   0  0  0  0  0  0  0  0  0  0  0  0
    4.6571   -4.8622    0.0000 H   0  0  0  0  0  0  0  0  0  0  0  0
    5.3716   -2.9753    0.0000 H   0  0  0  0  0  0  0  0  0  0  0  0
    4.6310   -2.9753    0.0000 H   0  0  0  0  0  0  0  0  0  0  0  0
    6.4302   -2.8875    0.0000 H   0  0  0  0  0  0  0  0  0  0  0  0
    7.8592   -3.7125    0.0000 H   0  0  0  0  0  0  0  0  0  0  0  0
    7.8592   -5.3625    0.0000 H   0  0  0  0  0  0  0  0  0  0  0  0
    6.4302   -6.1875    0.0000 H   0  0  0  0  0  0  0  0  0  0  0  0
    5.0013   -5.3625    0.0000 H   0  0  0  0  0  0  0  0  0  0  0  0
  1  2  1  0  0  0  0
  2  3  2  0  0  0  0
  2  4  1  0  0  0  0
  4  5  1  0  0  0  0
  5  6  2  0  0  0  0
  5  7  1  0  0  0  0
  7  8  1  0  0  0  0
  8  9  1  0  0  0  0
  9 10  1  0  0  0  0
 10 11  4  0  0  0  0
 11 12  4  0  0  0  0
 12 13  4  0  0  0  0
 13 14  4  0  0  0  0
 14 15  4  0  0  0  0
 10 15  4  0  0  0  0
  1 16  1  0  0  0  0
  1 17  1  0  0  0  0
  3 18  1  0  0  0  0
  4 19  1  0  0  0  0
  6 20  1  0  0  0  0
  7 21  1  0  0  0  0
  8 22  1  0  0  0  0
  8 23  1  0  0  0  0
  9 24  1  0  0  0  0
  9 25  1  0  0  0  0
 11 26  1  0  0  0  0
 12 27  1  0  0  0  0
 13 28  1  0  0  0  0
 14 29  1  0  0  0  0
 15 30  1  0  0  0  0
M  END
>  <InChIKey>
InChI=1S/C10H15N5/c11-9(12)15-10(13)14-7-6-8-4-2-1-3-5-8/h1-5H,6-7H2,(H6,11,12,13,14,15)

>  <CASRN>
114-86-3

> <Outcome>
0

>  <Index>
1741

>  <StandardizerResult>
Dearomatize (ID: Dearomatize)
Clear Stereo (ID: ClearStereo)
Wedge Clean (ID: WedgeClean)
Mesomerize (ID: Mesomerize)
Tautomerize (ID: Tautomerize)
Aromatize (ID: Aromatize)
Add Explicit Hydrogens (ID: AddExplicitH)
Neutralize (ID: Neutralize)
Clean 2D (ID: Clean2D)

> <knn Distance>
4.24264049530029

> <CpId>
1741

$$$$
1784
  Mrv1532301301811342D          

 33 34  0  0  0  0            999 V2000
    0.1755   -1.3985    0.0000 C   0  0  0  0  0  0  0  0  0  0  0  0
   -0.3548   -0.7665    0.0000 N   0  0  0  0  0  0  0  0  0  0  0  0
   -0.0726    0.0087    0.0000 C   0  0  0  0  0  0  0  0  0  0  0  0
   -0.8851    0.1520    0.0000 C   0  0  0  0  0  0  0  0  0  0  0  0
    0.6419   -0.4038    0.0000 C   0  0  0  0  0  0  0  0  0  0  0  0
    1.3563    0.0087    0.0000 C   0  0  0  0  0  0  0  0  0  0  0  0
    1.3563    0.8337    0.0000 C   0  0  0  0  0  0  0  0  0  0  0  0
    0.6419    1.2462    0.0000 C   0  0  0  0  0  0  0  0  0  0  0  0
    0.4356    0.4212    0.0000 C   0  0  0  0  0  0  0  0  0  0  0  0
   -0.0726    0.8337    0.0000 C   0  0  0  0  0  0  0  0  0  0  0  0
   -0.5098    1.5333    0.0000 C   0  0  0  0  0  0  0  0  0  0  0  0
   -0.8971    0.8625    0.0000 C   0  0  0  0  0  0  0  0  0  0  0  0
   -0.4564   -1.9288    0.0000 H   0  0  0  0  0  0  0  0  0  0  0  0
    0.7058   -2.0305    0.0000 H   0  0  0  0  0  0  0  0  0  0  0  0
    0.8075   -0.8682    0.0000 H   0  0  0  0  0  0  0  0  0  0  0  0
   -1.1672   -0.9098    0.0000 H   0  0  0  0  0  0  0  0  0  0  0  0
   -1.6371    0.4911    0.0000 H   0  0  0  0  0  0  0  0  0  0  0  0
   -1.5125   -0.3837    0.0000 H   0  0  0  0  0  0  0  0  0  0  0  0
   -0.6682   -0.6440    0.0000 H   0  0  0  0  0  0  0  0  0  0  0  0
    0.0082   -0.9321    0.0000 H   0  0  0  0  0  0  0  0  0  0  0  0
    1.8097   -0.6806    0.0000 H   0  0  0  0  0  0  0  0  0  0  0  0
    2.1800   -0.0393    0.0000 H   0  0  0  0  0  0  0  0  0  0  0  0
    2.1800    0.8817    0.0000 H   0  0  0  0  0  0  0  0  0  0  0  0
    1.8097    1.5230    0.0000 H   0  0  0  0  0  0  0  0  0  0  0  0
    0.6419    2.0712    0.0000 H   0  0  0  0  0  0  0  0  0  0  0  0
    1.1814    0.0684    0.0000 H   0  0  0  0  0  0  0  0  0  0  0  0
    1.1814    0.7740    0.0000 H   0  0  0  0  0  0  0  0  0  0  0  0
    0.2813    1.7677    0.0000 H   0  0  0  0  0  0  0  0  0  0  0  0
   -0.5242    2.3582    0.0000 H   0  0  0  0  0  0  0  0  0  0  0  0
   -1.3085    1.7399    0.0000 H   0  0  0  0  0  0  0  0  0  0  0  0
   -1.5781    1.3282    0.0000 H   0  0  0  0  0  0  0  0  0  0  0  0
   -1.7202    0.9180    0.0000 H   0  0  0  0  0  0  0  0  0  0  0  0
   -0.3190    0.2739    0.0000 H   0  0  0  0  0  0  0  0  0  0  0  0
  1  2  1  0  0  0  0
  2  3  1  0  0  0  0
  3  4  1  0  0  0  0
  3  5  1  0  0  0  0
  5  6  1  0  0  0  0
  6  7  1  0  0  0  0
  7  8  1  0  0  0  0
  8  9  1  0  0  0  0
  5  9  1  0  0  0  0
  8 10  1  0  0  0  0
  3 10  1  0  0  0  0
 10 11  1  0  0  0  0
 10 12  1  0  0  0  0
  1 13  1  0  0  0  0
  1 14  1  0  0  0  0
  1 15  1  0  0  0  0
  2 16  1  0  0  0  0
  4 17  1  0  0  0  0
  4 18  1  0  0  0  0
  4 19  1  0  0  0  0
  5 20  1  0  0  0  0
  6 21  1  0  0  0  0
  6 22  1  0  0  0  0
  7 23  1  0  0  0  0
  7 24  1  0  0  0  0
  8 25  1  0  0  0  0
  9 26  1  0  0  0  0
  9 27  1  0  0  0  0
 11 28  1  0  0  0  0
 11 29  1  0  0  0  0
 11 30  1  0  0  0  0
 12 31  1  0  0  0  0
 12 32  1  0  0  0  0
 12 33  1  0  0  0  0
M  END
>  <InChIKey>
InChI=1S/C11H21N/c1-10(2)8-5-6-9(7-8)11(10,3)12-4/h8-9,12H,5-7H2,1-4H3

>  <CASRN>
60-40-2

> <Outcome>
0

>  <Index>
1784

>  <StandardizerResult>
Clear Stereo (ID: ClearStereo)
Wedge Clean (ID: WedgeClean)
Mesomerize (ID: Mesomerize)
Tautomerize (ID: Tautomerize)
Add Explicit Hydrogens (ID: AddExplicitH)
Neutralize (ID: Neutralize)
Clean 2D (ID: Clean2D)

> <knn Distance>
4.24264049530029

> <CpId>
1784

$$$$
1805
  Mrv1532301301811342D          

 30 30  0  0  0  0            999 V2000
    2.1881    3.6901    0.0000 C   0  0  0  0  0  0  0  0  0  0  0  0
    1.4736    3.2776    0.0000 N   0  0  0  0  0  0  0  0  0  0  0  0
    1.4736    2.4526    0.0000 C   0  0  0  0  0  0  0  0  0  0  0  0
    2.1881    2.0401    0.0000 O   0  0  0  0  0  0  0  0  0  0  0  0
    0.7592    2.0401    0.0000 O   0  0  0  0  0  0  0  0  0  0  0  0
    0.7592    1.2151    0.0000 C   0  0  0  0  0  0  0  0  0  0  0  0
    1.4736    0.8026    0.0000 C   0  0  0  0  0  0  0  0  0  0  0  0
    1.4736   -0.0224    0.0000 C   0  0  0  0  0  0  0  0  0  0  0  0
    0.7592   -0.4349    0.0000 C   0  0  0  0  0  0  0  0  0  0  0  0
    0.0447   -0.0224    0.0000 C   0  0  0  0  0  0  0  0  0  0  0  0
    0.0447    0.8026    0.0000 C   0  0  0  0  0  0  0  0  0  0  0  0
   -0.6698    1.2151    0.0000 O   0  0  0  0  0  0  0  0  0  0  0  0
   -1.3843    0.8026    0.0000 C   0  0  0  0  0  0  0  0  0  0  0  0
   -1.3843   -0.0224    0.0000 C   0  0  0  0  0  0  0  0  0  0  0  0
   -2.0987    1.2151    0.0000 C   0  0  0  0  0  0  0  0  0  0  0  0
    2.6006    2.9756    0.0000 H   0  0  0  0  0  0  0  0  0  0  0  0
    2.9026    4.1026    0.0000 H   0  0  0  0  0  0  0  0  0  0  0  0
    1.7756    4.4046    0.0000 H   0  0  0  0  0  0  0  0  0  0  0  0
    0.7592    3.6901    0.0000 H   0  0  0  0  0  0  0  0  0  0  0  0
    2.1881    1.2151    0.0000 H   0  0  0  0  0  0  0  0  0  0  0  0
    2.1881   -0.4349    0.0000 H   0  0  0  0  0  0  0  0  0  0  0  0
    0.7592   -1.2599    0.0000 H   0  0  0  0  0  0  0  0  0  0  0  0
   -0.6698   -0.4349    0.0000 H   0  0  0  0  0  0  0  0  0  0  0  0
   -0.6698    0.3901    0.0000 H   0  0  0  0  0  0  0  0  0  0  0  0
   -2.0987    0.3901    0.0000 H   0  0  0  0  0  0  0  0  0  0  0  0
   -2.0987   -0.4349    0.0000 H   0  0  0  0  0  0  0  0  0  0  0  0
   -1.3843   -0.8474    0.0000 H   0  0  0  0  0  0  0  0  0  0  0  0
   -1.5154    1.7985    0.0000 H   0  0  0  0  0  0  0  0  0  0  0  0
   -2.5112    1.9296    0.0000 H   0  0  0  0  0  0  0  0  0  0  0  0
   -2.8956    1.0016    0.0000 H   0  0  0  0  0  0  0  0  0  0  0  0
  1  2  1  0  0  0  0
  2  3  1  0  0  0  0
  3  4  2  0  0  0  0
  3  5  1  0  0  0  0
  5  6  1  0  0  0  0
  6  7  4  0  0  0  0
  7  8  4  0  0  0  0
  8  9  4  0  0  0  0
  9 10  4  0  0  0  0
 10 11  4  0  0  0  0
  6 11  4  0  0  0  0
 11 12  1  0  0  0  0
 12 13  1  0  0  0  0
 13 14  1  0  0  0  0
 13 15  1  0  0  0  0
  1 16  1  0  0  0  0
  1 17  1  0  0  0  0
  1 18  1  0  0  0  0
  2 19  1  0  0  0  0
  7 20  1  0  0  0  0
  8 21  1  0  0  0  0
  9 22  1  0  0  0  0
 10 23  1  0  0  0  0
 13 24  1  0  0  0  0
 14 25  1  0  0  0  0
 14 26  1  0  0  0  0
 14 27  1  0  0  0  0
 15 28  1  0  0  0  0
 15 29  1  0  0  0  0
 15 30  1  0  0  0  0
M  END
>  <InChIKey>
InChI=1S/C11H15NO3/c1-8(2)14-9-6-4-5-7-10(9)15-11(13)12-3/h4-8H,1-3H3,(H,12,13)

>  <CASRN>
114-26-1

> <Outcome>
0

>  <Index>
1805

>  <StandardizerResult>
Dearomatize (ID: Dearomatize)
Clear Stereo (ID: ClearStereo)
Wedge Clean (ID: WedgeClean)
Mesomerize (ID: Mesomerize)
Tautomerize (ID: Tautomerize)
Aromatize (ID: Aromatize)
Add Explicit Hydrogens (ID: AddExplicitH)
Neutralize (ID: Neutralize)
Clean 2D (ID: Clean2D)

> <knn Distance>
4.24264049530029

> <CpId>
1805

$$$$
1813
  Mrv1532301301811342D          

 29 29  0  0  0  0            999 V2000
    1.4289   -4.1256    0.0000 C   0  0  0  0  0  0  0  0  0  0  0  0
    2.1434   -3.7131    0.0000 C   0  0  0  0  0  0  0  0  0  0  0  0
    2.8579   -4.1256    0.0000 C   0  0  0  0  0  0  0  0  0  0  0  0
    3.5724   -3.7131    0.0000 C   0  0  0  0  0  0  0  0  0  0  0  0
    4.2868   -4.1256    0.0000 O   0  0  0  0  0  0  0  0  0  0  0  0
    5.0013   -3.7131    0.0000 C   0  0  0  0  0  0  0  0  0  0  0  0
    5.0013   -2.8881    0.0000 O   0  0  0  0  0  0  0  0  0  0  0  0
    5.7158   -4.1256    0.0000 C   0  0  0  0  0  0  0  0  0  0  0  0
    6.4302   -3.7131    0.0000 C   0  0  0  0  0  0  0  0  0  0  0  0
    7.1447   -4.1256    0.0000 C   0  0  0  0  0  0  0  0  0  0  0  0
    7.1447   -4.9506    0.0000 C   0  0  0  0  0  0  0  0  0  0  0  0
    7.8592   -5.3631    0.0000 N   0  0  0  0  0  0  0  0  0  0  0  0
    6.4302   -5.3631    0.0000 C   0  0  0  0  0  0  0  0  0  0  0  0
    5.7158   -4.9506    0.0000 C   0  0  0  0  0  0  0  0  0  0  0  0
    1.0164   -3.4111    0.0000 H   0  0  0  0  0  0  0  0  0  0  0  0
    0.7145   -4.5381    0.0000 H   0  0  0  0  0  0  0  0  0  0  0  0
    1.8414   -4.8401    0.0000 H   0  0  0  0  0  0  0  0  0  0  0  0
    2.5137   -2.9759    0.0000 H   0  0  0  0  0  0  0  0  0  0  0  0
    1.7732   -2.9759    0.0000 H   0  0  0  0  0  0  0  0  0  0  0  0
    2.4876   -4.8629    0.0000 H   0  0  0  0  0  0  0  0  0  0  0  0
    3.2281   -4.8629    0.0000 H   0  0  0  0  0  0  0  0  0  0  0  0
    3.9426   -2.9759    0.0000 H   0  0  0  0  0  0  0  0  0  0  0  0
    3.2021   -2.9759    0.0000 H   0  0  0  0  0  0  0  0  0  0  0  0
    6.4302   -2.8881    0.0000 H   0  0  0  0  0  0  0  0  0  0  0  0
    7.8592   -3.7131    0.0000 H   0  0  0  0  0  0  0  0  0  0  0  0
    7.8592   -6.1881    0.0000 H   0  0  0  0  0  0  0  0  0  0  0  0
    8.5736   -4.9506    0.0000 H   0  0  0  0  0  0  0  0  0  0  0  0
    6.4302   -6.1881    0.0000 H   0  0  0  0  0  0  0  0  0  0  0  0
    5.0013   -5.3631    0.0000 H   0  0  0  0  0  0  0  0  0  0  0  0
  1  2  1  0  0  0  0
  2  3  1  0  0  0  0
  3  4  1  0  0  0  0
  4  5  1  0  0  0  0
  5  6  1  0  0  0  0
  6  7  2  0  0  0  0
  6  8  1  0  0  0  0
  8  9  4  0  0  0  0
  9 10  4  0  0  0  0
 10 11  4  0  0  0  0
 11 12  1  0  0  0  0
 11 13  4  0  0  0  0
 13 14  4  0  0  0  0
  8 14  4  0  0  0  0
  1 15  1  0  0  0  0
  1 16  1  0  0  0  0
  1 17  1  0  0  0  0
  2 18  1  0  0  0  0
  2 19  1  0  0  0  0
  3 20  1  0  0  0  0
  3 21  1  0  0  0  0
  4 22  1  0  0  0  0
  4 23  1  0  0  0  0
  9 24  1  0  0  0  0
 10 25  1  0  0  0  0
 12 26  1  0  0  0  0
 12 27  1  0  0  0  0
 13 28  1  0  0  0  0
 14 29  1  0  0  0  0
M  END
>  <InChIKey>
InChI=1S/C11H15NO2/c1-2-3-8-14-11(13)9-4-6-10(12)7-5-9/h4-7H,2-3,8,12H2,1H3

>  <CASRN>
94-25-7

> <Outcome>
0

>  <Index>
1813

>  <StandardizerResult>
Dearomatize (ID: Dearomatize)
Clear Stereo (ID: ClearStereo)
Wedge Clean (ID: WedgeClean)
Mesomerize (ID: Mesomerize)
Tautomerize (ID: Tautomerize)
Aromatize (ID: Aromatize)
Add Explicit Hydrogens (ID: AddExplicitH)
Neutralize (ID: Neutralize)
Clean 2D (ID: Clean2D)

> <knn Distance>
4.24264049530029

> <CpId>
1813

$$$$
1836
  Mrv1532301301811342D          

 40 41  0  0  0  0            999 V2000
    0.0365   -4.1163    0.0000 C   0  0  0  0  0  0  0  0  0  0  0  0
    0.7509   -3.7038    0.0000 N   0  0  0  0  0  0  0  0  0  0  0  0
    0.7509   -2.8788    0.0000 C   0  0  0  0  0  0  0  0  0  0  0  0
    1.4654   -4.1163    0.0000 C   0  0  0  0  0  0  0  0  0  0  0  0
    2.1799   -3.7038    0.0000 C   0  0  0  0  0  0  0  0  0  0  0  0
    2.8944   -4.1163    0.0000 O   0  0  0  0  0  0  0  0  0  0  0  0
    3.6088   -3.7038    0.0000 C   0  0  0  0  0  0  0  0  0  0  0  0
    3.6088   -2.8788    0.0000 C   0  0  0  0  0  0  0  0  0  0  0  0
    4.3233   -2.4663    0.0000 C   0  0  0  0  0  0  0  0  0  0  0  0
    5.0378   -2.8788    0.0000 C   0  0  0  0  0  0  0  0  0  0  0  0
    5.0378   -3.7038    0.0000 C   0  0  0  0  0  0  0  0  0  0  0  0
    4.3233   -4.1163    0.0000 C   0  0  0  0  0  0  0  0  0  0  0  0
    4.3233   -4.9413    0.0000 C   0  0  0  0  0  0  0  0  0  0  0  0
    5.0378   -5.3538    0.0000 C   0  0  0  0  0  0  0  0  0  0  0  0
    5.7522   -4.9413    0.0000 C   0  0  0  0  0  0  0  0  0  0  0  0
    6.4667   -5.3538    0.0000 C   0  0  0  0  0  0  0  0  0  0  0  0
    6.4667   -6.1788    0.0000 C   0  0  0  0  0  0  0  0  0  0  0  0
    5.7522   -6.5913    0.0000 C   0  0  0  0  0  0  0  0  0  0  0  0
    5.0378   -6.1788    0.0000 C   0  0  0  0  0  0  0  0  0  0  0  0
   -0.3760   -3.4018    0.0000 H   0  0  0  0  0  0  0  0  0  0  0  0
   -0.6780   -4.5288    0.0000 H   0  0  0  0  0  0  0  0  0  0  0  0
    0.4490   -4.8308    0.0000 H   0  0  0  0  0  0  0  0  0  0  0  0
    1.5759   -2.8788    0.0000 H   0  0  0  0  0  0  0  0  0  0  0  0
    0.7509   -2.0538    0.0000 H   0  0  0  0  0  0  0  0  0  0  0  0
   -0.0741   -2.8788    0.0000 H   0  0  0  0  0  0  0  0  0  0  0  0
    1.0951   -4.8536    0.0000 H   0  0  0  0  0  0  0  0  0  0  0  0
    1.8357   -4.8536    0.0000 H   0  0  0  0  0  0  0  0  0  0  0  0
    2.5501   -2.9666    0.0000 H   0  0  0  0  0  0  0  0  0  0  0  0
    1.8096   -2.9666    0.0000 H   0  0  0  0  0  0  0  0  0  0  0  0
    2.8944   -2.4663    0.0000 H   0  0  0  0  0  0  0  0  0  0  0  0
    4.3233   -1.6413    0.0000 H   0  0  0  0  0  0  0  0  0  0  0  0
    5.7522   -2.4663    0.0000 H   0  0  0  0  0  0  0  0  0  0  0  0
    5.7522   -4.1163    0.0000 H   0  0  0  0  0  0  0  0  0  0  0  0
    3.4997   -4.9893    0.0000 H   0  0  0  0  0  0  0  0  0  0  0  0
    3.8699   -5.6306    0.0000 H   0  0  0  0  0  0  0  0  0  0  0  0
    5.0378   -4.5288    0.0000 H   0  0  0  0  0  0  0  0  0  0  0  0
    7.1812   -4.9413    0.0000 H   0  0  0  0  0  0  0  0  0  0  0  0
    7.1812   -6.5913    0.0000 H   0  0  0  0  0  0  0  0  0  0  0  0
    5.7522   -7.4163    0.0000 H   0  0  0  0  0  0  0  0  0  0  0  0
    4.3233   -6.5913    0.0000 H   0  0  0  0  0  0  0  0  0  0  0  0
  1  2  1  0  0  0  0
  2  3  1  0  0  0  0
  2  4  1  0  0  0  0
  4  5  1  0  0  0  0
  5  6  1  0  0  0  0
  6  7  1  0  0  0  0
  7  8  4  0  0  0  0
  8  9  4  0  0  0  0
  9 10  4  0  0  0  0
 10 11  4  0  0  0  0
 11 12  4  0  0  0  0
  7 12  4  0  0  0  0
 12 13  1  0  0  0  0
 13 14  1  0  0  0  0
 14 15  4  0  0  0  0
 15 16  4  0  0  0  0
 16 17  4  0  0  0  0
 17 18  4  0  0  0  0
 18 19  4  0  0  0  0
 14 19  4  0  0  0  0
  1 20  1  0  0  0  0
  1 21  1  0  0  0  0
  1 22  1  0  0  0  0
  3 23  1  0  0  0  0
  3 24  1  0  0  0  0
  3 25  1  0  0  0  0
  4 26  1  0  0  0  0
  4 27  1  0  0  0  0
  5 28  1  0  0  0  0
  5 29  1  0  0  0  0
  8 30  1  0  0  0  0
  9 31  1  0  0  0  0
 10 32  1  0  0  0  0
 11 33  1  0  0  0  0
 13 34  1  0  0  0  0
 13 35  1  0  0  0  0
 15 36  1  0  0  0  0
 16 37  1  0  0  0  0
 17 38  1  0  0  0  0
 18 39  1  0  0  0  0
 19 40  1  0  0  0  0
M  END
>  <InChIKey>
InChI=1S/C17H21NO/c1-18(2)12-13-19-17-11-7-6-10-16(17)14-15-8-4-3-5-9-15/h3-11H,12-14H2,1-2H3

>  <CASRN>
92-12-6

> <Outcome>
0

>  <Index>
1836

>  <StandardizerResult>
Dearomatize (ID: Dearomatize)
Clear Stereo (ID: ClearStereo)
Wedge Clean (ID: WedgeClean)
Mesomerize (ID: Mesomerize)
Tautomerize (ID: Tautomerize)
Aromatize (ID: Aromatize)
Add Explicit Hydrogens (ID: AddExplicitH)
Neutralize (ID: Neutralize)
Clean 2D (ID: Clean2D)

> <knn Distance>
4.24264049530029

> <CpId>
1836

$$$$
1870
  Mrv1532301301811342D          

 48 49  0  0  0  0            999 V2000
   -3.9206   -1.1907    0.0000 C   0  0  0  0  0  0  0  0  0  0  0  0
   -3.1105   -1.0348    0.0000 C   0  0  0  0  0  0  0  0  0  0  0  0
   -2.5704   -1.6584    0.0000 N   0  0  0  0  0  0  0  0  0  0  0  0
   -2.8404   -2.4380    0.0000 C   0  0  0  0  0  0  0  0  0  0  0  0
   -3.6506   -2.5939    0.0000 C   0  0  0  0  0  0  0  0  0  0  0  0
   -1.7603   -1.5025    0.0000 C   0  0  0  0  0  0  0  0  0  0  0  0
   -1.2202   -2.1262    0.0000 C   0  0  0  0  0  0  0  0  0  0  0  0
   -0.4100   -1.9703    0.0000 O   0  0  0  0  0  0  0  0  0  0  0  0
    0.1300   -2.5939    0.0000 C   0  0  0  0  0  0  0  0  0  0  0  0
   -0.1400   -3.3735    0.0000 O   0  0  0  0  0  0  0  0  0  0  0  0
    0.9402   -2.4380    0.0000 C   0  0  0  0  0  0  0  0  0  0  0  0
    1.4803   -3.0616    0.0000 C   0  0  0  0  0  0  0  0  0  0  0  0
    2.2904   -2.9057    0.0000 C   0  0  0  0  0  0  0  0  0  0  0  0
    2.8305   -3.5294    0.0000 C   0  0  0  0  0  0  0  0  0  0  0  0
    2.5604   -4.3089    0.0000 C   0  0  0  0  0  0  0  0  0  0  0  0
    1.7503   -4.4648    0.0000 C   0  0  0  0  0  0  0  0  0  0  0  0
    1.2102   -3.8412    0.0000 C   0  0  0  0  0  0  0  0  0  0  0  0
    1.2102   -1.6584    0.0000 C   0  0  0  0  0  0  0  0  0  0  0  0
    0.6701   -1.0348    0.0000 C   0  0  0  0  0  0  0  0  0  0  0  0
    0.9402   -0.2552    0.0000 C   0  0  0  0  0  0  0  0  0  0  0  0
    1.7503   -0.0993    0.0000 C   0  0  0  0  0  0  0  0  0  0  0  0
    2.2904   -0.7230    0.0000 C   0  0  0  0  0  0  0  0  0  0  0  0
    2.0204   -1.5025    0.0000 C   0  0  0  0  0  0  0  0  0  0  0  0
   -4.0765   -0.3806    0.0000 H   0  0  0  0  0  0  0  0  0  0  0  0
   -4.7308   -1.3466    0.0000 H   0  0  0  0  0  0  0  0  0  0  0  0
   -3.7647   -2.0008    0.0000 H   0  0  0  0  0  0  0  0  0  0  0  0
   -2.5193   -0.4594    0.0000 H   0  0  0  0  0  0  0  0  0  0  0  0
   -3.2190   -0.2170    0.0000 H   0  0  0  0  0  0  0  0  0  0  0  0
   -2.6377   -3.2377    0.0000 H   0  0  0  0  0  0  0  0  0  0  0  0
   -2.0779   -2.7529    0.0000 H   0  0  0  0  0  0  0  0  0  0  0  0
   -4.4587   -2.4279    0.0000 H   0  0  0  0  0  0  0  0  0  0  0  0
   -4.1132   -3.2770    0.0000 H   0  0  0  0  0  0  0  0  0  0  0  0
   -3.1965   -3.2827    0.0000 H   0  0  0  0  0  0  0  0  0  0  0  0
   -1.1691   -0.9271    0.0000 H   0  0  0  0  0  0  0  0  0  0  0  0
   -1.8688   -0.6847    0.0000 H   0  0  0  0  0  0  0  0  0  0  0  0
   -1.8114   -2.7016    0.0000 H   0  0  0  0  0  0  0  0  0  0  0  0
   -1.1116   -2.9440    0.0000 H   0  0  0  0  0  0  0  0  0  0  0  0
    0.6701   -3.2175    0.0000 H   0  0  0  0  0  0  0  0  0  0  0  0
    2.5604   -2.1262    0.0000 H   0  0  0  0  0  0  0  0  0  0  0  0
    3.6406   -3.3735    0.0000 H   0  0  0  0  0  0  0  0  0  0  0  0
    3.1005   -4.9326    0.0000 H   0  0  0  0  0  0  0  0  0  0  0  0
    1.4803   -5.2444    0.0000 H   0  0  0  0  0  0  0  0  0  0  0  0
    0.5866   -4.3813    0.0000 H   0  0  0  0  0  0  0  0  0  0  0  0
   -0.1400   -1.1907    0.0000 H   0  0  0  0  0  0  0  0  0  0  0  0
    0.4001    0.3684    0.0000 H   0  0  0  0  0  0  0  0  0  0  0  0
    2.0204    0.6802    0.0000 H   0  0  0  0  0  0  0  0  0  0  0  0
    3.1005   -0.5671    0.0000 H   0  0  0  0  0  0  0  0  0  0  0  0
    1.7503   -2.2821    0.0000 H   0  0  0  0  0  0  0  0  0  0  0  0
  1  2  1  0  0  0  0
  2  3  1  0  0  0  0
  3  4  1  0  0  0  0
  4  5  1  0  0  0  0
  3  6  1  0  0  0  0
  6  7  1  0  0  0  0
  7  8  1  0  0  0  0
  8  9  1  0  0  0  0
  9 10  2  0  0  0  0
  9 11  1  0  0  0  0
 11 12  1  0  0  0  0
 12 13  4  0  0  0  0
 13 14  4  0  0  0  0
 14 15  4  0  0  0  0
 15 16  4  0  0  0  0
 16 17  4  0  0  0  0
 12 17  4  0  0  0  0
 11 18  1  0  0  0  0
 18 19  4  0  0  0  0
 19 20  4  0  0  0  0
 20 21  4  0  0  0  0
 21 22  4  0  0  0  0
 22 23  4  0  0  0  0
 18 23  4  0  0  0  0
  1 24  1  0  0  0  0
  1 25  1  0  0  0  0
  1 26  1  0  0  0  0
  2 27  1  0  0  0  0
  2 28  1  0  0  0  0
  4 29  1  0  0  0  0
  4 30  1  0  0  0  0
  5 31  1  0  0  0  0
  5 32  1  0  0  0  0
  5 33  1  0  0  0  0
  6 34  1  0  0  0  0
  6 35  1  0  0  0  0
  7 36  1  0  0  0  0
  7 37  1  0  0  0  0
 11 38  1  0  0  0  0
 13 39  1  0  0  0  0
 14 40  1  0  0  0  0
 15 41  1  0  0  0  0
 16 42  1  0  0  0  0
 17 43  1  0  0  0  0
 19 44  1  0  0  0  0
 20 45  1  0  0  0  0
 21 46  1  0  0  0  0
 22 47  1  0  0  0  0
 23 48  1  0  0  0  0
M  END
>  <InChIKey>
InChI=1S/C20H25NO2/c1-3-21(4-2)15-16-23-20(22)19(17-11-7-5-8-12-17)18-13-9-6-10-14-18/h5-14,19H,3-4,15-16H2,1-2H3

>  <CASRN>
64-95-9

> <Outcome>
0

>  <Index>
1870

>  <StandardizerResult>
Dearomatize (ID: Dearomatize)
Clear Stereo (ID: ClearStereo)
Wedge Clean (ID: WedgeClean)
Mesomerize (ID: Mesomerize)
Tautomerize (ID: Tautomerize)
Aromatize (ID: Aromatize)
Add Explicit Hydrogens (ID: AddExplicitH)
Neutralize (ID: Neutralize)
Clean 2D (ID: Clean2D)

> <knn Distance>
4.24264049530029

> <CpId>
1870

$$$$
1899
  Mrv1532301301811342D          

 24 24  0  0  0  0            999 V2000
   -0.0000   -2.4757    0.0000 C   0  0  0  0  0  0  0  0  0  0  0  0
    0.7145   -2.8882    0.0000 C   0  0  0  0  0  0  0  0  0  0  0  0
    0.7145   -3.7132    0.0000 O   0  0  0  0  0  0  0  0  0  0  0  0
    1.4289   -2.4757    0.0000 C   0  0  0  0  0  0  0  0  0  0  0  0
    2.1434   -2.8882    0.0000 C   0  0  0  0  0  0  0  0  0  0  0  0
    2.1434   -3.7132    0.0000 O   0  0  0  0  0  0  0  0  0  0  0  0
    2.8579   -2.4757    0.0000 N   0  0  0  0  0  0  0  0  0  0  0  0
    3.5724   -2.8882    0.0000 C   0  0  0  0  0  0  0  0  0  0  0  0
    4.2868   -2.4757    0.0000 C   0  0  0  0  0  0  0  0  0  0  0  0
    5.0013   -2.8882    0.0000 C   0  0  0  0  0  0  0  0  0  0  0  0
    5.0013   -3.7132    0.0000 C   0  0  0  0  0  0  0  0  0  0  0  0
    5.7158   -4.1257    0.0000 Cl  0  0  0  0  0  0  0  0  0  0  0  0
    4.2868   -4.1257    0.0000 C   0  0  0  0  0  0  0  0  0  0  0  0
    3.5724   -3.7132    0.0000 C   0  0  0  0  0  0  0  0  0  0  0  0
    0.4125   -1.7613    0.0000 H   0  0  0  0  0  0  0  0  0  0  0  0
   -0.7145   -2.0632    0.0000 H   0  0  0  0  0  0  0  0  0  0  0  0
   -0.4125   -3.1902    0.0000 H   0  0  0  0  0  0  0  0  0  0  0  0
    1.7992   -1.7385    0.0000 H   0  0  0  0  0  0  0  0  0  0  0  0
    1.0587   -1.7385    0.0000 H   0  0  0  0  0  0  0  0  0  0  0  0
    2.8579   -1.6507    0.0000 H   0  0  0  0  0  0  0  0  0  0  0  0
    4.2868   -1.6507    0.0000 H   0  0  0  0  0  0  0  0  0  0  0  0
    5.7158   -2.4757    0.0000 H   0  0  0  0  0  0  0  0  0  0  0  0
    4.2868   -4.9507    0.0000 H   0  0  0  0  0  0  0  0  0  0  0  0
    2.8579   -4.1257    0.0000 H   0  0  0  0  0  0  0  0  0  0  0  0
  1  2  1  0  0  0  0
  2  3  2  0  0  0  0
  2  4  1  0  0  0  0
  4  5  1  0  0  0  0
  5  6  2  0  0  0  0
  5  7  1  0  0  0  0
  7  8  1  0  0  0  0
  8  9  4  0  0  0  0
  9 10  4  0  0  0  0
 10 11  4  0  0  0  0
 11 12  1  0  0  0  0
 11 13  4  0  0  0  0
 13 14  4  0  0  0  0
  8 14  4  0  0  0  0
  1 15  1  0  0  0  0
  1 16  1  0  0  0  0
  1 17  1  0  0  0  0
  4 18  1  0  0  0  0
  4 19  1  0  0  0  0
  7 20  1  0  0  0  0
  9 21  1  0  0  0  0
 10 22  1  0  0  0  0
 13 23  1  0  0  0  0
 14 24  1  0  0  0  0
M  END
>  <InChIKey>
InChI=1S/C10H10ClNO2/c1-7(13)6-10(14)12-9-4-2-8(11)3-5-9/h2-5H,6H2,1H3,(H,12,14)

>  <CASRN>
101-92-8

> <Outcome>
0

>  <Index>
1899

>  <StandardizerResult>
Dearomatize (ID: Dearomatize)
Clear Stereo (ID: ClearStereo)
Wedge Clean (ID: WedgeClean)
Mesomerize (ID: Mesomerize)
Tautomerize (ID: Tautomerize)
Aromatize (ID: Aromatize)
Add Explicit Hydrogens (ID: AddExplicitH)
Neutralize (ID: Neutralize)
Clean 2D (ID: Clean2D)

> <knn Distance>
4.24264049530029

> <CpId>
1899

$$$$
1939
  Mrv1532301301811342D          

 32 32  0  0  0  0            999 V2000
   -0.0092   -2.4797    0.0000 C   0  0  0  0  0  0  0  0  0  0  0  0
    0.7053   -2.8922    0.0000 C   0  0  0  0  0  0  0  0  0  0  0  0
    0.7053   -3.7172    0.0000 C   0  0  0  0  0  0  0  0  0  0  0  0
    1.4198   -2.4797    0.0000 N   0  0  0  0  0  0  0  0  0  0  0  0
    2.1342   -2.8922    0.0000 C   0  0  0  0  0  0  0  0  0  0  0  0
    2.8487   -2.4797    0.0000 C   0  0  0  0  0  0  0  0  0  0  0  0
    2.8487   -1.6547    0.0000 O   0  0  0  0  0  0  0  0  0  0  0  0
    3.5632   -2.8922    0.0000 C   0  0  0  0  0  0  0  0  0  0  0  0
    4.2776   -2.4797    0.0000 C   0  0  0  0  0  0  0  0  0  0  0  0
    4.9921   -2.8922    0.0000 C   0  0  0  0  0  0  0  0  0  0  0  0
    4.9921   -3.7172    0.0000 C   0  0  0  0  0  0  0  0  0  0  0  0
    5.7066   -4.1297    0.0000 O   0  0  0  0  0  0  0  0  0  0  0  0
    4.2776   -4.1297    0.0000 C   0  0  0  0  0  0  0  0  0  0  0  0
    4.2776   -4.9547    0.0000 O   0  0  0  0  0  0  0  0  0  0  0  0
    3.5632   -3.7172    0.0000 C   0  0  0  0  0  0  0  0  0  0  0  0
    0.4033   -1.7652    0.0000 H   0  0  0  0  0  0  0  0  0  0  0  0
   -0.7236   -2.0672    0.0000 H   0  0  0  0  0  0  0  0  0  0  0  0
   -0.4217   -3.1942    0.0000 H   0  0  0  0  0  0  0  0  0  0  0  0
   -0.0092   -3.3047    0.0000 H   0  0  0  0  0  0  0  0  0  0  0  0
    0.1219   -4.3005    0.0000 H   0  0  0  0  0  0  0  0  0  0  0  0
    1.1178   -4.4317    0.0000 H   0  0  0  0  0  0  0  0  0  0  0  0
    1.5022   -3.5037    0.0000 H   0  0  0  0  0  0  0  0  0  0  0  0
    1.4198   -1.6547    0.0000 H   0  0  0  0  0  0  0  0  0  0  0  0
    2.6310   -3.5508    0.0000 H   0  0  0  0  0  0  0  0  0  0  0  0
    2.1342   -2.0672    0.0000 H   0  0  0  0  0  0  0  0  0  0  0  0
    3.5632   -2.0672    0.0000 H   0  0  0  0  0  0  0  0  0  0  0  0
    2.8487   -0.8297    0.0000 H   0  0  0  0  0  0  0  0  0  0  0  0
    4.6901   -1.7652    0.0000 H   0  0  0  0  0  0  0  0  0  0  0  0
    5.7066   -2.4797    0.0000 H   0  0  0  0  0  0  0  0  0  0  0  0
    5.7066   -4.9547    0.0000 H   0  0  0  0  0  0  0  0  0  0  0  0
    3.5632   -5.3672    0.0000 H   0  0  0  0  0  0  0  0  0  0  0  0
    3.2802   -4.4921    0.0000 H   0  0  0  0  0  0  0  0  0  0  0  0
  1  2  1  0  0  0  0
  2  3  1  0  0  0  0
  2  4  1  0  0  0  0
  4  5  1  0  0  0  0
  5  6  1  0  0  0  0
  6  7  1  0  0  0  0
  6  8  1  0  0  0  0
  8  9  4  0  0  0  0
  9 10  4  0  0  0  0
 10 11  4  0  0  0  0
 11 12  1  0  0  0  0
 11 13  4  0  0  0  0
 13 14  1  0  0  0  0
 13 15  4  0  0  0  0
  8 15  4  0  0  0  0
  1 16  1  0  0  0  0
  1 17  1  0  0  0  0
  1 18  1  0  0  0  0
  2 19  1  0  0  0  0
  3 20  1  0  0  0  0
  3 21  1  0  0  0  0
  3 22  1  0  0  0  0
  4 23  1  0  0  0  0
  5 24  1  0  0  0  0
  5 25  1  0  0  0  0
  6 26  1  0  0  0  0
  7 27  1  0  0  0  0
  9 28  1  0  0  0  0
 10 29  1  0  0  0  0
 12 30  1  0  0  0  0
 14 31  1  0  0  0  0
 15 32  1  0  0  0  0
M  END
>  <InChIKey>
InChI=1S/C11H17NO3/c1-7(2)12-6-11(15)8-3-4-9(13)10(14)5-8/h3-5,7,11-15H,6H2,1-2H3

>  <CASRN>
7683-59-2

> <Outcome>
0

>  <Index>
1939

>  <StandardizerResult>
Dearomatize (ID: Dearomatize)
Clear Stereo (ID: ClearStereo)
Wedge Clean (ID: WedgeClean)
Mesomerize (ID: Mesomerize)
Tautomerize (ID: Tautomerize)
Aromatize (ID: Aromatize)
Add Explicit Hydrogens (ID: AddExplicitH)
Neutralize (ID: Neutralize)
Clean 2D (ID: Clean2D)

> <knn Distance>
4.24264049530029

> <CpId>
1939

$$$$
2120
  Mrv1532301301811342D          

 70 73  0  0  0  0            999 V2000
    1.3241   -2.7131    0.0000 C   0  0  0  0  0  0  0  0  0  0  0  0
    0.7720   -2.1000    0.0000 C   0  0  0  0  0  0  0  0  0  0  0  0
   -0.0349   -2.2716    0.0000 C   0  0  0  0  0  0  0  0  0  0  0  0
   -0.5870   -1.6585    0.0000 C   0  0  0  0  0  0  0  0  0  0  0  0
   -1.3940   -1.8300    0.0000 C   0  0  0  0  0  0  0  0  0  0  0  0
   -1.6489   -2.6146    0.0000 O   0  0  0  0  0  0  0  0  0  0  0  0
   -1.9460   -1.2169    0.0000 C   0  0  0  0  0  0  0  0  0  0  0  0
   -2.7306   -0.9620    0.0000 C   0  0  0  0  0  0  0  0  0  0  0  0
   -2.1175   -0.4099    0.0000 C   0  0  0  0  0  0  0  0  0  0  0  0
    1.0270   -1.3154    0.0000 C   0  0  0  0  0  0  0  0  0  0  0  0
    0.5420   -0.6480    0.0000 C   0  0  0  0  0  0  0  0  0  0  0  0
    1.0270    0.0195    0.0000 C   0  0  0  0  0  0  0  0  0  0  0  0
    1.8116   -0.2355    0.0000 C   0  0  0  0  0  0  0  0  0  0  0  0
    2.5261    0.1770    0.0000 C   0  0  0  0  0  0  0  0  0  0  0  0
    3.2405   -0.2355    0.0000 C   0  0  0  0  0  0  0  0  0  0  0  0
    3.2405   -1.0605    0.0000 C   0  0  0  0  0  0  0  0  0  0  0  0
    2.5261   -1.4730    0.0000 C   0  0  0  0  0  0  0  0  0  0  0  0
    1.8116   -1.0605    0.0000 C   0  0  0  0  0  0  0  0  0  0  0  0
    1.7253   -1.8810    0.0000 C   0  0  0  0  0  0  0  0  0  0  0  0
    2.5261    1.0020    0.0000 C   0  0  0  0  0  0  0  0  0  0  0  0
    1.8116    1.4145    0.0000 C   0  0  0  0  0  0  0  0  0  0  0  0
    1.8116    2.2395    0.0000 C   0  0  0  0  0  0  0  0  0  0  0  0
    1.0971    2.6520    0.0000 C   0  0  0  0  0  0  0  0  0  0  0  0
    1.0971    3.4770    0.0000 C   0  0  0  0  0  0  0  0  0  0  0  0
    0.3826    3.8895    0.0000 O   0  0  0  0  0  0  0  0  0  0  0  0
    1.8116    3.8895    0.0000 C   0  0  0  0  0  0  0  0  0  0  0  0
    2.5261    3.4770    0.0000 C   0  0  0  0  0  0  0  0  0  0  0  0
    3.2405    3.8895    0.0000 O   0  0  0  0  0  0  0  0  0  0  0  0
    2.5261    2.6520    0.0000 C   0  0  0  0  0  0  0  0  0  0  0  0
    3.2405    2.2395    0.0000 C   0  0  0  0  0  0  0  0  0  0  0  0
    0.5767   -3.0626    0.0000 H   0  0  0  0  0  0  0  0  0  0  0  0
    1.4407   -3.5298    0.0000 H   0  0  0  0  0  0  0  0  0  0  0  0
    2.1393   -2.8395    0.0000 H   0  0  0  0  0  0  0  0  0  0  0  0
    0.5171   -2.8847    0.0000 H   0  0  0  0  0  0  0  0  0  0  0  0
   -0.6480   -2.8236    0.0000 H   0  0  0  0  0  0  0  0  0  0  0  0
   -0.3320   -0.8738    0.0000 H   0  0  0  0  0  0  0  0  0  0  0  0
   -0.8419   -2.4431    0.0000 H   0  0  0  0  0  0  0  0  0  0  0  0
   -2.2620   -3.1666    0.0000 H   0  0  0  0  0  0  0  0  0  0  0  0
   -1.2109   -0.8424    0.0000 H   0  0  0  0  0  0  0  0  0  0  0  0
   -3.4991   -0.6618    0.0000 H   0  0  0  0  0  0  0  0  0  0  0  0
   -3.3106   -1.5487    0.0000 H   0  0  0  0  0  0  0  0  0  0  0  0
   -1.4734    0.1055    0.0000 H   0  0  0  0  0  0  0  0  0  0  0  0
   -2.3357    0.3857    0.0000 H   0  0  0  0  0  0  0  0  0  0  0  0
    0.2121   -1.4445    0.0000 H   0  0  0  0  0  0  0  0  0  0  0  0
    0.0778    0.0340    0.0000 H   0  0  0  0  0  0  0  0  0  0  0  0
    1.3670   -0.6480    0.0000 H   0  0  0  0  0  0  0  0  0  0  0  0
    1.4561    0.7241    0.0000 H   0  0  0  0  0  0  0  0  0  0  0  0
    0.8489    0.8250    0.0000 H   0  0  0  0  0  0  0  0  0  0  0  0
    2.5261   -0.6480    0.0000 H   0  0  0  0  0  0  0  0  0  0  0  0
    4.0641   -0.1875    0.0000 H   0  0  0  0  0  0  0  0  0  0  0  0
    3.6939    0.4538    0.0000 H   0  0  0  0  0  0  0  0  0  0  0  0
    3.6939   -1.7497    0.0000 H   0  0  0  0  0  0  0  0  0  0  0  0
    4.0641   -1.1084    0.0000 H   0  0  0  0  0  0  0  0  0  0  0  0
    2.6432   -2.2896    0.0000 H   0  0  0  0  0  0  0  0  0  0  0  0
    3.1471   -2.0160    0.0000 H   0  0  0  0  0  0  0  0  0  0  0  0
    2.0322   -2.6468    0.0000 H   0  0  0  0  0  0  0  0  0  0  0  0
    2.4977   -2.1710    0.0000 H   0  0  0  0  0  0  0  0  0  0  0  0
    0.9203   -2.0613    0.0000 H   0  0  0  0  0  0  0  0  0  0  0  0
    3.2405    1.4145    0.0000 H   0  0  0  0  0  0  0  0  0  0  0  0
    1.0098    1.6088    0.0000 H   0  0  0  0  0  0  0  0  0  0  0  0
    0.2735    2.6041    0.0000 H   0  0  0  0  0  0  0  0  0  0  0  0
    0.6438    1.9628    0.0000 H   0  0  0  0  0  0  0  0  0  0  0  0
    1.0971    4.3020    0.0000 H   0  0  0  0  0  0  0  0  0  0  0  0
   -0.4424    3.8895    0.0000 H   0  0  0  0  0  0  0  0  0  0  0  0
    2.4436    4.4198    0.0000 H   0  0  0  0  0  0  0  0  0  0  0  0
    1.9548    4.7020    0.0000 H   0  0  0  0  0  0  0  0  0  0  0  0
    3.2405    3.0645    0.0000 H   0  0  0  0  0  0  0  0  0  0  0  0
    3.9677    4.2791    0.0000 H   0  0  0  0  0  0  0  0  0  0  0  0
    4.0158    1.9574    0.0000 H   0  0  0  0  0  0  0  0  0  0  0  0
    4.0158    2.5217    0.0000 H   0  0  0  0  0  0  0  0  0  0  0  0
  1  2  1  0  0  0  0
  3  2  1  4  0  0  0
  3  4  2  0  0  0  0
  4  5  1  0  0  0  0
  5  6  1  0  0  0  0
  5  7  1  0  0  0  0
  7  8  1  0  0  0  0
  8  9  1  0  0  0  0
  7  9  1  0  0  0  0
  2 10  1  0  0  0  0
 10 11  1  0  0  0  0
 11 12  1  0  0  0  0
 12 13  1  0  0  0  0
 13 14  1  0  0  0  0
 14 15  1  0  0  0  0
 15 16  1  0  0  0  0
 16 17  1  0  0  0  0
 17 18  1  0  0  0  0
 10 18  1  0  0  0  0
 13 18  1  0  0  0  0
 18 19  1  0  0  0  0
 14 20  2  0  0  0  0
 20 21  1  4  0  0  0
 21 22  2  0  0  0  0
 22 23  1  4  0  0  0
 23 24  1  0  0  0  0
 24 25  1  0  0  0  0
 24 26  1  0  0  0  0
 26 27  1  0  0  0  0
 27 28  1  0  0  0  0
 27 29  1  0  0  0  0
 22 29  1  0  0  0  0
 29 30  2  0  0  0  0
  1 31  1  0  0  0  0
  1 32  1  0  0  0  0
  1 33  1  0  0  0  0
  2 34  1  0  0  0  0
  3 35  1  0  0  0  0
  4 36  1  0  0  0  0
  5 37  1  0  0  0  0
  6 38  1  0  0  0  0
  7 39  1  0  0  0  0
  8 40  1  0  0  0  0
  8 41  1  0  0  0  0
  9 42  1  0  0  0  0
  9 43  1  0  0  0  0
 10 44  1  0  0  0  0
 11 45  1  0  0  0  0
 11 46  1  0  0  0  0
 12 47  1  0  0  0  0
 12 48  1  0  0  0  0
 13 49  1  0  0  0  0
 15 50  1  0  0  0  0
 15 51  1  0  0  0  0
 16 52  1  0  0  0  0
 16 53  1  0  0  0  0
 17 54  1  0  0  0  0
 17 55  1  0  0  0  0
 19 56  1  0  0  0  0
 19 57  1  0  0  0  0
 19 58  1  0  0  0  0
 20 59  1  0  0  0  0
 21 60  1  0  0  0  0
 23 61  1  0  0  0  0
 23 62  1  0  0  0  0
 24 63  1  0  0  0  0
 25 64  1  0  0  0  0
 26 65  1  0  0  0  0
 26 66  1  0  0  0  0
 27 67  1  0  0  0  0
 28 68  1  0  0  0  0
 30 69  1  0  0  0  0
 30 70  1  0  0  0  0
M  END
>  <InChIKey>
InChI=1S/C27H40O3/c1-17(6-13-25(29)20-8-9-20)23-11-12-24-19(5-4-14-27(23,24)3)7-10-21-15-22(28)16-26(30)18(21)2/h6-7,10,13,17,20,22-26,28-30H,2,4-5,8-9,11-12,14-16H2,1,3H3

>  <CASRN>
112965-21-6

> <Outcome>
0

>  <Index>
2120

>  <StandardizerResult>
Clear Stereo (ID: ClearStereo)
Wedge Clean (ID: WedgeClean)
Mesomerize (ID: Mesomerize)
Tautomerize (ID: Tautomerize)
Add Explicit Hydrogens (ID: AddExplicitH)
Neutralize (ID: Neutralize)
Clean 2D (ID: Clean2D)

> <knn Distance>
4.24264049530029

> <CpId>
2120

$$$$
2137
  Mrv1532301301811342D          

 30 29  0  0  0  0            999 V2000
    2.9430    2.5559    0.0000 C   0  0  0  0  0  0  0  0  0  0  0  0
    3.6575    2.1434    0.0000 N   0  0  0  0  0  0  0  0  0  0  0  0
    4.3720    2.5559    0.0000 C   0  0  0  0  0  0  0  0  0  0  0  0
    5.0864    2.1434    0.0000 C   0  0  0  0  0  0  0  0  0  0  0  0
    5.0864    1.3184    0.0000 O   0  0  0  0  0  0  0  0  0  0  0  0
    5.8009    2.5559    0.0000 C   0  0  0  0  0  0  0  0  0  0  0  0
    5.8009    3.3809    0.0000 O   0  0  0  0  0  0  0  0  0  0  0  0
    6.5154    2.1434    0.0000 C   0  0  0  0  0  0  0  0  0  0  0  0
    6.5154    1.3184    0.0000 O   0  0  0  0  0  0  0  0  0  0  0  0
    7.2299    2.5559    0.0000 C   0  0  0  0  0  0  0  0  0  0  0  0
    7.2299    3.3809    0.0000 O   0  0  0  0  0  0  0  0  0  0  0  0
    7.9443    2.1434    0.0000 C   0  0  0  0  0  0  0  0  0  0  0  0
    8.6588    2.5559    0.0000 O   0  0  0  0  0  0  0  0  0  0  0  0
    3.3555    3.2704    0.0000 H   0  0  0  0  0  0  0  0  0  0  0  0
    2.2286    2.9684    0.0000 H   0  0  0  0  0  0  0  0  0  0  0  0
    2.5305    1.8414    0.0000 H   0  0  0  0  0  0  0  0  0  0  0  0
    3.6575    1.3184    0.0000 H   0  0  0  0  0  0  0  0  0  0  0  0
    4.7422    3.2931    0.0000 H   0  0  0  0  0  0  0  0  0  0  0  0
    4.0017    3.2931    0.0000 H   0  0  0  0  0  0  0  0  0  0  0  0
    4.3720    1.7309    0.0000 H   0  0  0  0  0  0  0  0  0  0  0  0
    5.4989    0.6039    0.0000 H   0  0  0  0  0  0  0  0  0  0  0  0
    5.0864    2.9684    0.0000 H   0  0  0  0  0  0  0  0  0  0  0  0
    6.2134    4.0954    0.0000 H   0  0  0  0  0  0  0  0  0  0  0  0
    5.8009    1.7309    0.0000 H   0  0  0  0  0  0  0  0  0  0  0  0
    6.9279    0.6039    0.0000 H   0  0  0  0  0  0  0  0  0  0  0  0
    6.5154    2.9684    0.0000 H   0  0  0  0  0  0  0  0  0  0  0  0
    7.6424    4.0954    0.0000 H   0  0  0  0  0  0  0  0  0  0  0  0
    7.5741    1.4062    0.0000 H   0  0  0  0  0  0  0  0  0  0  0  0
    8.3146    1.4062    0.0000 H   0  0  0  0  0  0  0  0  0  0  0  0
    9.3733    2.1434    0.0000 H   0  0  0  0  0  0  0  0  0  0  0  0
  1  2  1  0  0  0  0
  2  3  1  0  0  0  0
  3  4  1  0  0  0  0
  4  5  1  0  0  0  0
  4  6  1  0  0  0  0
  6  7  1  0  0  0  0
  6  8  1  0  0  0  0
  8  9  1  0  0  0  0
  8 10  1  0  0  0  0
 10 11  1  0  0  0  0
 10 12  1  0  0  0  0
 12 13  1  0  0  0  0
  1 14  1  0  0  0  0
  1 15  1  0  0  0  0
  1 16  1  0  0  0  0
  2 17  1  0  0  0  0
  3 18  1  0  0  0  0
  3 19  1  0  0  0  0
  4 20  1  0  0  0  0
  5 21  1  0  0  0  0
  6 22  1  0  0  0  0
  7 23  1  0  0  0  0
  8 24  1  0  0  0  0
  9 25  1  0  0  0  0
 10 26  1  0  0  0  0
 11 27  1  0  0  0  0
 12 28  1  0  0  0  0
 12 29  1  0  0  0  0
 13 30  1  0  0  0  0
M  END
>  <InChIKey>
InChI=1S/C7H17NO5/c1-8-2-4(10)6(12)7(13)5(11)3-9/h4-13H,2-3H2,1H3

>  <CASRN>
6284-40-8

> <Outcome>
0

>  <Index>
2137

>  <StandardizerResult>
Clear Stereo (ID: ClearStereo)
Wedge Clean (ID: WedgeClean)
Mesomerize (ID: Mesomerize)
Tautomerize (ID: Tautomerize)
Add Explicit Hydrogens (ID: AddExplicitH)
Neutralize (ID: Neutralize)
Clean 2D (ID: Clean2D)

> <knn Distance>
4.24264049530029

> <CpId>
2137

$$$$
2157
  Mrv1532301301811342D          

 57 63  0  0  0  0            999 V2000
    5.9593   -2.2420    0.0000 C   0  0  0  0  0  0  0  0  0  0  0  0
    6.2642   -1.4754    0.0000 C   0  0  0  0  0  0  0  0  0  0  0  0
    6.6299   -2.2149    0.0000 C   0  0  0  0  0  0  0  0  0  0  0  0
    7.4532   -2.2679    0.0000 C   0  0  0  0  0  0  0  0  0  0  0  0
    7.9108   -1.5814    0.0000 C   0  0  0  0  0  0  0  0  0  0  0  0
    7.5450   -0.8419    0.0000 C   0  0  0  0  0  0  0  0  0  0  0  0
    8.0026   -0.1554    0.0000 C   0  0  0  0  0  0  0  0  0  0  0  0
    8.4601    0.5311    0.0000 C   0  0  0  0  0  0  0  0  0  0  0  0
    8.8259   -0.2084    0.0000 C   0  0  0  0  0  0  0  0  0  0  0  0
    9.1916   -0.9479    0.0000 C   0  0  0  0  0  0  0  0  0  0  0  0
   10.0149   -1.0009    0.0000 C   0  0  0  0  0  0  0  0  0  0  0  0
   10.3806   -1.7404    0.0000 C   0  0  0  0  0  0  0  0  0  0  0  0
   11.2039   -1.7935    0.0000 O   0  0  0  0  0  0  0  0  0  0  0  0
    9.9231   -2.4269    0.0000 C   0  0  0  0  0  0  0  0  0  0  0  0
    9.0998   -2.3739    0.0000 C   0  0  0  0  0  0  0  0  0  0  0  0
    8.7340   -1.6344    0.0000 C   0  0  0  0  0  0  0  0  0  0  0  0
    8.2765   -2.3209    0.0000 C   0  0  0  0  0  0  0  0  0  0  0  0
    6.7217   -0.7889    0.0000 C   0  0  0  0  0  0  0  0  0  0  0  0
    6.2102   -0.1416    0.0000 C   0  0  0  0  0  0  0  0  0  0  0  0
    5.5753    0.3853    0.0000 C   0  0  0  0  0  0  0  0  0  0  0  0
    5.4366   -0.4280    0.0000 C   0  0  0  0  0  0  0  0  0  0  0  0
    5.4699   -1.2523    0.0000 C   0  0  0  0  0  0  0  0  0  0  0  0
    5.5032   -2.0766    0.0000 C   0  0  0  0  0  0  0  0  0  0  0  0
    4.7295   -2.3631    0.0000 C   0  0  0  0  0  0  0  0  0  0  0  0
    4.2180   -1.7158    0.0000 C   0  0  0  0  0  0  0  0  0  0  0  0
    3.3937   -1.7491    0.0000 O   0  0  0  0  0  0  0  0  0  0  0  0
    4.6756   -1.0293    0.0000 O   0  0  0  0  0  0  0  0  0  0  0  0
    5.2495   -2.6624    0.0000 H   0  0  0  0  0  0  0  0  0  0  0  0
    5.8331   -3.0572    0.0000 H   0  0  0  0  0  0  0  0  0  0  0  0
    6.5087   -2.8574    0.0000 H   0  0  0  0  0  0  0  0  0  0  0  0
    7.0875   -1.5284    0.0000 H   0  0  0  0  0  0  0  0  0  0  0  0
    7.1358   -2.8666    0.0000 H   0  0  0  0  0  0  0  0  0  0  0  0
    7.5986   -3.0800    0.0000 H   0  0  0  0  0  0  0  0  0  0  0  0
    8.0685   -2.8174    0.0000 H   0  0  0  0  0  0  0  0  0  0  0  0
    8.3683   -0.8949    0.0000 H   0  0  0  0  0  0  0  0  0  0  0  0
    7.1793   -0.1024    0.0000 H   0  0  0  0  0  0  0  0  0  0  0  0
    7.6369    0.5841    0.0000 H   0  0  0  0  0  0  0  0  0  0  0  0
    9.1771    0.9392    0.0000 H   0  0  0  0  0  0  0  0  0  0  0  0
    8.5609    1.3499    0.0000 H   0  0  0  0  0  0  0  0  0  0  0  0
    9.5654    0.1573    0.0000 H   0  0  0  0  0  0  0  0  0  0  0  0
   10.4725   -0.3144    0.0000 H   0  0  0  0  0  0  0  0  0  0  0  0
    9.9180   -3.2519    0.0000 H   0  0  0  0  0  0  0  0  0  0  0  0
   10.5818   -2.9236    0.0000 H   0  0  0  0  0  0  0  0  0  0  0  0
    8.7684   -3.1294    0.0000 H   0  0  0  0  0  0  0  0  0  0  0  0
    9.3315   -3.1657    0.0000 H   0  0  0  0  0  0  0  0  0  0  0  0
    8.3383   -3.1436    0.0000 H   0  0  0  0  0  0  0  0  0  0  0  0
    7.5900   -1.8633    0.0000 H   0  0  0  0  0  0  0  0  0  0  0  0
    7.5753   -2.7556    0.0000 H   0  0  0  0  0  0  0  0  0  0  0  0
    5.8974   -0.8222    0.0000 H   0  0  0  0  0  0  0  0  0  0  0  0
    6.4745    0.6400    0.0000 H   0  0  0  0  0  0  0  0  0  0  0  0
    5.2810    1.1560    0.0000 H   0  0  0  0  0  0  0  0  0  0  0  0
    4.7776    0.5955    0.0000 H   0  0  0  0  0  0  0  0  0  0  0  0
    4.7271   -0.0070    0.0000 H   0  0  0  0  0  0  0  0  0  0  0  0
    4.9917   -1.4293    0.0000 H   0  0  0  0  0  0  0  0  0  0  0  0
    4.7089   -1.8536    0.0000 H   0  0  0  0  0  0  0  0  0  0  0  0
    3.9930   -2.7348    0.0000 H   0  0  0  0  0  0  0  0  0  0  0  0
    4.4693   -3.1460    0.0000 H   0  0  0  0  0  0  0  0  0  0  0  0
  1  2  1  0  0  0  0
  2  3  1  0  0  0  0
  3  4  1  0  0  0  0
  4  5  1  0  0  0  0
  5  6  1  0  0  0  0
  6  7  1  0  0  0  0
  7  8  1  0  0  0  0
  8  9  1  0  0  0  0
  7  9  1  0  0  0  0
  9 10  1  0  0  0  0
 10 11  2  0  0  0  0
 11 12  1  0  0  0  0
 12 13  2  0  0  0  0
 12 14  1  0  0  0  0
 14 15  1  0  0  0  0
 15 16  1  0  0  0  0
  5 16  1  0  0  0  0
 10 16  1  0  0  0  0
 16 17  1  0  0  0  0
  6 18  1  0  0  0  0
  2 18  1  0  0  0  0
 18 19  1  0  0  0  0
 19 20  1  0  0  0  0
 20 21  1  0  0  0  0
 19 21  1  0  0  0  0
 21 22  1  0  0  0  0
  2 22  1  0  0  0  0
 22 23  1  0  0  0  0
 23 24  1  0  0  0  0
 24 25  1  0  0  0  0
 25 26  2  0  0  0  0
 25 27  1  0  0  0  0
 22 27  1  0  0  0  0
  1 28  1  0  0  0  0
  1 29  1  0  0  0  0
  1 30  1  0  0  0  0
  3 31  1  0  0  0  0
  3 32  1  0  0  0  0
  4 33  1  0  0  0  0
  4 34  1  0  0  0  0
  5 35  1  0  0  0  0
  6 36  1  0  0  0  0
  7 37  1  0  0  0  0
  8 38  1  0  0  0  0
  8 39  1  0  0  0  0
  9 40  1  0  0  0  0
 11 41  1  0  0  0  0
 14 42  1  0  0  0  0
 14 43  1  0  0  0  0
 15 44  1  0  0  0  0
 15 45  1  0  0  0  0
 17 46  1  0  0  0  0
 17 47  1  0  0  0  0
 17 48  1  0  0  0  0
 18 49  1  0  0  0  0
 19 50  1  0  0  0  0
 20 51  1  0  0  0  0
 20 52  1  0  0  0  0
 21 53  1  0  0  0  0
 23 54  1  0  0  0  0
 23 55  1  0  0  0  0
 24 56  1  0  0  0  0
 24 57  1  0  0  0  0
M  END
>  <InChIKey>
InChI=1S/C24H30O3/c1-22-6-3-12(25)9-17(22)13-10-14(13)20-16(22)4-7-23(2)21(20)15-11-18(15)24(23)8-5-19(26)27-24/h9,13-16,18,20-21H,3-8,10-11H2,1-2H3

>  <CASRN>
67392-87-4

> <Outcome>
0

>  <Index>
2157

>  <StandardizerResult>
Clear Stereo (ID: ClearStereo)
Wedge Clean (ID: WedgeClean)
Mesomerize (ID: Mesomerize)
Tautomerize (ID: Tautomerize)
Add Explicit Hydrogens (ID: AddExplicitH)
Neutralize (ID: Neutralize)
Clean 2D (ID: Clean2D)

> <knn Distance>
4.24264049530029

> <CpId>
2157

$$$$
2162
  Mrv1532301301811342D          

 31 32  0  0  0  0            999 V2000
    0.7725   -0.4390    0.0000 C   0  0  0  0  0  0  0  0  0  0  0  0
    0.7725   -1.2640    0.0000 C   0  0  0  0  0  0  0  0  0  0  0  0
    1.4869   -1.6765    0.0000 C   0  0  0  0  0  0  0  0  0  0  0  0
    1.4869   -2.5015    0.0000 O   0  0  0  0  0  0  0  0  0  0  0  0
    0.7725   -2.9140    0.0000 C   0  0  0  0  0  0  0  0  0  0  0  0
    0.0580   -2.5015    0.0000 C   0  0  0  0  0  0  0  0  0  0  0  0
    0.0580   -1.6765    0.0000 N   0  0  0  0  0  0  0  0  0  0  0  0
   -0.6565   -1.2640    0.0000 C   0  0  0  0  0  0  0  0  0  0  0  0
    2.2014   -1.2640    0.0000 C   0  0  0  0  0  0  0  0  0  0  0  0
    2.2014   -0.4390    0.0000 C   0  0  0  0  0  0  0  0  0  0  0  0
    2.9159   -0.0265    0.0000 C   0  0  0  0  0  0  0  0  0  0  0  0
    3.6303   -0.4390    0.0000 C   0  0  0  0  0  0  0  0  0  0  0  0
    3.6303   -1.2640    0.0000 C   0  0  0  0  0  0  0  0  0  0  0  0
    2.9159   -1.6765    0.0000 C   0  0  0  0  0  0  0  0  0  0  0  0
    1.5975   -0.4390    0.0000 H   0  0  0  0  0  0  0  0  0  0  0  0
    0.7725    0.3860    0.0000 H   0  0  0  0  0  0  0  0  0  0  0  0
   -0.0525   -0.4390    0.0000 H   0  0  0  0  0  0  0  0  0  0  0  0
    0.0580   -0.8515    0.0000 H   0  0  0  0  0  0  0  0  0  0  0  0
    1.4869   -0.8515    0.0000 H   0  0  0  0  0  0  0  0  0  0  0  0
    0.4022   -3.6512    0.0000 H   0  0  0  0  0  0  0  0  0  0  0  0
    1.1427   -3.6512    0.0000 H   0  0  0  0  0  0  0  0  0  0  0  0
   -0.7656   -2.5494    0.0000 H   0  0  0  0  0  0  0  0  0  0  0  0
   -0.3954   -3.1907    0.0000 H   0  0  0  0  0  0  0  0  0  0  0  0
   -0.8700   -0.4671    0.0000 H   0  0  0  0  0  0  0  0  0  0  0  0
   -1.4815   -1.2640    0.0000 H   0  0  0  0  0  0  0  0  0  0  0  0
   -0.8700   -2.0608    0.0000 H   0  0  0  0  0  0  0  0  0  0  0  0
    1.9879    0.3579    0.0000 H   0  0  0  0  0  0  0  0  0  0  0  0
    2.9159    0.7985    0.0000 H   0  0  0  0  0  0  0  0  0  0  0  0
    4.3448   -0.0265    0.0000 H   0  0  0  0  0  0  0  0  0  0  0  0
    4.3448   -1.6765    0.0000 H   0  0  0  0  0  0  0  0  0  0  0  0
    2.9159   -2.5015    0.0000 H   0  0  0  0  0  0  0  0  0  0  0  0
  1  2  1  0  0  0  0
  2  3  1  0  0  0  0
  3  4  1  0  0  0  0
  4  5  1  0  0  0  0
  5  6  1  0  0  0  0
  6  7  1  0  0  0  0
  2  7  1  0  0  0  0
  7  8  1  0  0  0  0
  3  9  1  0  0  0  0
  9 10  4  0  0  0  0
 10 11  4  0  0  0  0
 11 12  4  0  0  0  0
 12 13  4  0  0  0  0
 13 14  4  0  0  0  0
  9 14  4  0  0  0  0
  1 15  1  0  0  0  0
  1 16  1  0  0  0  0
  1 17  1  0  0  0  0
  2 18  1  0  0  0  0
  3 19  1  0  0  0  0
  5 20  1  0  0  0  0
  5 21  1  0  0  0  0
  6 22  1  0  0  0  0
  6 23  1  0  0  0  0
  8 24  1  0  0  0  0
  8 25  1  0  0  0  0
  8 26  1  0  0  0  0
 10 27  1  0  0  0  0
 11 28  1  0  0  0  0
 12 29  1  0  0  0  0
 13 30  1  0  0  0  0
 14 31  1  0  0  0  0
M  END
>  <InChIKey>
InChI=1S/C12H17NO/c1-10-12(14-9-8-13(10)2)11-6-4-3-5-7-11/h3-7,10,12H,8-9H2,1-2H3

>  <CASRN>
634-03-7

> <Outcome>
0

>  <Index>
2162

>  <StandardizerResult>
Dearomatize (ID: Dearomatize)
Clear Stereo (ID: ClearStereo)
Wedge Clean (ID: WedgeClean)
Mesomerize (ID: Mesomerize)
Tautomerize (ID: Tautomerize)
Aromatize (ID: Aromatize)
Add Explicit Hydrogens (ID: AddExplicitH)
Neutralize (ID: Neutralize)
Clean 2D (ID: Clean2D)

> <knn Distance>
4.24264049530029

> <CpId>
2162

$$$$
2207
  Mrv1532301301811342D          

 29 30  0  0  0  0            999 V2000
    0.7145   -1.2375    0.0000 N   0  0  0  0  0  0  0  0  0  0  0  0
    0.7145   -2.0625    0.0000 C   0  0  0  0  0  0  0  0  0  0  0  0
    1.4289   -2.4750    0.0000 C   0  0  0  0  0  0  0  0  0  0  0  0
    1.4289   -3.3000    0.0000 C   0  0  0  0  0  0  0  0  0  0  0  0
    0.7145   -3.7125    0.0000 C   0  0  0  0  0  0  0  0  0  0  0  0
    0.0000   -3.3000    0.0000 C   0  0  0  0  0  0  0  0  0  0  0  0
    0.0000   -2.4750    0.0000 C   0  0  0  0  0  0  0  0  0  0  0  0
    0.7145   -4.5375    0.0000 S   0  0  0  0  0  0  0  0  0  0  0  0
   -0.1105   -4.5375    0.0000 O   0  0  0  0  0  0  0  0  0  0  0  0
    1.5395   -4.5375    0.0000 O   0  0  0  0  0  0  0  0  0  0  0  0
    0.7145   -5.3625    0.0000 C   0  0  0  0  0  0  0  0  0  0  0  0
    1.4289   -5.7750    0.0000 C   0  0  0  0  0  0  0  0  0  0  0  0
    1.4289   -6.6000    0.0000 C   0  0  0  0  0  0  0  0  0  0  0  0
    0.7145   -7.0125    0.0000 C   0  0  0  0  0  0  0  0  0  0  0  0
    0.7145   -7.8375    0.0000 N   0  0  0  0  0  0  0  0  0  0  0  0
    0.0000   -6.6000    0.0000 C   0  0  0  0  0  0  0  0  0  0  0  0
    0.0000   -5.7750    0.0000 C   0  0  0  0  0  0  0  0  0  0  0  0
    1.4289   -0.8250    0.0000 H   0  0  0  0  0  0  0  0  0  0  0  0
    0.0000   -0.8250    0.0000 H   0  0  0  0  0  0  0  0  0  0  0  0
    2.1434   -2.0625    0.0000 H   0  0  0  0  0  0  0  0  0  0  0  0
    2.1434   -3.7125    0.0000 H   0  0  0  0  0  0  0  0  0  0  0  0
   -0.7145   -3.7125    0.0000 H   0  0  0  0  0  0  0  0  0  0  0  0
   -0.7145   -2.0625    0.0000 H   0  0  0  0  0  0  0  0  0  0  0  0
    2.1434   -5.3625    0.0000 H   0  0  0  0  0  0  0  0  0  0  0  0
    2.1434   -7.0125    0.0000 H   0  0  0  0  0  0  0  0  0  0  0  0
    0.0000   -8.2500    0.0000 H   0  0  0  0  0  0  0  0  0  0  0  0
    1.4289   -8.2500    0.0000 H   0  0  0  0  0  0  0  0  0  0  0  0
   -0.7145   -7.0125    0.0000 H   0  0  0  0  0  0  0  0  0  0  0  0
   -0.7145   -5.3625    0.0000 H   0  0  0  0  0  0  0  0  0  0  0  0
  1  2  1  0  0  0  0
  2  3  4  0  0  0  0
  3  4  4  0  0  0  0
  4  5  4  0  0  0  0
  5  6  4  0  0  0  0
  6  7  4  0  0  0  0
  2  7  4  0  0  0  0
  5  8  1  0  0  0  0
  8  9  2  0  0  0  0
  8 10  2  0  0  0  0
  8 11  1  0  0  0  0
 11 12  4  0  0  0  0
 12 13  4  0  0  0  0
 13 14  4  0  0  0  0
 14 15  1  0  0  0  0
 14 16  4  0  0  0  0
 16 17  4  0  0  0  0
 11 17  4  0  0  0  0
  1 18  1  0  0  0  0
  1 19  1  0  0  0  0
  3 20  1  0  0  0  0
  4 21  1  0  0  0  0
  6 22  1  0  0  0  0
  7 23  1  0  0  0  0
 12 24  1  0  0  0  0
 13 25  1  0  0  0  0
 15 26  1  0  0  0  0
 15 27  1  0  0  0  0
 16 28  1  0  0  0  0
 17 29  1  0  0  0  0
M  END
>  <InChIKey>
InChI=1S/C12H12N2O2S/c13-9-1-5-11(6-2-9)17(15,16)12-7-3-10(14)4-8-12/h1-8H,13-14H2

>  <UN GHS>
Non-irritant

>  <CASRN>
80-08-0

> <Outcome>
0

>  <Index>
2207

>  <StandardizerResult>
Dearomatize (ID: Dearomatize)
Clear Stereo (ID: ClearStereo)
Wedge Clean (ID: WedgeClean)
Mesomerize (ID: Mesomerize)
Tautomerize (ID: Tautomerize)
Aromatize (ID: Aromatize)
Add Explicit Hydrogens (ID: AddExplicitH)
Neutralize (ID: Neutralize)
Clean 2D (ID: Clean2D)

> <knn Distance>
4.24264049530029

> <CpId>
2207

$$$$
2252
  Mrv1532301301811342D          

  8  8  0  0  0  0            999 V2000
    0.5678    1.9393    0.0000 S   0  0  0  0  0  0  0  0  0  0  0  0
    0.5678    1.1143    0.0000 C   0  0  0  0  0  0  0  0  0  0  0  0
    1.2352    0.6294    0.0000 N   0  0  0  0  0  0  0  0  0  0  0  0
    0.9803   -0.1553    0.0000 C   0  0  0  0  0  0  0  0  0  0  0  0
    0.1553   -0.1553    0.0000 C   0  0  0  0  0  0  0  0  0  0  0  0
   -0.0996    0.6294    0.0000 N   0  0  0  0  0  0  0  0  0  0  0  0
    1.4652   -0.8227    0.0000 H   0  0  0  0  0  0  0  0  0  0  0  0
   -0.3296   -0.8227    0.0000 H   0  0  0  0  0  0  0  0  0  0  0  0
  1  2  2  0  0  0  0
  2  3  1  0  0  0  0
  3  4  2  0  0  0  0
  4  5  1  0  0  0  0
  5  6  2  0  0  0  0
  2  6  1  0  0  0  0
  4  7  1  0  0  0  0
  5  8  1  0  0  0  0
M  END
>  <InChIKey>
InChI=1S/C3H2N2S/c6-3-4-1-2-5-3/h1-2H

>  <CASRN>
24684-03-5

> <Outcome>
0

>  <Index>
2252

>  <StandardizerResult>
Clear Stereo (ID: ClearStereo)
Wedge Clean (ID: WedgeClean)
Mesomerize (ID: Mesomerize)
Tautomerize (ID: Tautomerize)
Add Explicit Hydrogens (ID: AddExplicitH)
Neutralize (ID: Neutralize)
Clean 2D (ID: Clean2D)

> <knn Distance>
4.24264049530029

> <CpId>
2252

$$$$
2343
  Mrv1532301301811342D          

 54 56  0  0  0  0            999 V2000
    3.0802   -3.4145    0.0000 C   0  0  0  0  0  0  0  0  0  0  0  0
    3.7946   -3.8270    0.0000 C   0  0  0  0  0  0  0  0  0  0  0  0
    4.5091   -3.4145    0.0000 N   0  0  0  0  0  0  0  0  0  0  0  0
    4.5091   -2.5895    0.0000 C   0  0  0  0  0  0  0  0  0  0  0  0
    5.2236   -2.1770    0.0000 C   0  0  0  0  0  0  0  0  0  0  0  0
    5.2236   -3.8270    0.0000 C   0  0  0  0  0  0  0  0  0  0  0  0
    5.9380   -3.4145    0.0000 C   0  0  0  0  0  0  0  0  0  0  0  0
    6.6525   -3.8270    0.0000 C   0  0  0  0  0  0  0  0  0  0  0  0
    7.3670   -3.4145    0.0000 N   0  0  0  0  0  0  0  0  0  0  0  0
    8.0815   -3.8270    0.0000 C   0  0  0  0  0  0  0  0  0  0  0  0
    8.8351   -3.4915    0.0000 C   0  0  0  0  0  0  0  0  0  0  0  0
    9.3872   -4.1046    0.0000 C   0  0  0  0  0  0  0  0  0  0  0  0
   10.2122   -4.1046    0.0000 C   0  0  0  0  0  0  0  0  0  0  0  0
   10.6247   -4.8190    0.0000 C   0  0  0  0  0  0  0  0  0  0  0  0
   10.2122   -5.5335    0.0000 C   0  0  0  0  0  0  0  0  0  0  0  0
    9.3872   -5.5335    0.0000 C   0  0  0  0  0  0  0  0  0  0  0  0
    8.9747   -4.8190    0.0000 C   0  0  0  0  0  0  0  0  0  0  0  0
    8.1677   -4.6475    0.0000 C   0  0  0  0  0  0  0  0  0  0  0  0
    7.3670   -2.5895    0.0000 C   0  0  0  0  0  0  0  0  0  0  0  0
    6.6525   -2.1770    0.0000 C   0  0  0  0  0  0  0  0  0  0  0  0
    6.6525   -1.3520    0.0000 C   0  0  0  0  0  0  0  0  0  0  0  0
    7.3670   -0.9395    0.0000 C   0  0  0  0  0  0  0  0  0  0  0  0
    8.0815   -1.3520    0.0000 C   0  0  0  0  0  0  0  0  0  0  0  0
    8.0815   -2.1770    0.0000 C   0  0  0  0  0  0  0  0  0  0  0  0
    3.4927   -2.7000    0.0000 H   0  0  0  0  0  0  0  0  0  0  0  0
    2.3657   -3.0020    0.0000 H   0  0  0  0  0  0  0  0  0  0  0  0
    2.6677   -4.1290    0.0000 H   0  0  0  0  0  0  0  0  0  0  0  0
    3.4244   -4.5643    0.0000 H   0  0  0  0  0  0  0  0  0  0  0  0
    4.1649   -4.5643    0.0000 H   0  0  0  0  0  0  0  0  0  0  0  0
    4.0558   -1.9002    0.0000 H   0  0  0  0  0  0  0  0  0  0  0  0
    3.6855   -2.5415    0.0000 H   0  0  0  0  0  0  0  0  0  0  0  0
    5.6361   -2.8915    0.0000 H   0  0  0  0  0  0  0  0  0  0  0  0
    5.9380   -1.7645    0.0000 H   0  0  0  0  0  0  0  0  0  0  0  0
    4.8111   -1.4625    0.0000 H   0  0  0  0  0  0  0  0  0  0  0  0
    4.8533   -4.5643    0.0000 H   0  0  0  0  0  0  0  0  0  0  0  0
    5.5938   -4.5643    0.0000 H   0  0  0  0  0  0  0  0  0  0  0  0
    6.5214   -2.8312    0.0000 H   0  0  0  0  0  0  0  0  0  0  0  0
    5.9380   -4.2395    0.0000 H   0  0  0  0  0  0  0  0  0  0  0  0
    6.7958   -4.6395    0.0000 H   0  0  0  0  0  0  0  0  0  0  0  0
    7.2845   -4.3573    0.0000 H   0  0  0  0  0  0  0  0  0  0  0  0
    8.1246   -3.0031    0.0000 H   0  0  0  0  0  0  0  0  0  0  0  0
    9.5686   -3.1137    0.0000 H   0  0  0  0  0  0  0  0  0  0  0  0
    9.1139   -2.7150    0.0000 H   0  0  0  0  0  0  0  0  0  0  0  0
   10.6247   -3.3901    0.0000 H   0  0  0  0  0  0  0  0  0  0  0  0
   11.4497   -4.8190    0.0000 H   0  0  0  0  0  0  0  0  0  0  0  0
   10.6247   -6.2480    0.0000 H   0  0  0  0  0  0  0  0  0  0  0  0
    8.9747   -6.2480    0.0000 H   0  0  0  0  0  0  0  0  0  0  0  0
    7.6853   -5.3168    0.0000 H   0  0  0  0  0  0  0  0  0  0  0  0
    8.2481   -5.4686    0.0000 H   0  0  0  0  0  0  0  0  0  0  0  0
    7.3670   -1.7645    0.0000 H   0  0  0  0  0  0  0  0  0  0  0  0
    6.2400   -0.6375    0.0000 H   0  0  0  0  0  0  0  0  0  0  0  0
    7.3670   -0.1145    0.0000 H   0  0  0  0  0  0  0  0  0  0  0  0
    8.7959   -0.9395    0.0000 H   0  0  0  0  0  0  0  0  0  0  0  0
    8.9062   -2.1555    0.0000 H   0  0  0  0  0  0  0  0  0  0  0  0
  1  2  1  0  0  0  0
  2  3  1  0  0  0  0
  3  4  1  0  0  0  0
  4  5  1  0  0  0  0
  3  6  1  0  0  0  0
  6  7  1  0  0  0  0
  7  8  1  0  0  0  0
  8  9  1  0  0  0  0
  9 10  1  0  0  0  0
 10 11  1  0  0  0  0
 11 12  1  0  0  0  0
 12 13  4  0  0  0  0
 13 14  4  0  0  0  0
 14 15  4  0  0  0  0
 15 16  4  0  0  0  0
 16 17  4  0  0  0  0
 12 17  4  0  0  0  0
 17 18  1  0  0  0  0
 10 18  1  0  0  0  0
  9 19  1  0  0  0  0
 19 20  4  0  0  0  0
 20 21  4  0  0  0  0
 21 22  4  0  0  0  0
 22 23  4  0  0  0  0
 23 24  4  0  0  0  0
 19 24  4  0  0  0  0
  1 25  1  0  0  0  0
  1 26  1  0  0  0  0
  1 27  1  0  0  0  0
  2 28  1  0  0  0  0
  2 29  1  0  0  0  0
  4 30  1  0  0  0  0
  4 31  1  0  0  0  0
  5 32  1  0  0  0  0
  5 33  1  0  0  0  0
  5 34  1  0  0  0  0
  6 35  1  0  0  0  0
  6 36  1  0  0  0  0
  7 37  1  0  0  0  0
  7 38  1  0  0  0  0
  8 39  1  0  0  0  0
  8 40  1  0  0  0  0
 10 41  1  0  0  0  0
 11 42  1  0  0  0  0
 11 43  1  0  0  0  0
 13 44  1  0  0  0  0
 14 45  1  0  0  0  0
 15 46  1  0  0  0  0
 16 47  1  0  0  0  0
 18 48  1  0  0  0  0
 18 49  1  0  0  0  0
 20 50  1  0  0  0  0
 21 51  1  0  0  0  0
 22 52  1  0  0  0  0
 23 53  1  0  0  0  0
 24 54  1  0  0  0  0
M  END
>  <InChIKey>
InChI=1S/C22H30N2/c1-3-23(4-2)15-10-16-24(21-13-6-5-7-14-21)22-17-19-11-8-9-12-20(19)18-22/h5-9,11-14,22H,3-4,10,15-18H2,1-2H3

>  <CASRN>
37640-71-4

> <Outcome>
0

>  <Index>
2343

>  <StandardizerResult>
Dearomatize (ID: Dearomatize)
Clear Stereo (ID: ClearStereo)
Wedge Clean (ID: WedgeClean)
Mesomerize (ID: Mesomerize)
Tautomerize (ID: Tautomerize)
Aromatize (ID: Aromatize)
Add Explicit Hydrogens (ID: AddExplicitH)
Neutralize (ID: Neutralize)
Clean 2D (ID: Clean2D)

> <knn Distance>
4.24264049530029

> <CpId>
2343

$$$$
2353
  Mrv1532301301811342D          

 91 95  0  0  0  0            999 V2000
    6.8986    1.4135    0.0000 C   0  0  0  0  0  0  0  0  0  0  0  0
    6.1233    1.1313    0.0000 C   0  0  0  0  0  0  0  0  0  0  0  0
    5.9801    1.9438    0.0000 C   0  0  0  0  0  0  0  0  0  0  0  0
    6.5358    0.4169    0.0000 C   0  0  0  0  0  0  0  0  0  0  0  0
    6.1233   -0.2976    0.0000 C   0  0  0  0  0  0  0  0  0  0  0  0
    5.2983   -0.2976    0.0000 C   0  0  0  0  0  0  0  0  0  0  0  0
    4.8858    0.4169    0.0000 C   0  0  0  0  0  0  0  0  0  0  0  0
    4.4733   -0.2976    0.0000 C   0  0  0  0  0  0  0  0  0  0  0  0
    5.2983    1.1313    0.0000 C   0  0  0  0  0  0  0  0  0  0  0  0
    4.8858    1.8458    0.0000 C   0  0  0  0  0  0  0  0  0  0  0  0
    4.0608    1.8458    0.0000 C   0  0  0  0  0  0  0  0  0  0  0  0
    3.6483    1.1313    0.0000 C   0  0  0  0  0  0  0  0  0  0  0  0
    3.2358    1.8458    0.0000 C   0  0  0  0  0  0  0  0  0  0  0  0
    4.0608    0.4169    0.0000 C   0  0  0  0  0  0  0  0  0  0  0  0
    3.6483   -0.2976    0.0000 C   0  0  0  0  0  0  0  0  0  0  0  0
    4.0608   -1.0121    0.0000 O   0  0  0  0  0  0  0  0  0  0  0  0
    2.8233   -0.2976    0.0000 C   0  0  0  0  0  0  0  0  0  0  0  0
    2.4108    0.4169    0.0000 C   0  0  0  0  0  0  0  0  0  0  0  0
    1.5858    0.4169    0.0000 C   0  0  0  0  0  0  0  0  0  0  0  0
    1.1733   -0.2976    0.0000 C   0  0  0  0  0  0  0  0  0  0  0  0
    0.3483   -0.2976    0.0000 C   0  0  0  0  0  0  0  0  0  0  0  0
    0.4916   -1.1101    0.0000 C   0  0  0  0  0  0  0  0  0  0  0  0
   -0.0642    0.4169    0.0000 C   0  0  0  0  0  0  0  0  0  0  0  0
    0.3483    1.1313    0.0000 C   0  0  0  0  0  0  0  0  0  0  0  0
    1.1733    1.1313    0.0000 C   0  0  0  0  0  0  0  0  0  0  0  0
    0.7608    1.8458    0.0000 C   0  0  0  0  0  0  0  0  0  0  0  0
    1.5858    1.8458    0.0000 C   0  0  0  0  0  0  0  0  0  0  0  0
    2.4108    1.8458    0.0000 C   0  0  0  0  0  0  0  0  0  0  0  0
    2.8233    1.1313    0.0000 C   0  0  0  0  0  0  0  0  0  0  0  0
    2.7371    1.9518    0.0000 C   0  0  0  0  0  0  0  0  0  0  0  0
   -0.4269   -0.5798    0.0000 C   0  0  0  0  0  0  0  0  0  0  0  0
   -0.5702   -1.3922    0.0000 O   0  0  0  0  0  0  0  0  0  0  0  0
   -1.0589   -0.0495    0.0000 O   0  0  0  0  0  0  0  0  0  0  0  0
    7.3608    0.4169    0.0000 O   0  0  0  0  0  0  0  0  0  0  0  0
    7.7733    1.1313    0.0000 C   0  0  0  0  0  0  0  0  0  0  0  0
    7.3608    1.8458    0.0000 O   0  0  0  0  0  0  0  0  0  0  0  0
    8.5983    1.1313    0.0000 C   0  0  0  0  0  0  0  0  0  0  0  0
    9.0108    1.8458    0.0000 C   0  0  0  0  0  0  0  0  0  0  0  0
    9.8358    1.8458    0.0000 C   0  0  0  0  0  0  0  0  0  0  0  0
   10.2483    2.5603    0.0000 O   0  0  0  0  0  0  0  0  0  0  0  0
   10.2483    1.1313    0.0000 O   0  0  0  0  0  0  0  0  0  0  0  0
    6.8211    2.2349    0.0000 H   0  0  0  0  0  0  0  0  0  0  0  0
    6.2013    1.8544    0.0000 H   0  0  0  0  0  0  0  0  0  0  0  0
    6.9139    0.5886    0.0000 H   0  0  0  0  0  0  0  0  0  0  0  0
    6.0618    2.7647    0.0000 H   0  0  0  0  0  0  0  0  0  0  0  0
    5.2689    2.3620    0.0000 H   0  0  0  0  0  0  0  0  0  0  0  0
    5.3024    1.4733    0.0000 H   0  0  0  0  0  0  0  0  0  0  0  0
    6.9483   -0.2976    0.0000 H   0  0  0  0  0  0  0  0  0  0  0  0
    5.8412   -1.0729    0.0000 H   0  0  0  0  0  0  0  0  0  0  0  0
    6.4055   -1.0729    0.0000 H   0  0  0  0  0  0  0  0  0  0  0  0
    4.9174   -1.0294    0.0000 H   0  0  0  0  0  0  0  0  0  0  0  0
    5.7108    0.4169    0.0000 H   0  0  0  0  0  0  0  0  0  0  0  0
    4.3360   -1.1111    0.0000 H   0  0  0  0  0  0  0  0  0  0  0  0
    4.6284   -1.1079    0.0000 H   0  0  0  0  0  0  0  0  0  0  0  0
    3.7589   -0.7101    0.0000 H   0  0  0  0  0  0  0  0  0  0  0  0
    4.4733    1.1313    0.0000 H   0  0  0  0  0  0  0  0  0  0  0  0
    4.8052    2.6668    0.0000 H   0  0  0  0  0  0  0  0  0  0  0  0
    4.2746    2.3999    0.0000 H   0  0  0  0  0  0  0  0  0  0  0  0
    3.8343    2.6391    0.0000 H   0  0  0  0  0  0  0  0  0  0  0  0
    3.4023    2.3427    0.0000 H   0  0  0  0  0  0  0  0  0  0  0  0
    3.1552    2.6668    0.0000 H   0  0  0  0  0  0  0  0  0  0  0  0
    2.8266    2.5621    0.0000 H   0  0  0  0  0  0  0  0  0  0  0  0
    2.5695    2.3322    0.0000 H   0  0  0  0  0  0  0  0  0  0  0  0
    3.2358    0.4169    0.0000 H   0  0  0  0  0  0  0  0  0  0  0  0
    2.4108   -1.0121    0.0000 H   0  0  0  0  0  0  0  0  0  0  0  0
    1.9983   -0.2976    0.0000 H   0  0  0  0  0  0  0  0  0  0  0  0
    0.8912   -1.0729    0.0000 H   0  0  0  0  0  0  0  0  0  0  0  0
    1.4555   -1.0729    0.0000 H   0  0  0  0  0  0  0  0  0  0  0  0
   -0.3073   -0.9043    0.0000 H   0  0  0  0  0  0  0  0  0  0  0  0
   -0.0264   -1.7522    0.0000 H   0  0  0  0  0  0  0  0  0  0  0  0
    0.8618   -1.8474    0.0000 H   0  0  0  0  0  0  0  0  0  0  0  0
   -0.8014    0.7871    0.0000 H   0  0  0  0  0  0  0  0  0  0  0  0
   -0.8014    0.0466    0.0000 H   0  0  0  0  0  0  0  0  0  0  0  0
   -0.1820    1.7633    0.0000 H   0  0  0  0  0  0  0  0  0  0  0  0
   -0.4641    1.2746    0.0000 H   0  0  0  0  0  0  0  0  0  0  0  0
    1.3313    2.4418    0.0000 H   0  0  0  0  0  0  0  0  0  0  0  0
    0.7249    2.6700    0.0000 H   0  0  0  0  0  0  0  0  0  0  0  0
    0.1406    2.3898    0.0000 H   0  0  0  0  0  0  0  0  0  0  0  0
    2.0404    2.5343    0.0000 H   0  0  0  0  0  0  0  0  0  0  0  0
    1.9983    1.1313    0.0000 H   0  0  0  0  0  0  0  0  0  0  0  0
    2.4108    1.0208    0.0000 H   0  0  0  0  0  0  0  0  0  0  0  0
    2.3374    2.6675    0.0000 H   0  0  0  0  0  0  0  0  0  0  0  0
    3.1496    1.2373    0.0000 H   0  0  0  0  0  0  0  0  0  0  0  0
    3.4045    1.4669    0.0000 H   0  0  0  0  0  0  0  0  0  0  0  0
    3.2575    2.5919    0.0000 H   0  0  0  0  0  0  0  0  0  0  0  0
   -1.3282   -1.7179    0.0000 H   0  0  0  0  0  0  0  0  0  0  0  0
    8.6463    0.3077    0.0000 H   0  0  0  0  0  0  0  0  0  0  0  0
    9.2876    0.6780    0.0000 H   0  0  0  0  0  0  0  0  0  0  0  0
    8.9629    2.6694    0.0000 H   0  0  0  0  0  0  0  0  0  0  0  0
    8.3216    2.2991    0.0000 H   0  0  0  0  0  0  0  0  0  0  0  0
   11.0733    2.5603    0.0000 H   0  0  0  0  0  0  0  0  0  0  0  0
  1  2  1  0  0  0  0
  2  3  1  0  0  0  0
  2  4  1  0  0  0  0
  4  5  1  0  0  0  0
  5  6  1  0  0  0  0
  6  7  1  0  0  0  0
  7  8  1  0  0  0  0
  7  9  1  0  0  0  0
  2  9  1  0  0  0  0
  9 10  1  0  0  0  0
 10 11  1  0  0  0  0
 11 12  1  0  0  0  0
 12 13  1  0  0  0  0
 12 14  1  0  0  0  0
  7 14  1  0  0  0  0
 14 15  1  0  0  0  0
 15 16  2  0  0  0  0
 15 17  1  0  0  0  0
 17 18  2  0  0  0  0
 18 19  1  0  0  0  0
 19 20  1  0  0  0  0
 20 21  1  0  0  0  0
 21 22  1  0  0  0  0
 21 23  1  0  0  0  0
 23 24  1  0  0  0  0
 24 25  1  0  0  0  0
 19 25  1  0  0  0  0
 25 26  1  0  0  0  0
 25 27  1  0  0  0  0
 27 28  1  0  0  0  0
 28 29  1  0  0  0  0
 12 29  1  0  0  0  0
 18 29  1  0  0  0  0
 29 30  1  0  0  0  0
 21 31  1  0  0  0  0
 31 32  1  0  0  0  0
 31 33  2  0  0  0  0
  4 34  1  0  0  0  0
 34 35  1  0  0  0  0
 35 36  2  0  0  0  0
 35 37  1  0  0  0  0
 37 38  1  0  0  0  0
 38 39  1  0  0  0  0
 39 40  1  0  0  0  0
 39 41  2  0  0  0  0
  1 42  1  0  0  0  0
  1 43  1  0  0  0  0
  1 44  1  0  0  0  0
  3 45  1  0  0  0  0
  3 46  1  0  0  0  0
  3 47  1  0  0  0  0
  4 48  1  0  0  0  0
  5 49  1  0  0  0  0
  5 50  1  0  0  0  0
  6 51  1  0  0  0  0
  6 52  1  0  0  0  0
  8 53  1  0  0  0  0
  8 54  1  0  0  0  0
  8 55  1  0  0  0  0
  9 56  1  0  0  0  0
 10 57  1  0  0  0  0
 10 58  1  0  0  0  0
 11 59  1  0  0  0  0
 11 60  1  0  0  0  0
 13 61  1  0  0  0  0
 13 62  1  0  0  0  0
 13 63  1  0  0  0  0
 14 64  1  0  0  0  0
 17 65  1  0  0  0  0
 19 66  1  0  0  0  0
 20 67  1  0  0  0  0
 20 68  1  0  0  0  0
 22 69  1  0  0  0  0
 22 70  1  0  0  0  0
 22 71  1  0  0  0  0
 23 72  1  0  0  0  0
 23 73  1  0  0  0  0
 24 74  1  0  0  0  0
 24 75  1  0  0  0  0
 26 76  1  0  0  0  0
 26 77  1  0  0  0  0
 26 78  1  0  0  0  0
 27 79  1  0  0  0  0
 27 80  1  0  0  0  0
 28 81  1  0  0  0  0
 28 82  1  0  0  0  0
 30 83  1  0  0  0  0
 30 84  1  0  0  0  0
 30 85  1  0  0  0  0
 32 86  1  0  0  0  0
 37 87  1  0  0  0  0
 37 88  1  0  0  0  0
 38 89  1  0  0  0  0
 38 90  1  0  0  0  0
 40 91  1  0  0  0  0
M  END
>  <InChIKey>
InChI=1S/C34H50O7/c1-29(2)23-10-13-34(7)27(32(23,5)12-11-24(29)41-26(38)9-8-25(36)37)22(35)18-20-21-19-31(4,28(39)40)15-14-30(21,3)16-17-33(20,34)6/h18,21,23-24,27H,8-17,19H2,1-7H3,(H,36,37)(H,39,40)

>  <CASRN>
5697-56-3

> <Outcome>
0

>  <Index>
2353

>  <StandardizerResult>
Clear Stereo (ID: ClearStereo)
Wedge Clean (ID: WedgeClean)
Mesomerize (ID: Mesomerize)
Tautomerize (ID: Tautomerize)
Add Explicit Hydrogens (ID: AddExplicitH)
Neutralize (ID: Neutralize)
Clean 2D (ID: Clean2D)

> <knn Distance>
4.24264049530029

> <CpId>
2353

$$$$
2367
  Mrv1532301301811342D          

 48 49  0  0  0  0            999 V2000
   -4.1714   -2.2928    0.0000 C   0  0  0  0  0  0  0  0  0  0  0  0
   -3.4570   -2.7053    0.0000 C   0  0  0  0  0  0  0  0  0  0  0  0
   -2.7425   -2.2928    0.0000 N   0  0  0  0  0  0  0  0  0  0  0  0
   -2.7425   -1.4678    0.0000 C   0  0  0  0  0  0  0  0  0  0  0  0
   -2.0280   -1.0553    0.0000 C   0  0  0  0  0  0  0  0  0  0  0  0
   -2.0280   -2.7053    0.0000 C   0  0  0  0  0  0  0  0  0  0  0  0
   -1.3136   -2.2928    0.0000 C   0  0  0  0  0  0  0  0  0  0  0  0
   -0.5991   -2.7053    0.0000 O   0  0  0  0  0  0  0  0  0  0  0  0
    0.1154   -2.2928    0.0000 C   0  0  0  0  0  0  0  0  0  0  0  0
    0.1154   -1.4678    0.0000 O   0  0  0  0  0  0  0  0  0  0  0  0
    0.8299   -2.7053    0.0000 C   0  0  0  0  0  0  0  0  0  0  0  0
    1.6145   -2.9602    0.0000 C   0  0  0  0  0  0  0  0  0  0  0  0
    1.6145   -3.7852    0.0000 C   0  0  0  0  0  0  0  0  0  0  0  0
    0.8299   -4.0401    0.0000 C   0  0  0  0  0  0  0  0  0  0  0  0
    0.3449   -3.3727    0.0000 C   0  0  0  0  0  0  0  0  0  0  0  0
    1.1654   -1.9516    0.0000 C   0  0  0  0  0  0  0  0  0  0  0  0
    0.6805   -1.2842    0.0000 C   0  0  0  0  0  0  0  0  0  0  0  0
    1.0161   -0.5305    0.0000 C   0  0  0  0  0  0  0  0  0  0  0  0
    1.8365   -0.4442    0.0000 C   0  0  0  0  0  0  0  0  0  0  0  0
    2.3215   -1.1117    0.0000 C   0  0  0  0  0  0  0  0  0  0  0  0
    1.9859   -1.8654    0.0000 C   0  0  0  0  0  0  0  0  0  0  0  0
   -3.7589   -1.5783    0.0000 H   0  0  0  0  0  0  0  0  0  0  0  0
   -4.8859   -1.8803    0.0000 H   0  0  0  0  0  0  0  0  0  0  0  0
   -4.5839   -3.0072    0.0000 H   0  0  0  0  0  0  0  0  0  0  0  0
   -3.8272   -3.4425    0.0000 H   0  0  0  0  0  0  0  0  0  0  0  0
   -3.0867   -3.4425    0.0000 H   0  0  0  0  0  0  0  0  0  0  0  0
   -3.1958   -0.7785    0.0000 H   0  0  0  0  0  0  0  0  0  0  0  0
   -3.5661   -1.4198    0.0000 H   0  0  0  0  0  0  0  0  0  0  0  0
   -1.6155   -1.7697    0.0000 H   0  0  0  0  0  0  0  0  0  0  0  0
   -1.3136   -0.6428    0.0000 H   0  0  0  0  0  0  0  0  0  0  0  0
   -2.4405   -0.3408    0.0000 H   0  0  0  0  0  0  0  0  0  0  0  0
   -2.3983   -3.4425    0.0000 H   0  0  0  0  0  0  0  0  0  0  0  0
   -1.6578   -3.4425    0.0000 H   0  0  0  0  0  0  0  0  0  0  0  0
   -0.7302   -1.7094    0.0000 H   0  0  0  0  0  0  0  0  0  0  0  0
   -1.3136   -3.1178    0.0000 H   0  0  0  0  0  0  0  0  0  0  0  0
    2.4315   -2.8454    0.0000 H   0  0  0  0  0  0  0  0  0  0  0  0
    1.9761   -2.2187    0.0000 H   0  0  0  0  0  0  0  0  0  0  0  0
    1.9761   -4.5267    0.0000 H   0  0  0  0  0  0  0  0  0  0  0  0
    2.4315   -3.9000    0.0000 H   0  0  0  0  0  0  0  0  0  0  0  0
    0.2364   -4.6132    0.0000 H   0  0  0  0  0  0  0  0  0  0  0  0
    0.9731   -4.8526    0.0000 H   0  0  0  0  0  0  0  0  0  0  0  0
   -0.3835   -2.9854    0.0000 H   0  0  0  0  0  0  0  0  0  0  0  0
   -0.3835   -3.7600    0.0000 H   0  0  0  0  0  0  0  0  0  0  0  0
    0.1285   -0.6711    0.0000 H   0  0  0  0  0  0  0  0  0  0  0  0
    0.9084    0.2875    0.0000 H   0  0  0  0  0  0  0  0  0  0  0  0
    2.1721    0.3094    0.0000 H   0  0  0  0  0  0  0  0  0  0  0  0
    3.1419   -1.0254    0.0000 H   0  0  0  0  0  0  0  0  0  0  0  0
    2.7904   -2.0480    0.0000 H   0  0  0  0  0  0  0  0  0  0  0  0
  1  2  1  0  0  0  0
  2  3  1  0  0  0  0
  3  4  1  0  0  0  0
  4  5  1  0  0  0  0
  3  6  1  0  0  0  0
  6  7  1  0  0  0  0
  7  8  1  0  0  0  0
  8  9  1  0  0  0  0
  9 10  2  0  0  0  0
  9 11  1  0  0  0  0
 11 12  1  0  0  0  0
 12 13  1  0  0  0  0
 13 14  1  0  0  0  0
 14 15  1  0  0  0  0
 11 15  1  0  0  0  0
 11 16  1  0  0  0  0
 16 17  4  0  0  0  0
 17 18  4  0  0  0  0
 18 19  4  0  0  0  0
 19 20  4  0  0  0  0
 20 21  4  0  0  0  0
 16 21  4  0  0  0  0
  1 22  1  0  0  0  0
  1 23  1  0  0  0  0
  1 24  1  0  0  0  0
  2 25  1  0  0  0  0
  2 26  1  0  0  0  0
  4 27  1  0  0  0  0
  4 28  1  0  0  0  0
  5 29  1  0  0  0  0
  5 30  1  0  0  0  0
  5 31  1  0  0  0  0
  6 32  1  0  0  0  0
  6 33  1  0  0  0  0
  7 34  1  0  0  0  0
  7 35  1  0  0  0  0
 12 36  1  0  0  0  0
 12 37  1  0  0  0  0
 13 38  1  0  0  0  0
 13 39  1  0  0  0  0
 14 40  1  0  0  0  0
 14 41  1  0  0  0  0
 15 42  1  0  0  0  0
 15 43  1  0  0  0  0
 17 44  1  0  0  0  0
 18 45  1  0  0  0  0
 19 46  1  0  0  0  0
 20 47  1  0  0  0  0
 21 48  1  0  0  0  0
M  END
>  <InChIKey>
InChI=1S/C18H27NO2/c1-3-19(4-2)14-15-21-17(20)18(12-8-9-13-18)16-10-6-5-7-11-16/h5-7,10-11H,3-4,8-9,12-15H2,1-2H3

>  <CASRN>
77-22-5

> <Outcome>
0

>  <Index>
2367

>  <StandardizerResult>
Dearomatize (ID: Dearomatize)
Clear Stereo (ID: ClearStereo)
Wedge Clean (ID: WedgeClean)
Mesomerize (ID: Mesomerize)
Tautomerize (ID: Tautomerize)
Aromatize (ID: Aromatize)
Add Explicit Hydrogens (ID: AddExplicitH)
Neutralize (ID: Neutralize)
Clean 2D (ID: Clean2D)

> <knn Distance>
4.24264049530029

> <CpId>
2367

$$$$
2383
  Mrv1532301301811342D          

 29 29  0  0  0  0            999 V2000
   -1.4778    2.4395    0.0000 C   0  0  0  0  0  0  0  0  0  0  0  0
   -0.7633    2.0270    0.0000 C   0  0  0  0  0  0  0  0  0  0  0  0
   -0.0488    2.4395    0.0000 C   0  0  0  0  0  0  0  0  0  0  0  0
    0.6657    2.0270    0.0000 C   0  0  0  0  0  0  0  0  0  0  0  0
    0.6657    1.2020    0.0000 C   0  0  0  0  0  0  0  0  0  0  0  0
    1.3801    0.7895    0.0000 C   0  0  0  0  0  0  0  0  0  0  0  0
    2.0946    1.2020    0.0000 I   0  0  0  0  0  0  0  0  0  0  0  0
    1.3801   -0.0355    0.0000 C   0  0  0  0  0  0  0  0  0  0  0  0
    0.6657   -0.4480    0.0000 C   0  0  0  0  0  0  0  0  0  0  0  0
    0.6657   -1.2730    0.0000 I   0  0  0  0  0  0  0  0  0  0  0  0
   -0.0488   -0.0355    0.0000 C   0  0  0  0  0  0  0  0  0  0  0  0
   -0.7633   -0.4480    0.0000 N   0  0  0  0  0  0  0  0  0  0  0  0
   -0.0488    0.7895    0.0000 C   0  0  0  0  0  0  0  0  0  0  0  0
   -0.7633    1.2020    0.0000 I   0  0  0  0  0  0  0  0  0  0  0  0
   -0.0488    3.2645    0.0000 C   0  0  0  0  0  0  0  0  0  0  0  0
    0.6657    3.6770    0.0000 O   0  0  0  0  0  0  0  0  0  0  0  0
   -0.7633    3.6770    0.0000 O   0  0  0  0  0  0  0  0  0  0  0  0
   -1.0653    3.1539    0.0000 H   0  0  0  0  0  0  0  0  0  0  0  0
   -2.1922    2.8520    0.0000 H   0  0  0  0  0  0  0  0  0  0  0  0
   -1.8903    1.7250    0.0000 H   0  0  0  0  0  0  0  0  0  0  0  0
   -1.4778    1.6145    0.0000 H   0  0  0  0  0  0  0  0  0  0  0  0
   -0.0488    1.6145    0.0000 H   0  0  0  0  0  0  0  0  0  0  0  0
    0.6657    2.8520    0.0000 H   0  0  0  0  0  0  0  0  0  0  0  0
    1.4409    1.7448    0.0000 H   0  0  0  0  0  0  0  0  0  0  0  0
    1.4409    2.3091    0.0000 H   0  0  0  0  0  0  0  0  0  0  0  0
    2.0946   -0.4480    0.0000 H   0  0  0  0  0  0  0  0  0  0  0  0
   -1.4778   -0.0355    0.0000 H   0  0  0  0  0  0  0  0  0  0  0  0
   -0.7633   -1.2730    0.0000 H   0  0  0  0  0  0  0  0  0  0  0  0
    1.0782    4.3914    0.0000 H   0  0  0  0  0  0  0  0  0  0  0  0
  1  2  1  0  0  0  0
  2  3  1  0  0  0  0
  3  4  1  0  0  0  0
  4  5  1  0  0  0  0
  5  6  4  0  0  0  0
  6  7  1  0  0  0  0
  6  8  4  0  0  0  0
  8  9  4  0  0  0  0
  9 10  1  0  0  0  0
  9 11  4  0  0  0  0
 11 12  1  0  0  0  0
 11 13  4  0  0  0  0
  5 13  4  0  0  0  0
 13 14  1  0  0  0  0
  3 15  1  0  0  0  0
 15 16  1  0  0  0  0
 15 17  2  0  0  0  0
  1 18  1  0  0  0  0
  1 19  1  0  0  0  0
  1 20  1  0  0  0  0
  2 21  1  0  0  0  0
  2 22  1  0  0  0  0
  3 23  1  0  0  0  0
  4 24  1  0  0  0  0
  4 25  1  0  0  0  0
  8 26  1  0  0  0  0
 12 27  1  0  0  0  0
 12 28  1  0  0  0  0
 16 29  1  0  0  0  0
M  END
>  <InChIKey>
InChI=1S/C11H12I3NO2/c1-2-5(11(16)17)3-6-7(12)4-8(13)10(15)9(6)14/h4-5H,2-3,15H2,1H3,(H,16,17)

>  <CASRN>
96-83-3

> <Outcome>
0

>  <Index>
2383

>  <StandardizerResult>
Dearomatize (ID: Dearomatize)
Clear Stereo (ID: ClearStereo)
Wedge Clean (ID: WedgeClean)
Mesomerize (ID: Mesomerize)
Tautomerize (ID: Tautomerize)
Aromatize (ID: Aromatize)
Add Explicit Hydrogens (ID: AddExplicitH)
Neutralize (ID: Neutralize)
Clean 2D (ID: Clean2D)

> <knn Distance>
4.24264049530029

> <CpId>
2383

$$$$
2507
  Mrv1532301301811342D          

 49 51  0  0  0  0            999 V2000
   -2.8385   -2.6756    0.0000 C   0  0  0  0  0  0  0  0  0  0  0  0
   -2.1240   -3.0881    0.0000 N   0  0  0  0  0  0  0  0  0  0  0  0
   -2.1240   -3.9131    0.0000 C   0  0  0  0  0  0  0  0  0  0  0  0
   -1.4096   -2.6756    0.0000 C   0  0  0  0  0  0  0  0  0  0  0  0
   -0.6951   -3.0881    0.0000 C   0  0  0  0  0  0  0  0  0  0  0  0
    0.0194   -2.6756    0.0000 C   0  0  0  0  0  0  0  0  0  0  0  0
    0.7338   -3.0881    0.0000 N   0  0  0  0  0  0  0  0  0  0  0  0
    1.4875   -2.7525    0.0000 C   0  0  0  0  0  0  0  0  0  0  0  0
    1.5307   -1.9286    0.0000 C   0  0  0  0  0  0  0  0  0  0  0  0
    2.1438   -1.3766    0.0000 C   0  0  0  0  0  0  0  0  0  0  0  0
    2.9677   -1.4198    0.0000 C   0  0  0  0  0  0  0  0  0  0  0  0
    3.5197   -2.0329    0.0000 C   0  0  0  0  0  0  0  0  0  0  0  0
    3.4765   -2.8568    0.0000 C   0  0  0  0  0  0  0  0  0  0  0  0
    2.8634   -3.4088    0.0000 C   0  0  0  0  0  0  0  0  0  0  0  0
    2.0395   -3.3656    0.0000 C   0  0  0  0  0  0  0  0  0  0  0  0
    1.6270   -4.0801    0.0000 C   0  0  0  0  0  0  0  0  0  0  0  0
    1.8820   -4.8647    0.0000 C   0  0  0  0  0  0  0  0  0  0  0  0
    1.3299   -5.4778    0.0000 C   0  0  0  0  0  0  0  0  0  0  0  0
    0.5230   -5.3063    0.0000 C   0  0  0  0  0  0  0  0  0  0  0  0
    0.2680   -4.5216    0.0000 C   0  0  0  0  0  0  0  0  0  0  0  0
    0.8201   -3.9086    0.0000 C   0  0  0  0  0  0  0  0  0  0  0  0
   -2.4260   -1.9611    0.0000 H   0  0  0  0  0  0  0  0  0  0  0  0
   -3.5530   -2.2631    0.0000 H   0  0  0  0  0  0  0  0  0  0  0  0
   -3.2510   -3.3900    0.0000 H   0  0  0  0  0  0  0  0  0  0  0  0
   -2.9490   -3.9131    0.0000 H   0  0  0  0  0  0  0  0  0  0  0  0
   -2.1240   -4.7381    0.0000 H   0  0  0  0  0  0  0  0  0  0  0  0
   -1.2990   -3.9131    0.0000 H   0  0  0  0  0  0  0  0  0  0  0  0
   -1.0393   -1.9383    0.0000 H   0  0  0  0  0  0  0  0  0  0  0  0
   -1.7798   -1.9383    0.0000 H   0  0  0  0  0  0  0  0  0  0  0  0
   -1.0654   -3.8253    0.0000 H   0  0  0  0  0  0  0  0  0  0  0  0
   -0.3248   -3.8253    0.0000 H   0  0  0  0  0  0  0  0  0  0  0  0
    0.3896   -1.9383    0.0000 H   0  0  0  0  0  0  0  0  0  0  0  0
   -0.3509   -1.9383    0.0000 H   0  0  0  0  0  0  0  0  0  0  0  0
    1.0059   -1.2921    0.0000 H   0  0  0  0  0  0  0  0  0  0  0  0
    0.7057   -1.9214    0.0000 H   0  0  0  0  0  0  0  0  0  0  0  0
    2.2229   -0.5554    0.0000 H   0  0  0  0  0  0  0  0  0  0  0  0
    1.5655   -0.7882    0.0000 H   0  0  0  0  0  0  0  0  0  0  0  0
    3.6042   -0.8950    0.0000 H   0  0  0  0  0  0  0  0  0  0  0  0
    2.9749   -0.5948    0.0000 H   0  0  0  0  0  0  0  0  0  0  0  0
    4.3409   -2.1120    0.0000 H   0  0  0  0  0  0  0  0  0  0  0  0
    4.1081   -1.4546    0.0000 H   0  0  0  0  0  0  0  0  0  0  0  0
    4.0013   -3.4933    0.0000 H   0  0  0  0  0  0  0  0  0  0  0  0
    4.3015   -2.8640    0.0000 H   0  0  0  0  0  0  0  0  0  0  0  0
    2.7843   -4.2300    0.0000 H   0  0  0  0  0  0  0  0  0  0  0  0
    3.4417   -3.9972    0.0000 H   0  0  0  0  0  0  0  0  0  0  0  0
    2.6890   -5.0362    0.0000 H   0  0  0  0  0  0  0  0  0  0  0  0
    1.5849   -6.2624    0.0000 H   0  0  0  0  0  0  0  0  0  0  0  0
   -0.0291   -5.9194    0.0000 H   0  0  0  0  0  0  0  0  0  0  0  0
   -0.4521   -4.9242    0.0000 H   0  0  0  0  0  0  0  0  0  0  0  0
  1  2  1  0  0  0  0
  2  3  1  0  0  0  0
  2  4  1  0  0  0  0
  4  5  1  0  0  0  0
  5  6  1  0  0  0  0
  6  7  1  0  0  0  0
  7  8  4  0  0  0  0
  8  9  1  0  0  0  0
  9 10  1  0  0  0  0
 10 11  1  0  0  0  0
 11 12  1  0  0  0  0
 12 13  1  0  0  0  0
 13 14  1  0  0  0  0
 14 15  1  0  0  0  0
  8 15  4  0  0  0  0
 15 16  4  0  0  0  0
 16 17  4  0  0  0  0
 17 18  4  0  0  0  0
 18 19  4  0  0  0  0
 19 20  4  0  0  0  0
 20 21  4  0  0  0  0
  7 21  4  0  0  0  0
 16 21  4  0  0  0  0
  1 22  1  0  0  0  0
  1 23  1  0  0  0  0
  1 24  1  0  0  0  0
  3 25  1  0  0  0  0
  3 26  1  0  0  0  0
  3 27  1  0  0  0  0
  4 28  1  0  0  0  0
  4 29  1  0  0  0  0
  5 30  1  0  0  0  0
  5 31  1  0  0  0  0
  6 32  1  0  0  0  0
  6 33  1  0  0  0  0
  9 34  1  0  0  0  0
  9 35  1  0  0  0  0
 10 36  1  0  0  0  0
 10 37  1  0  0  0  0
 11 38  1  0  0  0  0
 11 39  1  0  0  0  0
 12 40  1  0  0  0  0
 12 41  1  0  0  0  0
 13 42  1  0  0  0  0
 13 43  1  0  0  0  0
 14 44  1  0  0  0  0
 14 45  1  0  0  0  0
 17 46  1  0  0  0  0
 18 47  1  0  0  0  0
 19 48  1  0  0  0  0
 20 49  1  0  0  0  0
M  END
>  <InChIKey>
InChI=1S/C19H28N2/c1-20(2)14-9-15-21-18-12-6-4-3-5-10-16(18)17-11-7-8-13-19(17)21/h7-8,11,13H,3-6,9-10,12,14-15H2,1-2H3

>  <CASRN>
5560-72-5

> <Outcome>
0

>  <Index>
2507

>  <StandardizerResult>
Dearomatize (ID: Dearomatize)
Clear Stereo (ID: ClearStereo)
Wedge Clean (ID: WedgeClean)
Mesomerize (ID: Mesomerize)
Tautomerize (ID: Tautomerize)
Aromatize (ID: Aromatize)
Add Explicit Hydrogens (ID: AddExplicitH)
Neutralize (ID: Neutralize)
Clean 2D (ID: Clean2D)

> <knn Distance>
4.24264049530029

> <CpId>
2507

$$$$
2659
  Mrv1532301301811342D          

 37 38  0  0  0  0            999 V2000
    2.5148   -2.1640    0.0000 C   0  0  0  0  0  0  0  0  0  0  0  0
    2.1023   -2.8784    0.0000 C   0  0  0  0  0  0  0  0  0  0  0  0
    1.6898   -3.5929    0.0000 C   0  0  0  0  0  0  0  0  0  0  0  0
    2.8168   -3.2909    0.0000 O   0  0  0  0  0  0  0  0  0  0  0  0
    2.8168   -4.1159    0.0000 C   0  0  0  0  0  0  0  0  0  0  0  0
    3.5313   -4.5284    0.0000 C   0  0  0  0  0  0  0  0  0  0  0  0
    3.5313   -5.3534    0.0000 C   0  0  0  0  0  0  0  0  0  0  0  0
    2.8168   -5.7659    0.0000 C   0  0  0  0  0  0  0  0  0  0  0  0
    2.8168   -6.5909    0.0000 Cl  0  0  0  0  0  0  0  0  0  0  0  0
    2.1023   -5.3534    0.0000 C   0  0  0  0  0  0  0  0  0  0  0  0
    2.1023   -4.5284    0.0000 C   0  0  0  0  0  0  0  0  0  0  0  0
    1.3879   -2.4659    0.0000 C   0  0  0  0  0  0  0  0  0  0  0  0
    0.6734   -2.8784    0.0000 O   0  0  0  0  0  0  0  0  0  0  0  0
    1.3879   -1.6409    0.0000 O   0  0  0  0  0  0  0  0  0  0  0  0
    0.6734   -1.2284    0.0000 C   0  0  0  0  0  0  0  0  0  0  0  0
    0.6734   -0.4034    0.0000 C   0  0  0  0  0  0  0  0  0  0  0  0
   -0.0411    0.0091    0.0000 C   0  0  0  0  0  0  0  0  0  0  0  0
   -0.0411    0.8341    0.0000 C   0  0  0  0  0  0  0  0  0  0  0  0
    0.6734    1.2466    0.0000 C   0  0  0  0  0  0  0  0  0  0  0  0
    1.3879    0.8341    0.0000 N   0  0  0  0  0  0  0  0  0  0  0  0
    1.3879    0.0091    0.0000 C   0  0  0  0  0  0  0  0  0  0  0  0
    3.2293   -2.5765    0.0000 H   0  0  0  0  0  0  0  0  0  0  0  0
    2.9273   -1.4495    0.0000 H   0  0  0  0  0  0  0  0  0  0  0  0
    1.8004   -1.7515    0.0000 H   0  0  0  0  0  0  0  0  0  0  0  0
    0.9754   -3.1804    0.0000 H   0  0  0  0  0  0  0  0  0  0  0  0
    1.2773   -4.3074    0.0000 H   0  0  0  0  0  0  0  0  0  0  0  0
    2.4043   -4.0054    0.0000 H   0  0  0  0  0  0  0  0  0  0  0  0
    4.2458   -4.1159    0.0000 H   0  0  0  0  0  0  0  0  0  0  0  0
    4.2458   -5.7659    0.0000 H   0  0  0  0  0  0  0  0  0  0  0  0
    1.3879   -5.7659    0.0000 H   0  0  0  0  0  0  0  0  0  0  0  0
    2.8168   -4.9409    0.0000 H   0  0  0  0  0  0  0  0  0  0  0  0
   -0.1502   -1.2764    0.0000 H   0  0  0  0  0  0  0  0  0  0  0  0
    0.2201   -1.9177    0.0000 H   0  0  0  0  0  0  0  0  0  0  0  0
   -0.7555   -0.4034    0.0000 H   0  0  0  0  0  0  0  0  0  0  0  0
   -0.7555    1.2466    0.0000 H   0  0  0  0  0  0  0  0  0  0  0  0
    0.6734    2.0716    0.0000 H   0  0  0  0  0  0  0  0  0  0  0  0
    2.1023   -0.4034    0.0000 H   0  0  0  0  0  0  0  0  0  0  0  0
  1  2  1  0  0  0  0
  2  3  1  0  0  0  0
  2  4  1  0  0  0  0
  4  5  1  0  0  0  0
  5  6  4  0  0  0  0
  6  7  4  0  0  0  0
  7  8  4  0  0  0  0
  8  9  1  0  0  0  0
  8 10  4  0  0  0  0
 10 11  4  0  0  0  0
  5 11  4  0  0  0  0
  2 12  1  0  0  0  0
 12 13  2  0  0  0  0
 12 14  1  0  0  0  0
 14 15  1  0  0  0  0
 15 16  1  0  0  0  0
 16 17  4  0  0  0  0
 17 18  4  0  0  0  0
 18 19  4  0  0  0  0
 19 20  4  0  0  0  0
 20 21  4  0  0  0  0
 16 21  4  0  0  0  0
  1 22  1  0  0  0  0
  1 23  1  0  0  0  0
  1 24  1  0  0  0  0
  3 25  1  0  0  0  0
  3 26  1  0  0  0  0
  3 27  1  0  0  0  0
  6 28  1  0  0  0  0
  7 29  1  0  0  0  0
 10 30  1  0  0  0  0
 11 31  1  0  0  0  0
 15 32  1  0  0  0  0
 15 33  1  0  0  0  0
 17 34  1  0  0  0  0
 18 35  1  0  0  0  0
 19 36  1  0  0  0  0
 21 37  1  0  0  0  0
M  END
>  <InChIKey>
InChI=1S/C16H16ClNO3/c1-16(2,21-14-7-5-13(17)6-8-14)15(19)20-11-12-4-3-9-18-10-12/h3-10H,11H2,1-2H3

>  <CASRN>
31980-29-7

> <Outcome>
0

>  <Index>
2659

>  <StandardizerResult>
Dearomatize (ID: Dearomatize)
Clear Stereo (ID: ClearStereo)
Wedge Clean (ID: WedgeClean)
Mesomerize (ID: Mesomerize)
Tautomerize (ID: Tautomerize)
Aromatize (ID: Aromatize)
Add Explicit Hydrogens (ID: AddExplicitH)
Neutralize (ID: Neutralize)
Clean 2D (ID: Clean2D)

> <knn Distance>
4.24264049530029

> <CpId>
2659

$$$$
2739
  Mrv1532301301811342D          

 92 93  0  0  0  0            999 V2000
    5.4138  -12.6770    0.0000 C   0  0  0  0  0  0  0  0  0  0  0  0
    5.0013  -11.9625    0.0000 C   0  0  0  0  0  0  0  0  0  0  0  0
    4.5888  -11.2480    0.0000 C   0  0  0  0  0  0  0  0  0  0  0  0
    4.2868  -12.3750    0.0000 O   0  0  0  0  0  0  0  0  0  0  0  0
    3.5724  -11.9625    0.0000 C   0  0  0  0  0  0  0  0  0  0  0  0
    2.8579  -12.3750    0.0000 C   0  0  0  0  0  0  0  0  0  0  0  0
    2.1434  -11.9625    0.0000 C   0  0  0  0  0  0  0  0  0  0  0  0
    2.1434  -11.1375    0.0000 C   0  0  0  0  0  0  0  0  0  0  0  0
    1.4289  -10.7250    0.0000 Cl  0  0  0  0  0  0  0  0  0  0  0  0
    2.8579  -10.7250    0.0000 C   0  0  0  0  0  0  0  0  0  0  0  0
    3.5724  -11.1375    0.0000 C   0  0  0  0  0  0  0  0  0  0  0  0
    5.7158  -11.5500    0.0000 C   0  0  0  0  0  0  0  0  0  0  0  0
    5.7158  -10.7250    0.0000 O   0  0  0  0  0  0  0  0  0  0  0  0
    6.4302  -11.9625    0.0000 O   0  0  0  0  0  0  0  0  0  0  0  0
    7.1447  -11.5500    0.0000 C   0  0  0  0  0  0  0  0  0  0  0  0
    7.8592  -11.9625    0.0000 C   0  0  0  0  0  0  0  0  0  0  0  0
    8.5737  -11.5500    0.0000 S   0  0  0  0  0  0  0  0  0  0  0  0
    9.2881  -11.9625    0.0000 C   0  0  0  0  0  0  0  0  0  0  0  0
   10.0026  -11.5500    0.0000 C   0  0  0  0  0  0  0  0  0  0  0  0
   10.7171  -11.9625    0.0000 C   0  0  0  0  0  0  0  0  0  0  0  0
   11.4315  -11.5500    0.0000 C   0  0  0  0  0  0  0  0  0  0  0  0
   12.1460  -11.9625    0.0000 C   0  0  0  0  0  0  0  0  0  0  0  0
   12.8605  -11.5500    0.0000 C   0  0  0  0  0  0  0  0  0  0  0  0
   13.5750  -11.9625    0.0000 C   0  0  0  0  0  0  0  0  0  0  0  0
   14.2894  -11.5500    0.0000 C   0  0  0  0  0  0  0  0  0  0  0  0
   15.0039  -11.9625    0.0000 C   0  0  0  0  0  0  0  0  0  0  0  0
   15.7184  -11.5500    0.0000 C   0  0  0  0  0  0  0  0  0  0  0  0
   16.4328  -11.9625    0.0000 S   0  0  0  0  0  0  0  0  0  0  0  0
   17.1473  -11.5500    0.0000 C   0  0  0  0  0  0  0  0  0  0  0  0
   17.8618  -11.9625    0.0000 C   0  0  0  0  0  0  0  0  0  0  0  0
   18.5762  -11.5500    0.0000 O   0  0  0  0  0  0  0  0  0  0  0  0
   19.2907  -11.9625    0.0000 C   0  0  0  0  0  0  0  0  0  0  0  0
   19.2907  -12.7875    0.0000 O   0  0  0  0  0  0  0  0  0  0  0  0
   20.0052  -11.5500    0.0000 C   0  0  0  0  0  0  0  0  0  0  0  0
   20.4177  -12.2645    0.0000 C   0  0  0  0  0  0  0  0  0  0  0  0
   19.5927  -10.8355    0.0000 C   0  0  0  0  0  0  0  0  0  0  0  0
   20.7197  -11.1375    0.0000 O   0  0  0  0  0  0  0  0  0  0  0  0
   21.4341  -11.5500    0.0000 C   0  0  0  0  0  0  0  0  0  0  0  0
   22.1486  -11.1375    0.0000 C   0  0  0  0  0  0  0  0  0  0  0  0
   22.8631  -11.5500    0.0000 C   0  0  0  0  0  0  0  0  0  0  0  0
   22.8631  -12.3750    0.0000 C   0  0  0  0  0  0  0  0  0  0  0  0
   23.5775  -12.7875    0.0000 Cl  0  0  0  0  0  0  0  0  0  0  0  0
   22.1486  -12.7875    0.0000 C   0  0  0  0  0  0  0  0  0  0  0  0
   21.4341  -12.3750    0.0000 C   0  0  0  0  0  0  0  0  0  0  0  0
    4.6993  -13.0895    0.0000 H   0  0  0  0  0  0  0  0  0  0  0  0
    5.8263  -13.3914    0.0000 H   0  0  0  0  0  0  0  0  0  0  0  0
    6.1283  -12.2645    0.0000 H   0  0  0  0  0  0  0  0  0  0  0  0
    5.3033  -10.8355    0.0000 H   0  0  0  0  0  0  0  0  0  0  0  0
    4.1763  -10.5336    0.0000 H   0  0  0  0  0  0  0  0  0  0  0  0
    3.8743  -11.6605    0.0000 H   0  0  0  0  0  0  0  0  0  0  0  0
    2.8579  -13.2000    0.0000 H   0  0  0  0  0  0  0  0  0  0  0  0
    1.4289  -12.3750    0.0000 H   0  0  0  0  0  0  0  0  0  0  0  0
    2.8579   -9.9000    0.0000 H   0  0  0  0  0  0  0  0  0  0  0  0
    2.8579  -11.5500    0.0000 H   0  0  0  0  0  0  0  0  0  0  0  0
    7.5150  -10.8128    0.0000 H   0  0  0  0  0  0  0  0  0  0  0  0
    6.7745  -10.8128    0.0000 H   0  0  0  0  0  0  0  0  0  0  0  0
    7.4889  -12.6997    0.0000 H   0  0  0  0  0  0  0  0  0  0  0  0
    8.2294  -12.6997    0.0000 H   0  0  0  0  0  0  0  0  0  0  0  0
    8.9179  -12.6997    0.0000 H   0  0  0  0  0  0  0  0  0  0  0  0
    9.6584  -12.6997    0.0000 H   0  0  0  0  0  0  0  0  0  0  0  0
   10.3729  -10.8128    0.0000 H   0  0  0  0  0  0  0  0  0  0  0  0
    9.6323  -10.8128    0.0000 H   0  0  0  0  0  0  0  0  0  0  0  0
   10.3468  -12.6997    0.0000 H   0  0  0  0  0  0  0  0  0  0  0  0
   11.0873  -12.6997    0.0000 H   0  0  0  0  0  0  0  0  0  0  0  0
   11.8018  -10.8128    0.0000 H   0  0  0  0  0  0  0  0  0  0  0  0
   11.0613  -10.8128    0.0000 H   0  0  0  0  0  0  0  0  0  0  0  0
   11.7758  -12.6997    0.0000 H   0  0  0  0  0  0  0  0  0  0  0  0
   12.5163  -12.6997    0.0000 H   0  0  0  0  0  0  0  0  0  0  0  0
   13.2307  -10.8128    0.0000 H   0  0  0  0  0  0  0  0  0  0  0  0
   12.4902  -10.8128    0.0000 H   0  0  0  0  0  0  0  0  0  0  0  0
   13.2047  -12.6997    0.0000 H   0  0  0  0  0  0  0  0  0  0  0  0
   13.9452  -12.6997    0.0000 H   0  0  0  0  0  0  0  0  0  0  0  0
   14.6597  -10.8128    0.0000 H   0  0  0  0  0  0  0  0  0  0  0  0
   13.9192  -10.8128    0.0000 H   0  0  0  0  0  0  0  0  0  0  0  0
   14.6336  -12.6997    0.0000 H   0  0  0  0  0  0  0  0  0  0  0  0
   15.3742  -12.6997    0.0000 H   0  0  0  0  0  0  0  0  0  0  0  0
   16.0886  -10.8128    0.0000 H   0  0  0  0  0  0  0  0  0  0  0  0
   15.3481  -10.8128    0.0000 H   0  0  0  0  0  0  0  0  0  0  0  0
   17.5176  -10.8128    0.0000 H   0  0  0  0  0  0  0  0  0  0  0  0
   16.7770  -10.8128    0.0000 H   0  0  0  0  0  0  0  0  0  0  0  0
   17.4915  -12.6997    0.0000 H   0  0  0  0  0  0  0  0  0  0  0  0
   18.2320  -12.6997    0.0000 H   0  0  0  0  0  0  0  0  0  0  0  0
   19.7032  -12.6770    0.0000 H   0  0  0  0  0  0  0  0  0  0  0  0
   20.8302  -12.9789    0.0000 H   0  0  0  0  0  0  0  0  0  0  0  0
   21.1322  -11.8520    0.0000 H   0  0  0  0  0  0  0  0  0  0  0  0
   20.3072  -10.4230    0.0000 H   0  0  0  0  0  0  0  0  0  0  0  0
   19.1802  -10.1211    0.0000 H   0  0  0  0  0  0  0  0  0  0  0  0
   18.8782  -11.2480    0.0000 H   0  0  0  0  0  0  0  0  0  0  0  0
   22.1486  -10.3125    0.0000 H   0  0  0  0  0  0  0  0  0  0  0  0
   23.5775  -11.1375    0.0000 H   0  0  0  0  0  0  0  0  0  0  0  0
   22.1486  -13.6125    0.0000 H   0  0  0  0  0  0  0  0  0  0  0  0
   22.1486  -11.9625    0.0000 H   0  0  0  0  0  0  0  0  0  0  0  0
  1  2  1  0  0  0  0
  2  3  1  0  0  0  0
  2  4  1  0  0  0  0
  4  5  1  0  0  0  0
  5  6  4  0  0  0  0
  6  7  4  0  0  0  0
  7  8  4  0  0  0  0
  8  9  1  0  0  0  0
  8 10  4  0  0  0  0
 10 11  4  0  0  0  0
  5 11  4  0  0  0  0
  2 12  1  0  0  0  0
 12 13  2  0  0  0  0
 12 14  1  0  0  0  0
 14 15  1  0  0  0  0
 15 16  1  0  0  0  0
 16 17  1  0  0  0  0
 17 18  1  0  0  0  0
 18 19  1  0  0  0  0
 19 20  1  0  0  0  0
 20 21  1  0  0  0  0
 21 22  1  0  0  0  0
 22 23  1  0  0  0  0
 23 24  1  0  0  0  0
 24 25  1  0  0  0  0
 25 26  1  0  0  0  0
 26 27  1  0  0  0  0
 27 28  1  0  0  0  0
 28 29  1  0  0  0  0
 29 30  1  0  0  0  0
 30 31  1  0  0  0  0
 31 32  1  0  0  0  0
 32 33  2  0  0  0  0
 32 34  1  0  0  0  0
 34 35  1  0  0  0  0
 34 36  1  0  0  0  0
 34 37  1  0  0  0  0
 37 38  1  0  0  0  0
 38 39  4  0  0  0  0
 39 40  4  0  0  0  0
 40 41  4  0  0  0  0
 41 42  1  0  0  0  0
 41 43  4  0  0  0  0
 43 44  4  0  0  0  0
 38 44  4  0  0  0  0
  1 45  1  0  0  0  0
  1 46  1  0  0  0  0
  1 47  1  0  0  0  0
  3 48  1  0  0  0  0
  3 49  1  0  0  0  0
  3 50  1  0  0  0  0
  6 51  1  0  0  0  0
  7 52  1  0  0  0  0
 10 53  1  0  0  0  0
 11 54  1  0  0  0  0
 15 55  1  0  0  0  0
 15 56  1  0  0  0  0
 16 57  1  0  0  0  0
 16 58  1  0  0  0  0
 18 59  1  0  0  0  0
 18 60  1  0  0  0  0
 19 61  1  0  0  0  0
 19 62  1  0  0  0  0
 20 63  1  0  0  0  0
 20 64  1  0  0  0  0
 21 65  1  0  0  0  0
 21 66  1  0  0  0  0
 22 67  1  0  0  0  0
 22 68  1  0  0  0  0
 23 69  1  0  0  0  0
 23 70  1  0  0  0  0
 24 71  1  0  0  0  0
 24 72  1  0  0  0  0
 25 73  1  0  0  0  0
 25 74  1  0  0  0  0
 26 75  1  0  0  0  0
 26 76  1  0  0  0  0
 27 77  1  0  0  0  0
 27 78  1  0  0  0  0
 29 79  1  0  0  0  0
 29 80  1  0  0  0  0
 30 81  1  0  0  0  0
 30 82  1  0  0  0  0
 35 83  1  0  0  0  0
 35 84  1  0  0  0  0
 35 85  1  0  0  0  0
 36 86  1  0  0  0  0
 36 87  1  0  0  0  0
 36 88  1  0  0  0  0
 39 89  1  0  0  0  0
 40 90  1  0  0  0  0
 43 91  1  0  0  0  0
 44 92  1  0  0  0  0
M  END
>  <InChIKey>
InChI=1S/C34H48Cl2O6S2/c1-33(2,41-29-17-13-27(35)14-18-29)31(37)39-21-25-43-23-11-9-7-5-6-8-10-12-24-44-26-22-40-32(38)34(3,4)42-30-19-15-28(36)16-20-30/h13-20H,5-12,21-26H2,1-4H3

>  <CASRN>
55837-28-0

> <Outcome>
0

>  <Index>
2739

>  <StandardizerResult>
Dearomatize (ID: Dearomatize)
Clear Stereo (ID: ClearStereo)
Wedge Clean (ID: WedgeClean)
Mesomerize (ID: Mesomerize)
Tautomerize (ID: Tautomerize)
Aromatize (ID: Aromatize)
Add Explicit Hydrogens (ID: AddExplicitH)
Neutralize (ID: Neutralize)
Clean 2D (ID: Clean2D)

> <knn Distance>
4.24264049530029

> <CpId>
2739

$$$$
2764
  Mrv1532301301811342D          

 48 50  0  0  0  0            999 V2000
    2.2025    1.2611    0.0000 C   0  0  0  0  0  0  0  0  0  0  0  0
    2.9170    0.8486    0.0000 N   0  0  0  0  0  0  0  0  0  0  0  0
    2.9170    0.0236    0.0000 C   0  0  0  0  0  0  0  0  0  0  0  0
    3.6315    1.2611    0.0000 C   0  0  0  0  0  0  0  0  0  0  0  0
    4.3459    0.8486    0.0000 C   0  0  0  0  0  0  0  0  0  0  0  0
    5.0604    1.2611    0.0000 C   0  0  0  0  0  0  0  0  0  0  0  0
    5.7749    0.8486    0.0000 N   0  0  0  0  0  0  0  0  0  0  0  0
    6.4893    1.2611    0.0000 C   0  0  0  0  0  0  0  0  0  0  0  0
    6.4893    2.0861    0.0000 C   0  0  0  0  0  0  0  0  0  0  0  0
    7.2038    2.4986    0.0000 C   0  0  0  0  0  0  0  0  0  0  0  0
    7.9183    2.0861    0.0000 C   0  0  0  0  0  0  0  0  0  0  0  0
    7.9183    1.2611    0.0000 C   0  0  0  0  0  0  0  0  0  0  0  0
    7.2038    0.8486    0.0000 C   0  0  0  0  0  0  0  0  0  0  0  0
    7.2038    0.0236    0.0000 C   0  0  0  0  0  0  0  0  0  0  0  0
    8.0163    0.1669    0.0000 C   0  0  0  0  0  0  0  0  0  0  0  0
    7.4860   -0.7516    0.0000 C   0  0  0  0  0  0  0  0  0  0  0  0
    6.4893   -0.3889    0.0000 C   0  0  0  0  0  0  0  0  0  0  0  0
    6.4893   -1.2139    0.0000 C   0  0  0  0  0  0  0  0  0  0  0  0
    5.7749   -1.6264    0.0000 C   0  0  0  0  0  0  0  0  0  0  0  0
    5.0604   -1.2139    0.0000 C   0  0  0  0  0  0  0  0  0  0  0  0
    5.0604   -0.3889    0.0000 C   0  0  0  0  0  0  0  0  0  0  0  0
    5.7749    0.0236    0.0000 C   0  0  0  0  0  0  0  0  0  0  0  0
    2.6150    1.9756    0.0000 H   0  0  0  0  0  0  0  0  0  0  0  0
    1.4880    1.6736    0.0000 H   0  0  0  0  0  0  0  0  0  0  0  0
    1.7900    0.5467    0.0000 H   0  0  0  0  0  0  0  0  0  0  0  0
    2.0920    0.0236    0.0000 H   0  0  0  0  0  0  0  0  0  0  0  0
    2.9170   -0.8014    0.0000 H   0  0  0  0  0  0  0  0  0  0  0  0
    3.7420    0.0236    0.0000 H   0  0  0  0  0  0  0  0  0  0  0  0
    4.0017    1.9984    0.0000 H   0  0  0  0  0  0  0  0  0  0  0  0
    3.2612    1.9984    0.0000 H   0  0  0  0  0  0  0  0  0  0  0  0
    3.9757    0.1114    0.0000 H   0  0  0  0  0  0  0  0  0  0  0  0
    4.7162    0.1114    0.0000 H   0  0  0  0  0  0  0  0  0  0  0  0
    5.4307    1.9984    0.0000 H   0  0  0  0  0  0  0  0  0  0  0  0
    4.6901    1.9984    0.0000 H   0  0  0  0  0  0  0  0  0  0  0  0
    5.7749    2.4986    0.0000 H   0  0  0  0  0  0  0  0  0  0  0  0
    7.2038    3.3236    0.0000 H   0  0  0  0  0  0  0  0  0  0  0  0
    8.6328    2.4986    0.0000 H   0  0  0  0  0  0  0  0  0  0  0  0
    8.6328    0.8486    0.0000 H   0  0  0  0  0  0  0  0  0  0  0  0
    8.0843   -0.6553    0.0000 H   0  0  0  0  0  0  0  0  0  0  0  0
    8.6764   -0.3279    0.0000 H   0  0  0  0  0  0  0  0  0  0  0  0
    7.6171    0.8889    0.0000 H   0  0  0  0  0  0  0  0  0  0  0  0
    6.6644   -0.6766    0.0000 H   0  0  0  0  0  0  0  0  0  0  0  0
    7.0682   -1.4630    0.0000 H   0  0  0  0  0  0  0  0  0  0  0  0
    7.9516   -1.4327    0.0000 H   0  0  0  0  0  0  0  0  0  0  0  0
    6.5377   -2.0374    0.0000 H   0  0  0  0  0  0  0  0  0  0  0  0
    5.3729   -2.3468    0.0000 H   0  0  0  0  0  0  0  0  0  0  0  0
    4.3459   -1.6264    0.0000 H   0  0  0  0  0  0  0  0  0  0  0  0
    4.2726   -0.6337    0.0000 H   0  0  0  0  0  0  0  0  0  0  0  0
  1  2  1  0  0  0  0
  2  3  1  0  0  0  0
  2  4  1  0  0  0  0
  4  5  1  0  0  0  0
  5  6  1  0  0  0  0
  6  7  1  0  0  0  0
  7  8  1  0  0  0  0
  8  9  4  0  0  0  0
  9 10  4  0  0  0  0
 10 11  4  0  0  0  0
 11 12  4  0  0  0  0
 12 13  4  0  0  0  0
  8 13  4  0  0  0  0
 13 14  1  0  0  0  0
 14 15  1  0  0  0  0
 14 16  1  0  0  0  0
 14 17  1  0  0  0  0
 17 18  4  0  0  0  0
 18 19  4  0  0  0  0
 19 20  4  0  0  0  0
 20 21  4  0  0  0  0
 21 22  4  0  0  0  0
  7 22  1  0  0  0  0
 17 22  4  0  0  0  0
  1 23  1  0  0  0  0
  1 24  1  0  0  0  0
  1 25  1  0  0  0  0
  3 26  1  0  0  0  0
  3 27  1  0  0  0  0
  3 28  1  0  0  0  0
  4 29  1  0  0  0  0
  4 30  1  0  0  0  0
  5 31  1  0  0  0  0
  5 32  1  0  0  0  0
  6 33  1  0  0  0  0
  6 34  1  0  0  0  0
  9 35  1  0  0  0  0
 10 36  1  0  0  0  0
 11 37  1  0  0  0  0
 12 38  1  0  0  0  0
 15 39  1  0  0  0  0
 15 40  1  0  0  0  0
 15 41  1  0  0  0  0
 16 42  1  0  0  0  0
 16 43  1  0  0  0  0
 16 44  1  0  0  0  0
 18 45  1  0  0  0  0
 19 46  1  0  0  0  0
 20 47  1  0  0  0  0
 21 48  1  0  0  0  0
M  END
>  <InChIKey>
InChI=1S/C20H26N2/c1-20(2)16-10-5-7-12-18(16)22(15-9-14-21(3)4)19-13-8-6-11-17(19)20/h5-8,10-13H,9,14-15H2,1-4H3

>  <CASRN>
4757-55-5

> <Outcome>
0

>  <Index>
2764

>  <StandardizerResult>
Dearomatize (ID: Dearomatize)
Clear Stereo (ID: ClearStereo)
Wedge Clean (ID: WedgeClean)
Mesomerize (ID: Mesomerize)
Tautomerize (ID: Tautomerize)
Aromatize (ID: Aromatize)
Add Explicit Hydrogens (ID: AddExplicitH)
Neutralize (ID: Neutralize)
Clean 2D (ID: Clean2D)

> <knn Distance>
4.24264049530029

> <CpId>
2764

$$$$
2836
  Mrv1532301301811342D          

 46 48  0  0  0  0            999 V2000
    3.5500   -2.9124    0.0000 C   0  0  0  0  0  0  0  0  0  0  0  0
    3.5500   -3.7374    0.0000 O   0  0  0  0  0  0  0  0  0  0  0  0
    2.8356   -4.1499    0.0000 C   0  0  0  0  0  0  0  0  0  0  0  0
    2.8356   -4.9749    0.0000 C   0  0  0  0  0  0  0  0  0  0  0  0
    2.1211   -5.3874    0.0000 C   0  0  0  0  0  0  0  0  0  0  0  0
    1.4066   -4.9749    0.0000 C   0  0  0  0  0  0  0  0  0  0  0  0
    0.6921   -5.3874    0.0000 C   0  0  0  0  0  0  0  0  0  0  0  0
    1.4066   -4.1499    0.0000 C   0  0  0  0  0  0  0  0  0  0  0  0
    2.1211   -3.7374    0.0000 C   0  0  0  0  0  0  0  0  0  0  0  0
    2.1211   -2.9124    0.0000 N   0  0  0  0  0  0  0  0  0  0  0  0
    1.4066   -2.4999    0.0000 N   0  0  0  0  0  0  0  0  0  0  0  0
    1.4066   -1.6749    0.0000 C   0  0  0  0  0  0  0  0  0  0  0  0
    0.6921   -1.2624    0.0000 C   0  0  0  0  0  0  0  0  0  0  0  0
   -0.0223   -1.6749    0.0000 O   0  0  0  0  0  0  0  0  0  0  0  0
    0.6921   -0.4374    0.0000 C   0  0  0  0  0  0  0  0  0  0  0  0
    1.4066   -0.0249    0.0000 C   0  0  0  0  0  0  0  0  0  0  0  0
    2.1211   -0.4374    0.0000 C   0  0  0  0  0  0  0  0  0  0  0  0
    2.8356   -0.0249    0.0000 C   0  0  0  0  0  0  0  0  0  0  0  0
    3.5500   -0.4374    0.0000 C   0  0  0  0  0  0  0  0  0  0  0  0
    3.5500   -1.2624    0.0000 C   0  0  0  0  0  0  0  0  0  0  0  0
    2.8356   -1.6749    0.0000 C   0  0  0  0  0  0  0  0  0  0  0  0
    2.1211   -1.2624    0.0000 C   0  0  0  0  0  0  0  0  0  0  0  0
    4.2645   -0.0249    0.0000 S   0  0  0  0  0  0  0  0  0  0  0  0
    4.9790    0.3876    0.0000 O   0  0  0  0  0  0  0  0  0  0  0  0
    3.8520    0.6896    0.0000 O   0  0  0  0  0  0  0  0  0  0  0  0
    4.6770   -0.7393    0.0000 O   0  0  0  0  0  0  0  0  0  0  0  0
    2.1211   -6.2124    0.0000 S   0  0  0  0  0  0  0  0  0  0  0  0
    2.1211   -7.0374    0.0000 O   0  0  0  0  0  0  0  0  0  0  0  0
    1.2961   -6.2124    0.0000 O   0  0  0  0  0  0  0  0  0  0  0  0
    2.9461   -6.2124    0.0000 O   0  0  0  0  0  0  0  0  0  0  0  0
    4.3750   -2.9124    0.0000 H   0  0  0  0  0  0  0  0  0  0  0  0
    3.5500   -2.0874    0.0000 H   0  0  0  0  0  0  0  0  0  0  0  0
    2.7250   -2.9124    0.0000 H   0  0  0  0  0  0  0  0  0  0  0  0
    3.5500   -5.3874    0.0000 H   0  0  0  0  0  0  0  0  0  0  0  0
    0.2796   -4.6729    0.0000 H   0  0  0  0  0  0  0  0  0  0  0  0
   -0.0223   -5.7999    0.0000 H   0  0  0  0  0  0  0  0  0  0  0  0
    1.1046   -6.1018    0.0000 H   0  0  0  0  0  0  0  0  0  0  0  0
    0.6921   -3.7374    0.0000 H   0  0  0  0  0  0  0  0  0  0  0  0
    2.3346   -2.1155    0.0000 H   0  0  0  0  0  0  0  0  0  0  0  0
   -0.0223   -0.0249    0.0000 H   0  0  0  0  0  0  0  0  0  0  0  0
    1.4066    0.8001    0.0000 H   0  0  0  0  0  0  0  0  0  0  0  0
    2.8356    0.8001    0.0000 H   0  0  0  0  0  0  0  0  0  0  0  0
    4.3750   -1.2624    0.0000 H   0  0  0  0  0  0  0  0  0  0  0  0
    2.8356   -0.8499    0.0000 H   0  0  0  0  0  0  0  0  0  0  0  0
    5.6934   -0.0249    0.0000 H   0  0  0  0  0  0  0  0  0  0  0  0
    1.4066   -7.4499    0.0000 H   0  0  0  0  0  0  0  0  0  0  0  0
  1  2  1  0  0  0  0
  2  3  1  0  0  0  0
  3  4  4  0  0  0  0
  4  5  4  0  0  0  0
  5  6  4  0  0  0  0
  6  7  1  0  0  0  0
  6  8  4  0  0  0  0
  8  9  4  0  0  0  0
  3  9  4  0  0  0  0
  9 10  1  0  0  0  0
 11 10  1  4  0  0  0
 11 12  2  0  0  0  0
 12 13  1  0  0  0  0
 13 14  2  0  0  0  0
 13 15  1  0  0  0  0
 15 16  2  0  0  0  0
 16 17  1  0  0  0  0
 17 18  4  0  0  0  0
 18 19  4  0  0  0  0
 19 20  4  0  0  0  0
 20 21  4  0  0  0  0
 21 22  4  0  0  0  0
 12 22  1  0  0  0  0
 17 22  4  0  0  0  0
 19 23  1  0  0  0  0
 23 24  1  0  0  0  0
 23 25  2  0  0  0  0
 23 26  2  0  0  0  0
  5 27  1  0  0  0  0
 27 28  1  0  0  0  0
 27 29  2  0  0  0  0
 27 30  2  0  0  0  0
  1 31  1  0  0  0  0
  1 32  1  0  0  0  0
  1 33  1  0  0  0  0
  4 34  1  0  0  0  0
  7 35  1  0  0  0  0
  7 36  1  0  0  0  0
  7 37  1  0  0  0  0
  8 38  1  0  0  0  0
 10 39  1  0  0  0  0
 15 40  1  0  0  0  0
 16 41  1  0  0  0  0
 18 42  1  0  0  0  0
 20 43  1  0  0  0  0
 21 44  1  0  0  0  0
 24 45  1  0  0  0  0
 28 46  1  0  0  0  0
M  END
>  <InChIKey>
InChI=1S/C18H16N2O8S2/c1-10-7-14(16(28-2)9-17(10)30(25,26)27)19-20-18-13-5-4-12(29(22,23)24)8-11(13)3-6-15(18)21/h3-9,19H,1-2H3,(H,22,23,24)(H,25,26,27)

>  <CASRN>
25956-17-6

> <Outcome>
0

>  <Index>
2836

>  <StandardizerResult>
Dearomatize (ID: Dearomatize)
Clear Stereo (ID: ClearStereo)
Wedge Clean (ID: WedgeClean)
Mesomerize (ID: Mesomerize)
Tautomerize (ID: Tautomerize)
Aromatize (ID: Aromatize)
Add Explicit Hydrogens (ID: AddExplicitH)
Neutralize (ID: Neutralize)
Clean 2D (ID: Clean2D)

> <knn Distance>
4.24264049530029

> <CpId>
2836

$$$$
2839
  Mrv1532301301811342D          

 25 25  0  0  0  0            999 V2000
   -0.7183    3.6964    0.0000 C   0  0  0  0  0  0  0  0  0  0  0  0
   -0.0038    3.2839    0.0000 N   0  0  0  0  0  0  0  0  0  0  0  0
   -0.0038    2.4589    0.0000 C   0  0  0  0  0  0  0  0  0  0  0  0
    0.7107    2.0464    0.0000 C   0  0  0  0  0  0  0  0  0  0  0  0
    1.4251    2.4589    0.0000 O   0  0  0  0  0  0  0  0  0  0  0  0
    0.7107    1.2214    0.0000 C   0  0  0  0  0  0  0  0  0  0  0  0
    1.4251    0.8089    0.0000 C   0  0  0  0  0  0  0  0  0  0  0  0
    1.4251   -0.0161    0.0000 C   0  0  0  0  0  0  0  0  0  0  0  0
    0.7107   -0.4286    0.0000 C   0  0  0  0  0  0  0  0  0  0  0  0
   -0.0038   -0.0161    0.0000 C   0  0  0  0  0  0  0  0  0  0  0  0
   -0.7183   -0.4286    0.0000 O   0  0  0  0  0  0  0  0  0  0  0  0
   -0.0038    0.8089    0.0000 C   0  0  0  0  0  0  0  0  0  0  0  0
   -0.3058    4.4108    0.0000 H   0  0  0  0  0  0  0  0  0  0  0  0
   -1.4328    4.1089    0.0000 H   0  0  0  0  0  0  0  0  0  0  0  0
   -1.1308    2.9819    0.0000 H   0  0  0  0  0  0  0  0  0  0  0  0
    0.7107    3.6964    0.0000 H   0  0  0  0  0  0  0  0  0  0  0  0
   -0.8274    2.4109    0.0000 H   0  0  0  0  0  0  0  0  0  0  0  0
   -0.4572    1.7696    0.0000 H   0  0  0  0  0  0  0  0  0  0  0  0
    0.7107    2.8714    0.0000 H   0  0  0  0  0  0  0  0  0  0  0  0
    2.2501    2.4589    0.0000 H   0  0  0  0  0  0  0  0  0  0  0  0
    2.1396    1.2214    0.0000 H   0  0  0  0  0  0  0  0  0  0  0  0
    2.1396   -0.4286    0.0000 H   0  0  0  0  0  0  0  0  0  0  0  0
    0.7107   -1.2536    0.0000 H   0  0  0  0  0  0  0  0  0  0  0  0
   -1.4328   -0.0161    0.0000 H   0  0  0  0  0  0  0  0  0  0  0  0
   -0.7183    1.2214    0.0000 H   0  0  0  0  0  0  0  0  0  0  0  0
  1  2  1  0  0  0  0
  2  3  1  0  0  0  0
  3  4  1  0  0  0  0
  4  5  1  0  0  0  0
  4  6  1  0  0  0  0
  6  7  4  0  0  0  0
  7  8  4  0  0  0  0
  8  9  4  0  0  0  0
  9 10  4  0  0  0  0
 10 11  1  0  0  0  0
 10 12  4  0  0  0  0
  6 12  4  0  0  0  0
  1 13  1  0  0  0  0
  1 14  1  0  0  0  0
  1 15  1  0  0  0  0
  2 16  1  0  0  0  0
  3 17  1  0  0  0  0
  3 18  1  0  0  0  0
  4 19  1  0  0  0  0
  5 20  1  0  0  0  0
  7 21  1  0  0  0  0
  8 22  1  0  0  0  0
  9 23  1  0  0  0  0
 11 24  1  0  0  0  0
 12 25  1  0  0  0  0
M  END
>  <InChIKey>
InChI=1S/C9H13NO2/c1-10-6-9(12)7-3-2-4-8(11)5-7/h2-5,9-12H,6H2,1H3

>  <UN GHS>
Non-irritant

>  <CASRN>
59-42-7

> <Outcome>
0

>  <Index>
2839

>  <StandardizerResult>
Dearomatize (ID: Dearomatize)
Clear Stereo (ID: ClearStereo)
Wedge Clean (ID: WedgeClean)
Mesomerize (ID: Mesomerize)
Tautomerize (ID: Tautomerize)
Aromatize (ID: Aromatize)
Add Explicit Hydrogens (ID: AddExplicitH)
Neutralize (ID: Neutralize)
Clean 2D (ID: Clean2D)

> <knn Distance>
4.24264049530029

> <CpId>
2839

$$$$
2923
  Mrv1532301301811342D          

 26 26  0  0  0  0            999 V2000
   -0.7181    3.6970    0.0000 C   0  0  0  0  0  0  0  0  0  0  0  0
   -0.0037    3.2845    0.0000 N   0  0  0  0  0  0  0  0  0  0  0  0
   -0.0037    2.4595    0.0000 C   0  0  0  0  0  0  0  0  0  0  0  0
    0.7108    2.0470    0.0000 C   0  0  0  0  0  0  0  0  0  0  0  0
    1.4253    2.4595    0.0000 O   0  0  0  0  0  0  0  0  0  0  0  0
    0.7108    1.2220    0.0000 C   0  0  0  0  0  0  0  0  0  0  0  0
    1.4253    0.8095    0.0000 C   0  0  0  0  0  0  0  0  0  0  0  0
    1.4253   -0.0155    0.0000 C   0  0  0  0  0  0  0  0  0  0  0  0
    0.7108   -0.4280    0.0000 C   0  0  0  0  0  0  0  0  0  0  0  0
    0.7108   -1.2530    0.0000 O   0  0  0  0  0  0  0  0  0  0  0  0
   -0.0037   -0.0155    0.0000 C   0  0  0  0  0  0  0  0  0  0  0  0
   -0.7181   -0.4280    0.0000 O   0  0  0  0  0  0  0  0  0  0  0  0
   -0.0037    0.8095    0.0000 C   0  0  0  0  0  0  0  0  0  0  0  0
   -0.3056    4.4114    0.0000 H   0  0  0  0  0  0  0  0  0  0  0  0
   -1.4326    4.1095    0.0000 H   0  0  0  0  0  0  0  0  0  0  0  0
   -1.1306    2.9825    0.0000 H   0  0  0  0  0  0  0  0  0  0  0  0
    0.7108    3.6970    0.0000 H   0  0  0  0  0  0  0  0  0  0  0  0
   -0.8273    2.4115    0.0000 H   0  0  0  0  0  0  0  0  0  0  0  0
   -0.4570    1.7702    0.0000 H   0  0  0  0  0  0  0  0  0  0  0  0
    0.7108    2.8720    0.0000 H   0  0  0  0  0  0  0  0  0  0  0  0
    2.2503    2.4595    0.0000 H   0  0  0  0  0  0  0  0  0  0  0  0
    2.1397    1.2220    0.0000 H   0  0  0  0  0  0  0  0  0  0  0  0
    2.1397   -0.4280    0.0000 H   0  0  0  0  0  0  0  0  0  0  0  0
   -0.0037   -1.6655    0.0000 H   0  0  0  0  0  0  0  0  0  0  0  0
   -1.4326   -0.0155    0.0000 H   0  0  0  0  0  0  0  0  0  0  0  0
   -0.7181    1.2220    0.0000 H   0  0  0  0  0  0  0  0  0  0  0  0
  1  2  1  0  0  0  0
  2  3  1  0  0  0  0
  3  4  1  0  0  0  0
  4  5  1  0  0  0  0
  4  6  1  0  0  0  0
  6  7  4  0  0  0  0
  7  8  4  0  0  0  0
  8  9  4  0  0  0  0
  9 10  1  0  0  0  0
  9 11  4  0  0  0  0
 11 12  1  0  0  0  0
 11 13  4  0  0  0  0
  6 13  4  0  0  0  0
  1 14  1  0  0  0  0
  1 15  1  0  0  0  0
  1 16  1  0  0  0  0
  2 17  1  0  0  0  0
  3 18  1  0  0  0  0
  3 19  1  0  0  0  0
  4 20  1  0  0  0  0
  5 21  1  0  0  0  0
  7 22  1  0  0  0  0
  8 23  1  0  0  0  0
 10 24  1  0  0  0  0
 12 25  1  0  0  0  0
 13 26  1  0  0  0  0
M  END
>  <InChIKey>
InChI=1S/C9H13NO3/c1-10-5-9(13)6-2-3-7(11)8(12)4-6/h2-4,9-13H,5H2,1H3

>  <CASRN>
51-43-4

> <Outcome>
0

>  <Index>
2923

>  <StandardizerResult>
Dearomatize (ID: Dearomatize)
Clear Stereo (ID: ClearStereo)
Wedge Clean (ID: WedgeClean)
Mesomerize (ID: Mesomerize)
Tautomerize (ID: Tautomerize)
Aromatize (ID: Aromatize)
Add Explicit Hydrogens (ID: AddExplicitH)
Neutralize (ID: Neutralize)
Clean 2D (ID: Clean2D)

> <knn Distance>
4.24264049530029

> <CpId>
2923

$$$$
2988
  Mrv1532301301811342D          

 50 51  0  0  0  0            999 V2000
   -1.3487   -1.9357    0.0000 C   0  0  0  0  0  0  0  0  0  0  0  0
   -0.5237   -1.9357    0.0000 C   0  0  0  0  0  0  0  0  0  0  0  0
   -0.1112   -1.2212    0.0000 C   0  0  0  0  0  0  0  0  0  0  0  0
   -0.5237   -0.5068    0.0000 O   0  0  0  0  0  0  0  0  0  0  0  0
    0.7138   -1.2212    0.0000 C   0  0  0  0  0  0  0  0  0  0  0  0
    1.5388   -1.2212    0.0000 C   0  0  0  0  0  0  0  0  0  0  0  0
    1.9513   -0.5068    0.0000 C   0  0  0  0  0  0  0  0  0  0  0  0
    1.7798    0.3002    0.0000 C   0  0  0  0  0  0  0  0  0  0  0  0
    2.7763   -0.5068    0.0000 N   0  0  0  0  0  0  0  0  0  0  0  0
    3.1888    0.2077    0.0000 C   0  0  0  0  0  0  0  0  0  0  0  0
    3.1888   -1.2212    0.0000 C   0  0  0  0  0  0  0  0  0  0  0  0
    0.7138   -2.0462    0.0000 C   0  0  0  0  0  0  0  0  0  0  0  0
    1.4283   -2.4587    0.0000 C   0  0  0  0  0  0  0  0  0  0  0  0
    1.4283   -3.2837    0.0000 C   0  0  0  0  0  0  0  0  0  0  0  0
    0.7138   -3.6962    0.0000 C   0  0  0  0  0  0  0  0  0  0  0  0
   -0.0006   -3.2837    0.0000 C   0  0  0  0  0  0  0  0  0  0  0  0
   -0.0006   -2.4587    0.0000 C   0  0  0  0  0  0  0  0  0  0  0  0
    0.7138   -0.3962    0.0000 C   0  0  0  0  0  0  0  0  0  0  0  0
   -0.0006    0.0163    0.0000 C   0  0  0  0  0  0  0  0  0  0  0  0
   -0.0006    0.8413    0.0000 C   0  0  0  0  0  0  0  0  0  0  0  0
    0.7138    1.2538    0.0000 C   0  0  0  0  0  0  0  0  0  0  0  0
    1.4283    0.8413    0.0000 C   0  0  0  0  0  0  0  0  0  0  0  0
    1.4283    0.0163    0.0000 C   0  0  0  0  0  0  0  0  0  0  0  0
   -1.3487   -1.1107    0.0000 H   0  0  0  0  0  0  0  0  0  0  0  0
   -2.1737   -1.9357    0.0000 H   0  0  0  0  0  0  0  0  0  0  0  0
   -1.3487   -2.7607    0.0000 H   0  0  0  0  0  0  0  0  0  0  0  0
   -0.8394   -2.6979    0.0000 H   0  0  0  0  0  0  0  0  0  0  0  0
   -0.9362   -1.2212    0.0000 H   0  0  0  0  0  0  0  0  0  0  0  0
    1.5868   -2.0448    0.0000 H   0  0  0  0  0  0  0  0  0  0  0  0
    2.2281   -1.6746    0.0000 H   0  0  0  0  0  0  0  0  0  0  0  0
    1.1334   -0.6145    0.0000 H   0  0  0  0  0  0  0  0  0  0  0  0
    2.5099   -0.0839    0.0000 H   0  0  0  0  0  0  0  0  0  0  0  0
    2.5420    0.6160    0.0000 H   0  0  0  0  0  0  0  0  0  0  0  0
    2.0243    1.0881    0.0000 H   0  0  0  0  0  0  0  0  0  0  0  0
    3.6846   -0.4517    0.0000 H   0  0  0  0  0  0  0  0  0  0  0  0
    3.9898    0.4055    0.0000 H   0  0  0  0  0  0  0  0  0  0  0  0
    3.3207    1.0221    0.0000 H   0  0  0  0  0  0  0  0  0  0  0  0
    2.3894   -1.4250    0.0000 H   0  0  0  0  0  0  0  0  0  0  0  0
    3.1687   -2.0460    0.0000 H   0  0  0  0  0  0  0  0  0  0  0  0
    3.9774   -1.4637    0.0000 H   0  0  0  0  0  0  0  0  0  0  0  0
    2.2395   -2.6088    0.0000 H   0  0  0  0  0  0  0  0  0  0  0  0
    2.1428   -3.6962    0.0000 H   0  0  0  0  0  0  0  0  0  0  0  0
    0.7138   -4.5212    0.0000 H   0  0  0  0  0  0  0  0  0  0  0  0
   -0.7151   -3.6962    0.0000 H   0  0  0  0  0  0  0  0  0  0  0  0
    0.7138   -2.8712    0.0000 H   0  0  0  0  0  0  0  0  0  0  0  0
   -0.7628    0.3320    0.0000 H   0  0  0  0  0  0  0  0  0  0  0  0
   -0.4363    1.5419    0.0000 H   0  0  0  0  0  0  0  0  0  0  0  0
    0.7138    2.0788    0.0000 H   0  0  0  0  0  0  0  0  0  0  0  0
    1.4823    1.6645    0.0000 H   0  0  0  0  0  0  0  0  0  0  0  0
    0.7138    0.4288    0.0000 H   0  0  0  0  0  0  0  0  0  0  0  0
  1  2  1  0  0  0  0
  2  3  1  0  0  0  0
  3  4  2  0  0  0  0
  3  5  1  0  0  0  0
  5  6  1  0  0  0  0
  6  7  1  0  0  0  0
  7  8  1  0  0  0  0
  7  9  1  0  0  0  0
  9 10  1  0  0  0  0
  9 11  1  0  0  0  0
  5 12  1  0  0  0  0
 12 13  4  0  0  0  0
 13 14  4  0  0  0  0
 14 15  4  0  0  0  0
 15 16  4  0  0  0  0
 16 17  4  0  0  0  0
 12 17  4  0  0  0  0
  5 18  1  0  0  0  0
 18 19  4  0  0  0  0
 19 20  4  0  0  0  0
 20 21  4  0  0  0  0
 21 22  4  0  0  0  0
 22 23  4  0  0  0  0
 18 23  4  0  0  0  0
  1 24  1  0  0  0  0
  1 25  1  0  0  0  0
  1 26  1  0  0  0  0
  2 27  1  0  0  0  0
  2 28  1  0  0  0  0
  6 29  1  0  0  0  0
  6 30  1  0  0  0  0
  7 31  1  0  0  0  0
  8 32  1  0  0  0  0
  8 33  1  0  0  0  0
  8 34  1  0  0  0  0
 10 35  1  0  0  0  0
 10 36  1  0  0  0  0
 10 37  1  0  0  0  0
 11 38  1  0  0  0  0
 11 39  1  0  0  0  0
 11 40  1  0  0  0  0
 13 41  1  0  0  0  0
 14 42  1  0  0  0  0
 15 43  1  0  0  0  0
 16 44  1  0  0  0  0
 17 45  1  0  0  0  0
 19 46  1  0  0  0  0
 20 47  1  0  0  0  0
 21 48  1  0  0  0  0
 22 49  1  0  0  0  0
 23 50  1  0  0  0  0
M  END
>  <InChIKey>
InChI=1S/C21H27NO/c1-5-20(23)21(16-17(2)22(3)4,18-12-8-6-9-13-18)19-14-10-7-11-15-19/h6-15,17H,5,16H2,1-4H3

>  <CASRN>
76-99-3

> <Outcome>
0

>  <Index>
2988

>  <StandardizerResult>
Dearomatize (ID: Dearomatize)
Clear Stereo (ID: ClearStereo)
Wedge Clean (ID: WedgeClean)
Mesomerize (ID: Mesomerize)
Tautomerize (ID: Tautomerize)
Aromatize (ID: Aromatize)
Add Explicit Hydrogens (ID: AddExplicitH)
Neutralize (ID: Neutralize)
Clean 2D (ID: Clean2D)

> <knn Distance>
4.24264049530029

> <CpId>
2988

$$$$
3063
  Mrv1532301301811342D          

 30 30  0  0  0  0            999 V2000
   -0.7206    3.7581    0.0000 C   0  0  0  0  0  0  0  0  0  0  0  0
   -0.0062    3.3456    0.0000 C   0  0  0  0  0  0  0  0  0  0  0  0
    0.7083    3.7581    0.0000 N   0  0  0  0  0  0  0  0  0  0  0  0
   -0.0062    2.5206    0.0000 C   0  0  0  0  0  0  0  0  0  0  0  0
    0.7083    2.1081    0.0000 O   0  0  0  0  0  0  0  0  0  0  0  0
    0.7083    1.2831    0.0000 C   0  0  0  0  0  0  0  0  0  0  0  0
    1.4228    0.8706    0.0000 C   0  0  0  0  0  0  0  0  0  0  0  0
    2.1372    1.2831    0.0000 C   0  0  0  0  0  0  0  0  0  0  0  0
    1.4228    0.0456    0.0000 C   0  0  0  0  0  0  0  0  0  0  0  0
    0.7083   -0.3669    0.0000 C   0  0  0  0  0  0  0  0  0  0  0  0
   -0.0062    0.0456    0.0000 C   0  0  0  0  0  0  0  0  0  0  0  0
   -0.0062    0.8706    0.0000 C   0  0  0  0  0  0  0  0  0  0  0  0
   -0.7206    1.2831    0.0000 C   0  0  0  0  0  0  0  0  0  0  0  0
   -0.3081    4.4726    0.0000 H   0  0  0  0  0  0  0  0  0  0  0  0
   -1.4351    4.1706    0.0000 H   0  0  0  0  0  0  0  0  0  0  0  0
   -1.1331    3.0436    0.0000 H   0  0  0  0  0  0  0  0  0  0  0  0
   -0.0062    4.1706    0.0000 H   0  0  0  0  0  0  0  0  0  0  0  0
    1.3976    3.3047    0.0000 H   0  0  0  0  0  0  0  0  0  0  0  0
    1.3976    4.2114    0.0000 H   0  0  0  0  0  0  0  0  0  0  0  0
   -0.8298    2.4726    0.0000 H   0  0  0  0  0  0  0  0  0  0  0  0
   -0.4595    1.8313    0.0000 H   0  0  0  0  0  0  0  0  0  0  0  0
    2.5497    0.5686    0.0000 H   0  0  0  0  0  0  0  0  0  0  0  0
    2.8517    1.6956    0.0000 H   0  0  0  0  0  0  0  0  0  0  0  0
    1.7247    1.9976    0.0000 H   0  0  0  0  0  0  0  0  0  0  0  0
    2.1372   -0.3669    0.0000 H   0  0  0  0  0  0  0  0  0  0  0  0
    0.7083   -1.1919    0.0000 H   0  0  0  0  0  0  0  0  0  0  0  0
   -0.7206   -0.3669    0.0000 H   0  0  0  0  0  0  0  0  0  0  0  0
   -1.2608    1.9067    0.0000 H   0  0  0  0  0  0  0  0  0  0  0  0
   -1.5085    1.0382    0.0000 H   0  0  0  0  0  0  0  0  0  0  0  0
   -0.8121    0.4632    0.0000 H   0  0  0  0  0  0  0  0  0  0  0  0
  1  2  1  0  0  0  0
  2  3  1  0  0  0  0
  2  4  1  0  0  0  0
  4  5  1  0  0  0  0
  5  6  1  0  0  0  0
  6  7  4  0  0  0  0
  7  8  1  0  0  0  0
  7  9  4  0  0  0  0
  9 10  4  0  0  0  0
 10 11  4  0  0  0  0
 11 12  4  0  0  0  0
  6 12  4  0  0  0  0
 12 13  1  0  0  0  0
  1 14  1  0  0  0  0
  1 15  1  0  0  0  0
  1 16  1  0  0  0  0
  2 17  1  0  0  0  0
  3 18  1  0  0  0  0
  3 19  1  0  0  0  0
  4 20  1  0  0  0  0
  4 21  1  0  0  0  0
  8 22  1  0  0  0  0
  8 23  1  0  0  0  0
  8 24  1  0  0  0  0
  9 25  1  0  0  0  0
 10 26  1  0  0  0  0
 11 27  1  0  0  0  0
 13 28  1  0  0  0  0
 13 29  1  0  0  0  0
 13 30  1  0  0  0  0
M  END
>  <InChIKey>
InChI=1S/C11H17NO/c1-8-5-4-6-9(2)11(8)13-7-10(3)12/h4-6,10H,7,12H2,1-3H3

>  <CASRN>
31828-71-4

> <Outcome>
0

>  <Index>
3063

>  <StandardizerResult>
Dearomatize (ID: Dearomatize)
Clear Stereo (ID: ClearStereo)
Wedge Clean (ID: WedgeClean)
Mesomerize (ID: Mesomerize)
Tautomerize (ID: Tautomerize)
Aromatize (ID: Aromatize)
Add Explicit Hydrogens (ID: AddExplicitH)
Neutralize (ID: Neutralize)
Clean 2D (ID: Clean2D)

> <knn Distance>
4.24264049530029

> <CpId>
3063

$$$$
3117
  Mrv1532301301811342D          

 55 58  0  0  0  0            999 V2000
    1.7677   -2.0479    0.0000 C   0  0  0  0  0  0  0  0  0  0  0  0
    2.2995   -2.6786    0.0000 C   0  0  0  0  0  0  0  0  0  0  0  0
    2.0192   -3.4545    0.0000 O   0  0  0  0  0  0  0  0  0  0  0  0
    3.1116   -2.5334    0.0000 C   0  0  0  0  0  0  0  0  0  0  0  0
    3.1711   -3.3562    0.0000 O   0  0  0  0  0  0  0  0  0  0  0  0
    2.8823   -1.7409    0.0000 C   0  0  0  0  0  0  0  0  0  0  0  0
    3.5651   -1.2779    0.0000 C   0  0  0  0  0  0  0  0  0  0  0  0
    4.2165   -1.7843    0.0000 C   0  0  0  0  0  0  0  0  0  0  0  0
    5.0286   -1.6391    0.0000 C   0  0  0  0  0  0  0  0  0  0  0  0
    5.3089   -0.8631    0.0000 C   0  0  0  0  0  0  0  0  0  0  0  0
    6.1210   -0.7179    0.0000 C   0  0  0  0  0  0  0  0  0  0  0  0
    6.4013    0.0580    0.0000 C   0  0  0  0  0  0  0  0  0  0  0  0
    6.6528   -1.3486    0.0000 C   0  0  0  0  0  0  0  0  0  0  0  0
    7.4649   -1.2034    0.0000 C   0  0  0  0  0  0  0  0  0  0  0  0
    7.9968   -1.8341    0.0000 C   0  0  0  0  0  0  0  0  0  0  0  0
    8.8089   -1.6889    0.0000 O   0  0  0  0  0  0  0  0  0  0  0  0
    7.7165   -2.6101    0.0000 C   0  0  0  0  0  0  0  0  0  0  0  0
    6.9043   -2.7553    0.0000 C   0  0  0  0  0  0  0  0  0  0  0  0
    6.3725   -2.1246    0.0000 C   0  0  0  0  0  0  0  0  0  0  0  0
    6.0922   -2.9005    0.0000 C   0  0  0  0  0  0  0  0  0  0  0  0
    5.5604   -2.2698    0.0000 C   0  0  0  0  0  0  0  0  0  0  0  0
    5.2801   -3.0457    0.0000 C   0  0  0  0  0  0  0  0  0  0  0  0
    4.4680   -3.1909    0.0000 C   0  0  0  0  0  0  0  0  0  0  0  0
    3.9362   -2.5602    0.0000 C   0  0  0  0  0  0  0  0  0  0  0  0
    3.5763   -3.3026    0.0000 C   0  0  0  0  0  0  0  0  0  0  0  0
    2.3984   -1.5161    0.0000 H   0  0  0  0  0  0  0  0  0  0  0  0
    1.2358   -1.4172    0.0000 H   0  0  0  0  0  0  0  0  0  0  0  0
    1.1369   -2.5797    0.0000 H   0  0  0  0  0  0  0  0  0  0  0  0
    2.6502   -3.9960    0.0000 H   0  0  0  0  0  0  0  0  0  0  0  0
    2.2560   -2.2779    0.0000 H   0  0  0  0  0  0  0  0  0  0  0  0
    2.8160   -0.9186    0.0000 H   0  0  0  0  0  0  0  0  0  0  0  0
    4.2249   -0.7826    0.0000 H   0  0  0  0  0  0  0  0  0  0  0  0
    3.7138   -0.4664    0.0000 H   0  0  0  0  0  0  0  0  0  0  0  0
    4.7483   -2.4150    0.0000 H   0  0  0  0  0  0  0  0  0  0  0  0
    4.4968   -1.0084    0.0000 H   0  0  0  0  0  0  0  0  0  0  0  0
    5.1637   -0.0510    0.0000 H   0  0  0  0  0  0  0  0  0  0  0  0
    7.1772   -0.2223    0.0000 H   0  0  0  0  0  0  0  0  0  0  0  0
    6.6816    0.8339    0.0000 H   0  0  0  0  0  0  0  0  0  0  0  0
    5.6254    0.3383    0.0000 H   0  0  0  0  0  0  0  0  0  0  0  0
    7.7452   -0.4275    0.0000 H   0  0  0  0  0  0  0  0  0  0  0  0
    7.9086   -3.4124    0.0000 H   0  0  0  0  0  0  0  0  0  0  0  0
    8.4748   -2.9350    0.0000 H   0  0  0  0  0  0  0  0  0  0  0  0
    6.7630   -3.5681    0.0000 H   0  0  0  0  0  0  0  0  0  0  0  0
    7.3186   -3.4687    0.0000 H   0  0  0  0  0  0  0  0  0  0  0  0
    5.4733   -3.4459    0.0000 H   0  0  0  0  0  0  0  0  0  0  0  0
    5.8460   -3.6879    0.0000 H   0  0  0  0  0  0  0  0  0  0  0  0
    6.2902   -3.7014    0.0000 H   0  0  0  0  0  0  0  0  0  0  0  0
    5.8407   -1.4938    0.0000 H   0  0  0  0  0  0  0  0  0  0  0  0
    4.7003   -3.6326    0.0000 H   0  0  0  0  0  0  0  0  0  0  0  0
    5.1447   -3.8595    0.0000 H   0  0  0  0  0  0  0  0  0  0  0  0
    3.8746   -3.7641    0.0000 H   0  0  0  0  0  0  0  0  0  0  0  0
    4.3371   -4.0055    0.0000 H   0  0  0  0  0  0  0  0  0  0  0  0
    2.9121   -3.7919    0.0000 H   0  0  0  0  0  0  0  0  0  0  0  0
    3.2304   -4.0516    0.0000 H   0  0  0  0  0  0  0  0  0  0  0  0
    3.6345   -4.1255    0.0000 H   0  0  0  0  0  0  0  0  0  0  0  0
  1  2  1  0  0  0  0
  2  3  2  0  0  0  0
  2  4  1  0  0  0  0
  4  5  1  0  0  0  0
  4  6  1  0  0  0  0
  6  7  1  0  0  0  0
  7  8  1  0  0  0  0
  8  9  1  0  0  0  0
  9 10  1  0  0  0  0
 10 11  2  0  0  0  0
 11 12  1  0  0  0  0
 11 13  1  0  0  0  0
 13 14  2  0  0  0  0
 14 15  1  0  0  0  0
 15 16  2  0  0  0  0
 15 17  1  0  0  0  0
 17 18  1  0  0  0  0
 18 19  1  0  0  0  0
 13 19  1  0  0  0  0
 19 20  1  0  0  0  0
 19 21  1  0  0  0  0
  9 21  1  0  0  0  0
 21 22  1  0  0  0  0
 22 23  1  0  0  0  0
 23 24  1  0  0  0  0
  4 24  1  0  0  0  0
  8 24  1  0  0  0  0
 24 25  1  0  0  0  0
  1 26  1  0  0  0  0
  1 27  1  0  0  0  0
  1 28  1  0  0  0  0
  5 29  1  0  0  0  0
  6 30  1  0  0  0  0
  6 31  1  0  0  0  0
  7 32  1  0  0  0  0
  7 33  1  0  0  0  0
  8 34  1  0  0  0  0
  9 35  1  0  0  0  0
 10 36  1  0  0  0  0
 12 37  1  0  0  0  0
 12 38  1  0  0  0  0
 12 39  1  0  0  0  0
 14 40  1  0  0  0  0
 17 41  1  0  0  0  0
 17 42  1  0  0  0  0
 18 43  1  0  0  0  0
 18 44  1  0  0  0  0
 20 45  1  0  0  0  0
 20 46  1  0  0  0  0
 20 47  1  0  0  0  0
 21 48  1  0  0  0  0
 22 49  1  0  0  0  0
 22 50  1  0  0  0  0
 23 51  1  0  0  0  0
 23 52  1  0  0  0  0
 25 53  1  0  0  0  0
 25 54  1  0  0  0  0
 25 55  1  0  0  0  0
M  END
>  <InChIKey>
InChI=1S/C22H30O3/c1-13-11-16-17(20(3)8-5-15(24)12-19(13)20)6-9-21(4)18(16)7-10-22(21,25)14(2)23/h11-12,16-18,25H,5-10H2,1-4H3

>  <CASRN>
3562-63-8

> <Outcome>
0

>  <Index>
3117

>  <StandardizerResult>
Clear Stereo (ID: ClearStereo)
Wedge Clean (ID: WedgeClean)
Mesomerize (ID: Mesomerize)
Tautomerize (ID: Tautomerize)
Add Explicit Hydrogens (ID: AddExplicitH)
Neutralize (ID: Neutralize)
Clean 2D (ID: Clean2D)

> <knn Distance>
4.24264049530029

> <CpId>
3117

$$$$
3120
  Mrv1532301301811342D          

 22 22  0  0  0  0            999 V2000
    0.0000    3.3000    0.0000 N   0  0  0  0  0  0  0  0  0  0  0  0
    0.0000    2.4750    0.0000 C   0  0  0  0  0  0  0  0  0  0  0  0
    0.7145    2.0625    0.0000 C   0  0  0  0  0  0  0  0  0  0  0  0
    0.7145    1.2375    0.0000 C   0  0  0  0  0  0  0  0  0  0  0  0
    1.4289    0.8250    0.0000 C   0  0  0  0  0  0  0  0  0  0  0  0
    1.4289    0.0000    0.0000 C   0  0  0  0  0  0  0  0  0  0  0  0
    0.7145   -0.4125    0.0000 C   0  0  0  0  0  0  0  0  0  0  0  0
    0.7145   -1.2375    0.0000 O   0  0  0  0  0  0  0  0  0  0  0  0
    0.0000    0.0000    0.0000 C   0  0  0  0  0  0  0  0  0  0  0  0
   -0.7145   -0.4125    0.0000 O   0  0  0  0  0  0  0  0  0  0  0  0
    0.0000    0.8250    0.0000 C   0  0  0  0  0  0  0  0  0  0  0  0
    0.7145    3.7125    0.0000 H   0  0  0  0  0  0  0  0  0  0  0  0
   -0.7145    3.7125    0.0000 H   0  0  0  0  0  0  0  0  0  0  0  0
   -0.8236    2.4270    0.0000 H   0  0  0  0  0  0  0  0  0  0  0  0
   -0.4533    1.7857    0.0000 H   0  0  0  0  0  0  0  0  0  0  0  0
    1.5381    2.1105    0.0000 H   0  0  0  0  0  0  0  0  0  0  0  0
    1.1678    2.7518    0.0000 H   0  0  0  0  0  0  0  0  0  0  0  0
    2.1434    1.2375    0.0000 H   0  0  0  0  0  0  0  0  0  0  0  0
    2.1434   -0.4125    0.0000 H   0  0  0  0  0  0  0  0  0  0  0  0
    0.0000   -1.6500    0.0000 H   0  0  0  0  0  0  0  0  0  0  0  0
   -1.4289    0.0000    0.0000 H   0  0  0  0  0  0  0  0  0  0  0  0
   -0.7145    1.2375    0.0000 H   0  0  0  0  0  0  0  0  0  0  0  0
  1  2  1  0  0  0  0
  2  3  1  0  0  0  0
  3  4  1  0  0  0  0
  4  5  4  0  0  0  0
  5  6  4  0  0  0  0
  6  7  4  0  0  0  0
  7  8  1  0  0  0  0
  7  9  4  0  0  0  0
  9 10  1  0  0  0  0
  9 11  4  0  0  0  0
  4 11  4  0  0  0  0
  1 12  1  0  0  0  0
  1 13  1  0  0  0  0
  2 14  1  0  0  0  0
  2 15  1  0  0  0  0
  3 16  1  0  0  0  0
  3 17  1  0  0  0  0
  5 18  1  0  0  0  0
  6 19  1  0  0  0  0
  8 20  1  0  0  0  0
 10 21  1  0  0  0  0
 11 22  1  0  0  0  0
M  END
>  <InChIKey>
InChI=1S/C8H11NO2/c9-4-3-6-1-2-7(10)8(11)5-6/h1-2,5,10-11H,3-4,9H2

>  <CASRN>
51-61-6

> <Outcome>
0

>  <Index>
3120

>  <StandardizerResult>
Dearomatize (ID: Dearomatize)
Clear Stereo (ID: ClearStereo)
Wedge Clean (ID: WedgeClean)
Mesomerize (ID: Mesomerize)
Tautomerize (ID: Tautomerize)
Aromatize (ID: Aromatize)
Add Explicit Hydrogens (ID: AddExplicitH)
Neutralize (ID: Neutralize)
Clean 2D (ID: Clean2D)

> <knn Distance>
4.24264049530029

> <CpId>
3120

$$$$
3211
  Mrv1532301301811342D          

 25 25  0  0  0  0            999 V2000
   -0.6336    2.0257    0.0000 N   0  0  0  0  0  0  0  0  0  0  0  0
    0.0809    2.4382    0.0000 C   0  0  0  0  0  0  0  0  0  0  0  0
    0.7953    2.0257    0.0000 C   0  0  0  0  0  0  0  0  0  0  0  0
    0.7953    1.2007    0.0000 C   0  0  0  0  0  0  0  0  0  0  0  0
    1.5098    0.7882    0.0000 C   0  0  0  0  0  0  0  0  0  0  0  0
    1.5098   -0.0368    0.0000 C   0  0  0  0  0  0  0  0  0  0  0  0
    0.7953   -0.4493    0.0000 C   0  0  0  0  0  0  0  0  0  0  0  0
    0.7953   -1.2743    0.0000 O   0  0  0  0  0  0  0  0  0  0  0  0
    0.0809   -0.0368    0.0000 C   0  0  0  0  0  0  0  0  0  0  0  0
   -0.6336   -0.4493    0.0000 O   0  0  0  0  0  0  0  0  0  0  0  0
    0.0809    0.7882    0.0000 C   0  0  0  0  0  0  0  0  0  0  0  0
    0.0809    3.2632    0.0000 C   0  0  0  0  0  0  0  0  0  0  0  0
   -0.6336    3.6757    0.0000 O   0  0  0  0  0  0  0  0  0  0  0  0
    0.7953    3.6757    0.0000 O   0  0  0  0  0  0  0  0  0  0  0  0
   -1.3481    2.4382    0.0000 H   0  0  0  0  0  0  0  0  0  0  0  0
   -0.6336    1.2007    0.0000 H   0  0  0  0  0  0  0  0  0  0  0  0
    0.0809    1.6132    0.0000 H   0  0  0  0  0  0  0  0  0  0  0  0
    1.6190    2.0737    0.0000 H   0  0  0  0  0  0  0  0  0  0  0  0
    1.2487    2.7150    0.0000 H   0  0  0  0  0  0  0  0  0  0  0  0
    2.2243    1.2007    0.0000 H   0  0  0  0  0  0  0  0  0  0  0  0
    2.2243   -0.4493    0.0000 H   0  0  0  0  0  0  0  0  0  0  0  0
    0.0809   -1.6868    0.0000 H   0  0  0  0  0  0  0  0  0  0  0  0
   -1.3481   -0.0368    0.0000 H   0  0  0  0  0  0  0  0  0  0  0  0
   -0.6336    0.3757    0.0000 H   0  0  0  0  0  0  0  0  0  0  0  0
   -0.6336    4.5007    0.0000 H   0  0  0  0  0  0  0  0  0  0  0  0
  1  2  1  0  0  0  0
  2  3  1  0  0  0  0
  3  4  1  0  0  0  0
  4  5  4  0  0  0  0
  5  6  4  0  0  0  0
  6  7  4  0  0  0  0
  7  8  1  0  0  0  0
  7  9  4  0  0  0  0
  9 10  1  0  0  0  0
  9 11  4  0  0  0  0
  4 11  4  0  0  0  0
  2 12  1  0  0  0  0
 12 13  1  0  0  0  0
 12 14  2  0  0  0  0
  1 15  1  0  0  0  0
  1 16  1  0  0  0  0
  2 17  1  0  0  0  0
  3 18  1  0  0  0  0
  3 19  1  0  0  0  0
  5 20  1  0  0  0  0
  6 21  1  0  0  0  0
  8 22  1  0  0  0  0
 10 23  1  0  0  0  0
 11 24  1  0  0  0  0
 13 25  1  0  0  0  0
M  END
>  <InChIKey>
InChI=1S/C9H11NO4/c10-6(9(13)14)3-5-1-2-7(11)8(12)4-5/h1-2,4,6,11-12H,3,10H2,(H,13,14)

>  <CASRN>
59-92-7

> <Outcome>
0

>  <Index>
3211

>  <StandardizerResult>
Dearomatize (ID: Dearomatize)
Clear Stereo (ID: ClearStereo)
Wedge Clean (ID: WedgeClean)
Mesomerize (ID: Mesomerize)
Tautomerize (ID: Tautomerize)
Aromatize (ID: Aromatize)
Add Explicit Hydrogens (ID: AddExplicitH)
Neutralize (ID: Neutralize)
Clean 2D (ID: Clean2D)

> <knn Distance>
4.24264049530029

> <CpId>
3211

$$$$
3225
  Mrv1532301301811342D          

 47 48  0  0  0  0            999 V2000
    0.7360    1.2103    0.0000 C   0  0  0  0  0  0  0  0  0  0  0  0
    0.7360    0.3853    0.0000 O   0  0  0  0  0  0  0  0  0  0  0  0
    1.4504   -0.0272    0.0000 P   0  0  0  0  0  0  0  0  0  0  0  0
    1.0379   -0.7417    0.0000 S   0  0  0  0  0  0  0  0  0  0  0  0
    1.8629    0.6872    0.0000 O   0  0  0  0  0  0  0  0  0  0  0  0
    2.6879    0.6872    0.0000 C   0  0  0  0  0  0  0  0  0  0  0  0
    2.1649   -0.4397    0.0000 O   0  0  0  0  0  0  0  0  0  0  0  0
    2.1649   -1.2647    0.0000 C   0  0  0  0  0  0  0  0  0  0  0  0
    2.8794   -1.6772    0.0000 C   0  0  0  0  0  0  0  0  0  0  0  0
    2.8794   -2.5022    0.0000 C   0  0  0  0  0  0  0  0  0  0  0  0
    2.1649   -2.9147    0.0000 C   0  0  0  0  0  0  0  0  0  0  0  0
    2.1649   -3.7397    0.0000 S   0  0  0  0  0  0  0  0  0  0  0  0
    1.4504   -4.1522    0.0000 C   0  0  0  0  0  0  0  0  0  0  0  0
    1.4504   -4.9772    0.0000 C   0  0  0  0  0  0  0  0  0  0  0  0
    0.7360   -5.3897    0.0000 C   0  0  0  0  0  0  0  0  0  0  0  0
    0.0215   -4.9772    0.0000 C   0  0  0  0  0  0  0  0  0  0  0  0
   -0.6930   -5.3897    0.0000 O   0  0  0  0  0  0  0  0  0  0  0  0
   -0.6930   -6.2147    0.0000 P   0  0  0  0  0  0  0  0  0  0  0  0
   -1.5180   -6.2147    0.0000 S   0  0  0  0  0  0  0  0  0  0  0  0
   -0.6930   -7.0397    0.0000 O   0  0  0  0  0  0  0  0  0  0  0  0
    0.0215   -7.4522    0.0000 C   0  0  0  0  0  0  0  0  0  0  0  0
    0.1320   -6.2147    0.0000 O   0  0  0  0  0  0  0  0  0  0  0  0
    0.5445   -6.9292    0.0000 C   0  0  0  0  0  0  0  0  0  0  0  0
    0.0215   -4.1522    0.0000 C   0  0  0  0  0  0  0  0  0  0  0  0
    0.7360   -3.7397    0.0000 C   0  0  0  0  0  0  0  0  0  0  0  0
    1.4504   -2.5022    0.0000 C   0  0  0  0  0  0  0  0  0  0  0  0
    1.4504   -1.6772    0.0000 C   0  0  0  0  0  0  0  0  0  0  0  0
    1.5610    1.2103    0.0000 H   0  0  0  0  0  0  0  0  0  0  0  0
    0.7360    2.0353    0.0000 H   0  0  0  0  0  0  0  0  0  0  0  0
   -0.0890    1.2103    0.0000 H   0  0  0  0  0  0  0  0  0  0  0  0
    2.6879   -0.1378    0.0000 H   0  0  0  0  0  0  0  0  0  0  0  0
    3.5129    0.6872    0.0000 H   0  0  0  0  0  0  0  0  0  0  0  0
    2.6879    1.5122    0.0000 H   0  0  0  0  0  0  0  0  0  0  0  0
    3.5938   -1.2647    0.0000 H   0  0  0  0  0  0  0  0  0  0  0  0
    3.5938   -2.9147    0.0000 H   0  0  0  0  0  0  0  0  0  0  0  0
    2.1649   -5.3897    0.0000 H   0  0  0  0  0  0  0  0  0  0  0  0
    0.7360   -6.2147    0.0000 H   0  0  0  0  0  0  0  0  0  0  0  0
   -0.6645   -7.9106    0.0000 H   0  0  0  0  0  0  0  0  0  0  0  0
    0.1292   -8.2702    0.0000 H   0  0  0  0  0  0  0  0  0  0  0  0
    0.8027   -7.7174    0.0000 H   0  0  0  0  0  0  0  0  0  0  0  0
    1.3044   -7.2503    0.0000 H   0  0  0  0  0  0  0  0  0  0  0  0
    1.2857   -6.5670    0.0000 H   0  0  0  0  0  0  0  0  0  0  0  0
   -0.2734   -6.8215    0.0000 H   0  0  0  0  0  0  0  0  0  0  0  0
   -0.6930   -3.7397    0.0000 H   0  0  0  0  0  0  0  0  0  0  0  0
    0.7360   -2.9147    0.0000 H   0  0  0  0  0  0  0  0  0  0  0  0
    0.7360   -2.0897    0.0000 H   0  0  0  0  0  0  0  0  0  0  0  0
    1.0379   -0.9628    0.0000 H   0  0  0  0  0  0  0  0  0  0  0  0
  1  2  1  0  0  0  0
  2  3  1  0  0  0  0
  3  4  2  0  0  0  0
  3  5  1  0  0  0  0
  5  6  1  0  0  0  0
  3  7  1  0  0  0  0
  7  8  1  0  0  0  0
  8  9  4  0  0  0  0
  9 10  4  0  0  0  0
 10 11  4  0  0  0  0
 11 12  1  0  0  0  0
 12 13  1  0  0  0  0
 13 14  4  0  0  0  0
 14 15  4  0  0  0  0
 15 16  4  0  0  0  0
 16 17  1  0  0  0  0
 17 18  1  0  0  0  0
 18 19  2  0  0  0  0
 18 20  1  0  0  0  0
 20 21  1  0  0  0  0
 18 22  1  0  0  0  0
 22 23  1  0  0  0  0
 16 24  4  0  0  0  0
 24 25  4  0  0  0  0
 13 25  4  0  0  0  0
 11 26  4  0  0  0  0
 26 27  4  0  0  0  0
  8 27  4  0  0  0  0
  1 28  1  0  0  0  0
  1 29  1  0  0  0  0
  1 30  1  0  0  0  0
  6 31  1  0  0  0  0
  6 32  1  0  0  0  0
  6 33  1  0  0  0  0
  9 34  1  0  0  0  0
 10 35  1  0  0  0  0
 14 36  1  0  0  0  0
 15 37  1  0  0  0  0
 21 38  1  0  0  0  0
 21 39  1  0  0  0  0
 21 40  1  0  0  0  0
 23 41  1  0  0  0  0
 23 42  1  0  0  0  0
 23 43  1  0  0  0  0
 24 44  1  0  0  0  0
 25 45  1  0  0  0  0
 26 46  1  0  0  0  0
 27 47  1  0  0  0  0
M  END
>  <InChIKey>
InChI=1S/C16H20O6P2S3/c1-17-23(25,18-2)21-13-5-9-15(10-6-13)27-16-11-7-14(8-12-16)22-24(26,19-3)20-4/h5-12H,1-4H3

>  <CASRN>
3383-96-8

> <Outcome>
0

>  <Index>
3225

>  <StandardizerResult>
Dearomatize (ID: Dearomatize)
Clear Stereo (ID: ClearStereo)
Wedge Clean (ID: WedgeClean)
Mesomerize (ID: Mesomerize)
Tautomerize (ID: Tautomerize)
Aromatize (ID: Aromatize)
Add Explicit Hydrogens (ID: AddExplicitH)
Neutralize (ID: Neutralize)
Clean 2D (ID: Clean2D)

> <knn Distance>
4.24264049530029

> <CpId>
3225

$$$$
3400
  Mrv1532301301811342D          

 16 15  0  0  0  0            999 V2000
   -0.1914    0.7145    0.0000 C   0  0  0  0  0  0  0  0  0  0  0  0
    0.5230    1.1270    0.0000 C   0  0  0  0  0  0  0  0  0  0  0  0
    1.2375    0.7145    0.0000 C   0  0  0  0  0  0  0  0  0  0  0  0
    1.9520    1.1270    0.0000 O   0  0  0  0  0  0  0  0  0  0  0  0
    2.6664    0.7145    0.0000 C   0  0  0  0  0  0  0  0  0  0  0  0
    3.3809    1.1270    0.0000 N   0  0  0  0  0  0  0  0  0  0  0  0
    2.6664   -0.1105    0.0000 O   0  0  0  0  0  0  0  0  0  0  0  0
   -0.6039    1.4290    0.0000 H   0  0  0  0  0  0  0  0  0  0  0  0
   -0.9059    0.3020    0.0000 H   0  0  0  0  0  0  0  0  0  0  0  0
    0.2211    0.0000    0.0000 H   0  0  0  0  0  0  0  0  0  0  0  0
    0.8933    1.8642    0.0000 H   0  0  0  0  0  0  0  0  0  0  0  0
    0.1528    1.8642    0.0000 H   0  0  0  0  0  0  0  0  0  0  0  0
    0.8672   -0.0227    0.0000 H   0  0  0  0  0  0  0  0  0  0  0  0
    1.6078   -0.0227    0.0000 H   0  0  0  0  0  0  0  0  0  0  0  0
    4.0954    0.7145    0.0000 H   0  0  0  0  0  0  0  0  0  0  0  0
    3.3809    1.9520    0.0000 H   0  0  0  0  0  0  0  0  0  0  0  0
  1  2  1  0  0  0  0
  2  3  1  0  0  0  0
  3  4  1  0  0  0  0
  4  5  1  0  0  0  0
  5  6  1  0  0  0  0
  5  7  2  0  0  0  0
  1  8  1  0  0  0  0
  1  9  1  0  0  0  0
  1 10  1  0  0  0  0
  2 11  1  0  0  0  0
  2 12  1  0  0  0  0
  3 13  1  0  0  0  0
  3 14  1  0  0  0  0
  6 15  1  0  0  0  0
  6 16  1  0  0  0  0
M  END
>  <InChIKey>
InChI=1S/C4H9NO2/c1-2-3-7-4(5)6/h2-3H2,1H3,(H2,5,6)

>  <CASRN>
627-12-3

> <Outcome>
0

>  <Index>
3400

>  <StandardizerResult>
Clear Stereo (ID: ClearStereo)
Wedge Clean (ID: WedgeClean)
Mesomerize (ID: Mesomerize)
Tautomerize (ID: Tautomerize)
Add Explicit Hydrogens (ID: AddExplicitH)
Neutralize (ID: Neutralize)
Clean 2D (ID: Clean2D)

> <knn Distance>
4.24264049530029

> <CpId>
3400

$$$$
3429
  Mrv1532301301811342D          

 15 16  0  0  0  0            999 V2000
   -0.1712   -0.6979    0.0000 S   0  0  0  0  0  0  0  0  0  0  0  0
    0.6538   -0.6979    0.0000 C   0  0  0  0  0  0  0  0  0  0  0  0
    1.1387   -0.0305    0.0000 N   0  0  0  0  0  0  0  0  0  0  0  0
    1.9233   -0.2854    0.0000 C   0  0  0  0  0  0  0  0  0  0  0  0
    2.6378    0.1271    0.0000 C   0  0  0  0  0  0  0  0  0  0  0  0
    3.3523   -0.2854    0.0000 C   0  0  0  0  0  0  0  0  0  0  0  0
    3.3523   -1.1104    0.0000 C   0  0  0  0  0  0  0  0  0  0  0  0
    2.6378   -1.5229    0.0000 C   0  0  0  0  0  0  0  0  0  0  0  0
    1.9233   -1.1104    0.0000 C   0  0  0  0  0  0  0  0  0  0  0  0
    1.1387   -1.3653    0.0000 S   0  0  0  0  0  0  0  0  0  0  0  0
    0.8838    0.7542    0.0000 H   0  0  0  0  0  0  0  0  0  0  0  0
    2.6378    0.9521    0.0000 H   0  0  0  0  0  0  0  0  0  0  0  0
    4.0667    0.1271    0.0000 H   0  0  0  0  0  0  0  0  0  0  0  0
    4.0667   -1.5229    0.0000 H   0  0  0  0  0  0  0  0  0  0  0  0
    2.6378   -2.3479    0.0000 H   0  0  0  0  0  0  0  0  0  0  0  0
  1  2  2  0  0  0  0
  2  3  1  0  0  0  0
  3  4  1  0  0  0  0
  4  5  4  0  0  0  0
  5  6  4  0  0  0  0
  6  7  4  0  0  0  0
  7  8  4  0  0  0  0
  8  9  4  0  0  0  0
  4  9  4  0  0  0  0
  9 10  1  0  0  0  0
  2 10  1  0  0  0  0
  3 11  1  0  0  0  0
  5 12  1  0  0  0  0
  6 13  1  0  0  0  0
  7 14  1  0  0  0  0
  8 15  1  0  0  0  0
M  END
>  <InChIKey>
InChI=1S/C7H5NS2/c9-7-8-5-3-1-2-4-6(5)10-7/h1-4H,(H,8,9)

>  <CASRN>
149-30-4

> <Outcome>
0

>  <Index>
3429

>  <StandardizerResult>
Dearomatize (ID: Dearomatize)
Clear Stereo (ID: ClearStereo)
Wedge Clean (ID: WedgeClean)
Mesomerize (ID: Mesomerize)
Tautomerize (ID: Tautomerize)
Aromatize (ID: Aromatize)
Add Explicit Hydrogens (ID: AddExplicitH)
Neutralize (ID: Neutralize)
Clean 2D (ID: Clean2D)

> <knn Distance>
4.24264049530029

> <CpId>
3429

$$$$
108
  Mrv1532301301811342D          

 52 51  0  0  0  0            999 V2000
    6.7105    4.6993    0.0000 C   0  0  0  0  0  0  0  0  0  0  0  0
    7.4250    4.2868    0.0000 C   0  0  0  0  0  0  0  0  0  0  0  0
    8.1395    4.6993    0.0000 C   0  0  0  0  0  0  0  0  0  0  0  0
    8.8539    4.2868    0.0000 C   0  0  0  0  0  0  0  0  0  0  0  0
    9.5684    4.6993    0.0000 C   0  0  0  0  0  0  0  0  0  0  0  0
   10.2829    4.2868    0.0000 C   0  0  0  0  0  0  0  0  0  0  0  0
   10.9974    4.6993    0.0000 C   0  0  0  0  0  0  0  0  0  0  0  0
   11.7118    4.2868    0.0000 C   0  0  0  0  0  0  0  0  0  0  0  0
   12.4263    4.6993    0.0000 C   0  0  0  0  0  0  0  0  0  0  0  0
   13.1408    4.2868    0.0000 C   0  0  0  0  0  0  0  0  0  0  0  0
   13.8552    4.6993    0.0000 C   0  0  0  0  0  0  0  0  0  0  0  0
   14.5697    4.2868    0.0000 C   0  0  0  0  0  0  0  0  0  0  0  0
   15.2842    4.6993    0.0000 C   0  0  0  0  0  0  0  0  0  0  0  0
   15.9987    4.2868    0.0000 C   0  0  0  0  0  0  0  0  0  0  0  0
   16.7131    4.6993    0.0000 C   0  0  0  0  0  0  0  0  0  0  0  0
   17.4276    4.2868    0.0000 O   0  0  0  0  0  0  0  0  0  0  0  0
   18.1421    4.6993    0.0000 S   0  0  0  0  0  0  0  0  0  0  0  0
   18.8565    5.1118    0.0000 O   0  0  0  0  0  0  0  0  0  0  0  0
   18.5546    3.9848    0.0000 O   0  0  0  0  0  0  0  0  0  0  0  0
   17.7296    5.4138    0.0000 O   0  0  0  0  0  0  0  0  0  0  0  0
    7.1230    5.4138    0.0000 H   0  0  0  0  0  0  0  0  0  0  0  0
    5.9961    5.1118    0.0000 H   0  0  0  0  0  0  0  0  0  0  0  0
    6.2980    3.9848    0.0000 H   0  0  0  0  0  0  0  0  0  0  0  0
    7.0547    3.5496    0.0000 H   0  0  0  0  0  0  0  0  0  0  0  0
    7.7953    3.5496    0.0000 H   0  0  0  0  0  0  0  0  0  0  0  0
    8.5097    5.4365    0.0000 H   0  0  0  0  0  0  0  0  0  0  0  0
    7.7692    5.4365    0.0000 H   0  0  0  0  0  0  0  0  0  0  0  0
    8.4837    3.5496    0.0000 H   0  0  0  0  0  0  0  0  0  0  0  0
    9.2242    3.5496    0.0000 H   0  0  0  0  0  0  0  0  0  0  0  0
    9.9387    5.4365    0.0000 H   0  0  0  0  0  0  0  0  0  0  0  0
    9.1982    5.4365    0.0000 H   0  0  0  0  0  0  0  0  0  0  0  0
    9.9126    3.5496    0.0000 H   0  0  0  0  0  0  0  0  0  0  0  0
   10.6531    3.5496    0.0000 H   0  0  0  0  0  0  0  0  0  0  0  0
   11.3676    5.4365    0.0000 H   0  0  0  0  0  0  0  0  0  0  0  0
   10.6271    5.4365    0.0000 H   0  0  0  0  0  0  0  0  0  0  0  0
   11.3416    3.5496    0.0000 H   0  0  0  0  0  0  0  0  0  0  0  0
   12.0821    3.5496    0.0000 H   0  0  0  0  0  0  0  0  0  0  0  0
   12.7966    5.4365    0.0000 H   0  0  0  0  0  0  0  0  0  0  0  0
   12.0560    5.4365    0.0000 H   0  0  0  0  0  0  0  0  0  0  0  0
   12.7705    3.5496    0.0000 H   0  0  0  0  0  0  0  0  0  0  0  0
   13.5110    3.5496    0.0000 H   0  0  0  0  0  0  0  0  0  0  0  0
   14.2255    5.4365    0.0000 H   0  0  0  0  0  0  0  0  0  0  0  0
   13.4850    5.4365    0.0000 H   0  0  0  0  0  0  0  0  0  0  0  0
   14.1995    3.5496    0.0000 H   0  0  0  0  0  0  0  0  0  0  0  0
   14.9400    3.5496    0.0000 H   0  0  0  0  0  0  0  0  0  0  0  0
   15.6544    5.4365    0.0000 H   0  0  0  0  0  0  0  0  0  0  0  0
   14.9139    5.4365    0.0000 H   0  0  0  0  0  0  0  0  0  0  0  0
   15.6284    3.5496    0.0000 H   0  0  0  0  0  0  0  0  0  0  0  0
   16.3689    3.5496    0.0000 H   0  0  0  0  0  0  0  0  0  0  0  0
   17.0834    5.4365    0.0000 H   0  0  0  0  0  0  0  0  0  0  0  0
   16.3429    5.4365    0.0000 H   0  0  0  0  0  0  0  0  0  0  0  0
   19.5710    4.6993    0.0000 H   0  0  0  0  0  0  0  0  0  0  0  0
  1  2  1  0  0  0  0
  2  3  1  0  0  0  0
  3  4  1  0  0  0  0
  4  5  1  0  0  0  0
  5  6  1  0  0  0  0
  6  7  1  0  0  0  0
  7  8  1  0  0  0  0
  8  9  1  0  0  0  0
  9 10  1  0  0  0  0
 10 11  1  0  0  0  0
 11 12  1  0  0  0  0
 12 13  1  0  0  0  0
 13 14  1  0  0  0  0
 14 15  1  0  0  0  0
 15 16  1  0  0  0  0
 16 17  1  0  0  0  0
 17 18  1  0  0  0  0
 17 19  2  0  0  0  0
 17 20  2  0  0  0  0
  1 21  1  0  0  0  0
  1 22  1  0  0  0  0
  1 23  1  0  0  0  0
  2 24  1  0  0  0  0
  2 25  1  0  0  0  0
  3 26  1  0  0  0  0
  3 27  1  0  0  0  0
  4 28  1  0  0  0  0
  4 29  1  0  0  0  0
  5 30  1  0  0  0  0
  5 31  1  0  0  0  0
  6 32  1  0  0  0  0
  6 33  1  0  0  0  0
  7 34  1  0  0  0  0
  7 35  1  0  0  0  0
  8 36  1  0  0  0  0
  8 37  1  0  0  0  0
  9 38  1  0  0  0  0
  9 39  1  0  0  0  0
 10 40  1  0  0  0  0
 10 41  1  0  0  0  0
 11 42  1  0  0  0  0
 11 43  1  0  0  0  0
 12 44  1  0  0  0  0
 12 45  1  0  0  0  0
 13 46  1  0  0  0  0
 13 47  1  0  0  0  0
 14 48  1  0  0  0  0
 14 49  1  0  0  0  0
 15 50  1  0  0  0  0
 15 51  1  0  0  0  0
 18 52  1  0  0  0  0
M  END
>  <InChIKey>
COUMKTRLCGRAAA-UHFFFAOYSA-M

>  <UN GHS>
Non-irritant

>  <CASRN>
68955-19-1

> <Outcome>
0

>  <Index>
108

>  <StandardizerResult>
Clear Stereo (ID: ClearStereo)
Wedge Clean (ID: WedgeClean)
Mesomerize (ID: Mesomerize)
Tautomerize (ID: Tautomerize)
Add Explicit Hydrogens (ID: AddExplicitH)
Neutralize (ID: Neutralize)
Clean 2D (ID: Clean2D)

> <knn Distance>
4.35889911651611

> <CpId>
108

$$$$
341
  Mrv1532301301811342D          

 37 37  0  0  0  0            999 V2000
    3.7188    0.6123    0.0000 O   0  0  0  0  0  0  0  0  0  0  0  0
    3.1014    0.0651    0.0000 C   0  0  0  0  0  0  0  0  0  0  0  0
    3.8251   -0.3310    0.0000 C   0  0  0  0  0  0  0  0  0  0  0  0
    3.6720   -1.1417    0.0000 C   0  0  0  0  0  0  0  0  0  0  0  0
    2.8536   -1.2465    0.0000 C   0  0  0  0  0  0  0  0  0  0  0  0
    2.2358   -1.9048    0.0000 C   0  0  0  0  0  0  0  0  0  0  0  0
    1.4251   -1.7517    0.0000 C   0  0  0  0  0  0  0  0  0  0  0  0
    1.1524   -0.9731    0.0000 C   0  0  0  0  0  0  0  0  0  0  0  0
    0.3418   -0.8199    0.0000 C   0  0  0  0  0  0  0  0  0  0  0  0
    0.0690   -0.0413    0.0000 C   0  0  0  0  0  0  0  0  0  0  0  0
    0.6070    0.5842    0.0000 C   0  0  0  0  0  0  0  0  0  0  0  0
    1.4177    0.4310    0.0000 C   0  0  0  0  0  0  0  0  0  0  0  0
    1.9556    1.0565    0.0000 C   0  0  0  0  0  0  0  0  0  0  0  0
    2.7663    0.9034    0.0000 N   0  0  0  0  0  0  0  0  0  0  0  0
    4.5785   -0.6671    0.0000 H   0  0  0  0  0  0  0  0  0  0  0  0
    4.6015   -0.0520    0.0000 H   0  0  0  0  0  0  0  0  0  0  0  0
    3.8897   -1.9374    0.0000 H   0  0  0  0  0  0  0  0  0  0  0  0
    4.4534   -1.4061    0.0000 H   0  0  0  0  0  0  0  0  0  0  0  0
    2.8152   -0.4224    0.0000 H   0  0  0  0  0  0  0  0  0  0  0  0
    2.2085   -0.7324    0.0000 H   0  0  0  0  0  0  0  0  0  0  0  0
    2.1163   -2.7211    0.0000 H   0  0  0  0  0  0  0  0  0  0  0  0
    2.8135   -2.4938    0.0000 H   0  0  0  0  0  0  0  0  0  0  0  0
    0.6637   -2.0692    0.0000 H   0  0  0  0  0  0  0  0  0  0  0  0
    1.2251   -2.5521    0.0000 H   0  0  0  0  0  0  0  0  0  0  0  0
    1.9139   -0.6555    0.0000 H   0  0  0  0  0  0  0  0  0  0  0  0
    1.3524   -0.1727    0.0000 H   0  0  0  0  0  0  0  0  0  0  0  0
   -0.4197   -1.1375    0.0000 H   0  0  0  0  0  0  0  0  0  0  0  0
    0.1418   -1.6203    0.0000 H   0  0  0  0  0  0  0  0  0  0  0  0
   -0.5867    0.4594    0.0000 H   0  0  0  0  0  0  0  0  0  0  0  0
   -0.7241   -0.2683    0.0000 H   0  0  0  0  0  0  0  0  0  0  0  0
    0.7127    1.4024    0.0000 H   0  0  0  0  0  0  0  0  0  0  0  0
    0.0138    1.1576    0.0000 H   0  0  0  0  0  0  0  0  0  0  0  0
    2.1746    0.1030    0.0000 H   0  0  0  0  0  0  0  0  0  0  0  0
    1.1449    1.2097    0.0000 H   0  0  0  0  0  0  0  0  0  0  0  0
    2.3768    1.7659    0.0000 H   0  0  0  0  0  0  0  0  0  0  0  0
    1.8222    1.8707    0.0000 H   0  0  0  0  0  0  0  0  0  0  0  0
    3.5254    1.2264    0.0000 H   0  0  0  0  0  0  0  0  0  0  0  0
  1  2  2  0  0  0  0
  2  3  1  0  0  0  0
  3  4  1  0  0  0  0
  4  5  1  0  0  0  0
  5  6  1  0  0  0  0
  6  7  1  0  0  0  0
  7  8  1  0  0  0  0
  8  9  1  0  0  0  0
  9 10  1  0  0  0  0
 10 11  1  0  0  0  0
 11 12  1  0  0  0  0
 12 13  1  0  0  0  0
 13 14  1  0  0  0  0
  2 14  1  0  0  0  0
  3 15  1  0  0  0  0
  3 16  1  0  0  0  0
  4 17  1  0  0  0  0
  4 18  1  0  0  0  0
  5 19  1  0  0  0  0
  5 20  1  0  0  0  0
  6 21  1  0  0  0  0
  6 22  1  0  0  0  0
  7 23  1  0  0  0  0
  7 24  1  0  0  0  0
  8 25  1  0  0  0  0
  8 26  1  0  0  0  0
  9 27  1  0  0  0  0
  9 28  1  0  0  0  0
 10 29  1  0  0  0  0
 10 30  1  0  0  0  0
 11 31  1  0  0  0  0
 11 32  1  0  0  0  0
 12 33  1  0  0  0  0
 12 34  1  0  0  0  0
 13 35  1  0  0  0  0
 13 36  1  0  0  0  0
 14 37  1  0  0  0  0
M  END
>  <InChIKey>
JHWNWJKBPDFINM-UHFFFAOYSA-N

>  <UN GHS>
Non-irritant

>  <CASRN>
947-04-6

> <Outcome>
0

>  <Index>
341

>  <StandardizerResult>
Clear Stereo (ID: ClearStereo)
Wedge Clean (ID: WedgeClean)
Mesomerize (ID: Mesomerize)
Tautomerize (ID: Tautomerize)
Add Explicit Hydrogens (ID: AddExplicitH)
Neutralize (ID: Neutralize)
Clean 2D (ID: Clean2D)

> <knn Distance>
4.35889911651611

> <CpId>
341

$$$$
376
  Mrv1532301301811342D          

 61 66  0  0  0  0            999 V2000
    6.8228   -0.0236    0.0000 C   0  0  0  0  0  0  0  0  0  0  0  0
    6.2333    0.5536    0.0000 C   0  0  0  0  0  0  0  0  0  0  0  0
    6.4385    1.3527    0.0000 C   0  0  0  0  0  0  0  0  0  0  0  0
    5.4387    0.3317    0.0000 C   0  0  0  0  0  0  0  0  0  0  0  0
    4.8493    0.9089    0.0000 C   0  0  0  0  0  0  0  0  0  0  0  0
    4.0547    0.6870    0.0000 C   0  0  0  0  0  0  0  0  0  0  0  0
    3.4652    1.2642    0.0000 C   0  0  0  0  0  0  0  0  0  0  0  0
    2.6706    1.0423    0.0000 C   0  0  0  0  0  0  0  0  0  0  0  0
    2.4655    0.2432    0.0000 C   0  0  0  0  0  0  0  0  0  0  0  0
    3.0549   -0.3340    0.0000 C   0  0  0  0  0  0  0  0  0  0  0  0
    3.6444   -0.9112    0.0000 C   0  0  0  0  0  0  0  0  0  0  0  0
    2.8498   -1.1331    0.0000 C   0  0  0  0  0  0  0  0  0  0  0  0
    2.0552   -1.3550    0.0000 C   0  0  0  0  0  0  0  0  0  0  0  0
    1.4657   -0.7778    0.0000 C   0  0  0  0  0  0  0  0  0  0  0  0
    1.6709    0.0213    0.0000 C   0  0  0  0  0  0  0  0  0  0  0  0
    1.9196    0.8344    0.0000 C   0  0  0  0  0  0  0  0  0  0  0  0
    2.4869    1.4333    0.0000 O   0  0  0  0  0  0  0  0  0  0  0  0
    1.4027    1.4931    0.0000 O   0  0  0  0  0  0  0  0  0  0  0  0
    0.5536    1.5000    0.0000 C   0  0  0  0  0  0  0  0  0  0  0  0
    0.1088    0.7430    0.0000 C   0  0  0  0  0  0  0  0  0  0  0  0
    0.1602   -0.2258    0.0000 C   0  0  0  0  0  0  0  0  0  0  0  0
    0.7908   -0.1735    0.0000 C   0  0  0  0  0  0  0  0  0  0  0  0
    0.9159    0.6791    0.0000 C   0  0  0  0  0  0  0  0  0  0  0  0
   -0.2550    0.0954    0.0000 C   0  0  0  0  0  0  0  0  0  0  0  0
    3.8495   -0.1121    0.0000 C   0  0  0  0  0  0  0  0  0  0  0  0
    4.4390   -0.6893    0.0000 C   0  0  0  0  0  0  0  0  0  0  0  0
    5.2336   -0.4674    0.0000 C   0  0  0  0  0  0  0  0  0  0  0  0
    6.2456   -0.6131    0.0000 H   0  0  0  0  0  0  0  0  0  0  0  0
    7.4123   -0.6008    0.0000 H   0  0  0  0  0  0  0  0  0  0  0  0
    7.4000    0.5658    0.0000 H   0  0  0  0  0  0  0  0  0  0  0  0
    7.0279    0.7755    0.0000 H   0  0  0  0  0  0  0  0  0  0  0  0
    7.1486    1.7726    0.0000 H   0  0  0  0  0  0  0  0  0  0  0  0
    6.2166    2.1473    0.0000 H   0  0  0  0  0  0  0  0  0  0  0  0
    5.6135    1.3440    0.0000 H   0  0  0  0  0  0  0  0  0  0  0  0
    4.5319    1.6704    0.0000 H   0  0  0  0  0  0  0  0  0  0  0  0
    3.6704    2.0633    0.0000 H   0  0  0  0  0  0  0  0  0  0  0  0
    3.2601    0.4651    0.0000 H   0  0  0  0  0  0  0  0  0  0  0  0
    3.0143    1.7923    0.0000 H   0  0  0  0  0  0  0  0  0  0  0  0
    2.2603   -0.5559    0.0000 H   0  0  0  0  0  0  0  0  0  0  0  0
    3.2394   -1.6300    0.0000 H   0  0  0  0  0  0  0  0  0  0  0  0
    3.8663   -1.7058    0.0000 H   0  0  0  0  0  0  0  0  0  0  0  0
    4.3632   -1.3162    0.0000 H   0  0  0  0  0  0  0  0  0  0  0  0
    2.3545   -1.7928    0.0000 H   0  0  0  0  0  0  0  0  0  0  0  0
    2.8585   -1.9580    0.0000 H   0  0  0  0  0  0  0  0  0  0  0  0
    1.2478   -1.5244    0.0000 H   0  0  0  0  0  0  0  0  0  0  0  0
    1.7475   -2.1204    0.0000 H   0  0  0  0  0  0  0  0  0  0  0  0
    0.6421   -0.7300    0.0000 H   0  0  0  0  0  0  0  0  0  0  0  0
    0.7916   -1.2534    0.0000 H   0  0  0  0  0  0  0  0  0  0  0  0
    0.5122    2.3240    0.0000 H   0  0  0  0  0  0  0  0  0  0  0  0
   -0.1321    1.9588    0.0000 H   0  0  0  0  0  0  0  0  0  0  0  0
   -0.6178   -0.5001    0.0000 H   0  0  0  0  0  0  0  0  0  0  0  0
   -0.0315   -1.0282    0.0000 H   0  0  0  0  0  0  0  0  0  0  0  0
    1.4904    0.0871    0.0000 H   0  0  0  0  0  0  0  0  0  0  0  0
    1.7353    0.7744    0.0000 H   0  0  0  0  0  0  0  0  0  0  0  0
   -0.6675    0.8098    0.0000 H   0  0  0  0  0  0  0  0  0  0  0  0
   -1.0799    0.1051    0.0000 H   0  0  0  0  0  0  0  0  0  0  0  0
    4.6441    0.1098    0.0000 H   0  0  0  0  0  0  0  0  0  0  0  0
    4.8590   -1.3994    0.0000 H   0  0  0  0  0  0  0  0  0  0  0  0
    5.2045   -0.9970    0.0000 H   0  0  0  0  0  0  0  0  0  0  0  0
    5.8934   -0.9627    0.0000 H   0  0  0  0  0  0  0  0  0  0  0  0
    6.0120   -0.1940    0.0000 H   0  0  0  0  0  0  0  0  0  0  0  0
  1  2  1  0  0  0  0
  2  3  1  0  0  0  0
  2  4  1  0  0  0  0
  4  5  2  0  0  0  0
  5  6  1  0  0  0  0
  6  7  2  0  0  0  0
  7  8  1  0  0  0  0
  8  9  1  0  0  0  0
  9 10  1  0  0  0  0
 10 11  1  0  0  0  0
 10 12  1  0  0  0  0
 12 13  1  0  0  0  0
 13 14  1  0  0  0  0
 14 15  1  0  0  0  0
  9 15  1  0  0  0  0
 15 16  1  0  0  0  0
 16 17  2  0  0  0  0
 16 18  1  0  0  0  0
 18 19  1  0  0  0  0
 19 20  1  0  0  0  0
 20 21  1  0  0  0  0
 21 22  1  0  0  0  0
 15 22  1  0  0  0  0
 22 23  1  0  0  0  0
 20 23  1  0  0  0  0
 22 24  1  0  0  0  0
 20 24  1  0  0  0  0
 10 25  1  0  0  0  0
  6 25  1  0  0  0  0
 25 26  1  0  0  0  0
 26 27  1  0  0  0  0
  4 27  1  0  0  0  0
  1 28  1  0  0  0  0
  1 29  1  0  0  0  0
  1 30  1  0  0  0  0
  2 31  1  0  0  0  0
  3 32  1  0  0  0  0
  3 33  1  0  0  0  0
  3 34  1  0  0  0  0
  5 35  1  0  0  0  0
  7 36  1  0  0  0  0
  8 37  1  0  0  0  0
  8 38  1  0  0  0  0
  9 39  1  0  0  0  0
 11 40  1  0  0  0  0
 11 41  1  0  0  0  0
 11 42  1  0  0  0  0
 12 43  1  0  0  0  0
 12 44  1  0  0  0  0
 13 45  1  0  0  0  0
 13 46  1  0  0  0  0
 14 47  1  0  0  0  0
 14 48  1  0  0  0  0
 19 49  1  0  0  0  0
 19 50  1  0  0  0  0
 21 51  1  0  0  0  0
 21 52  1  0  0  0  0
 23 53  1  0  0  0  0
 23 54  1  0  0  0  0
 24 55  1  0  0  0  0
 24 56  1  0  0  0  0
 25 57  1  0  0  0  0
 26 58  1  0  0  0  0
 26 59  1  0  0  0  0
 27 60  1  0  0  0  0
 27 61  1  0  0  0  0
M  END
>  <InChIKey>
KFQMNUPIUPNWIH-UHFFFAOYSA-N

>  <UN GHS>
Non-irritant

>  <CASRN>
8050-26-8

> <Outcome>
0

>  <Index>
376

>  <StandardizerResult>
Clear Stereo (ID: ClearStereo)
Wedge Clean (ID: WedgeClean)
Mesomerize (ID: Mesomerize)
Tautomerize (ID: Tautomerize)
Add Explicit Hydrogens (ID: AddExplicitH)
Neutralize (ID: Neutralize)
Clean 2D (ID: Clean2D)

> <knn Distance>
4.35889911651611

> <CpId>
376

$$$$
380
  Mrv1532301301811342D          

 58 57  0  0  0  0            999 V2000
    7.9480    5.4138    0.0000 C   0  0  0  0  0  0  0  0  0  0  0  0
    8.6625    5.0013    0.0000 C   0  0  0  0  0  0  0  0  0  0  0  0
    9.3770    5.4138    0.0000 C   0  0  0  0  0  0  0  0  0  0  0  0
   10.0914    5.0013    0.0000 C   0  0  0  0  0  0  0  0  0  0  0  0
   10.8059    5.4138    0.0000 C   0  0  0  0  0  0  0  0  0  0  0  0
   11.5204    5.0013    0.0000 C   0  0  0  0  0  0  0  0  0  0  0  0
   12.2349    5.4138    0.0000 C   0  0  0  0  0  0  0  0  0  0  0  0
   12.9493    5.0013    0.0000 C   0  0  0  0  0  0  0  0  0  0  0  0
   13.6638    5.4138    0.0000 C   0  0  0  0  0  0  0  0  0  0  0  0
   14.3783    5.0013    0.0000 C   0  0  0  0  0  0  0  0  0  0  0  0
   15.0927    5.4138    0.0000 C   0  0  0  0  0  0  0  0  0  0  0  0
   15.8072    5.0013    0.0000 C   0  0  0  0  0  0  0  0  0  0  0  0
   16.5217    5.4138    0.0000 C   0  0  0  0  0  0  0  0  0  0  0  0
   17.2362    5.0013    0.0000 C   0  0  0  0  0  0  0  0  0  0  0  0
   17.9506    5.4138    0.0000 C   0  0  0  0  0  0  0  0  0  0  0  0
   18.6651    5.0013    0.0000 C   0  0  0  0  0  0  0  0  0  0  0  0
   19.3796    5.4138    0.0000 C   0  0  0  0  0  0  0  0  0  0  0  0
   20.0940    5.0013    0.0000 O   0  0  0  0  0  0  0  0  0  0  0  0
   20.8085    5.4138    0.0000 S   0  0  0  0  0  0  0  0  0  0  0  0
   21.5230    5.8263    0.0000 O   0  0  0  0  0  0  0  0  0  0  0  0
   21.2210    4.6993    0.0000 O   0  0  0  0  0  0  0  0  0  0  0  0
   20.3960    6.1283    0.0000 O   0  0  0  0  0  0  0  0  0  0  0  0
    8.3605    6.1283    0.0000 H   0  0  0  0  0  0  0  0  0  0  0  0
    7.2336    5.8263    0.0000 H   0  0  0  0  0  0  0  0  0  0  0  0
    7.5355    4.6993    0.0000 H   0  0  0  0  0  0  0  0  0  0  0  0
    8.2922    4.2641    0.0000 H   0  0  0  0  0  0  0  0  0  0  0  0
    9.0328    4.2641    0.0000 H   0  0  0  0  0  0  0  0  0  0  0  0
    9.7472    6.1510    0.0000 H   0  0  0  0  0  0  0  0  0  0  0  0
    9.0067    6.1510    0.0000 H   0  0  0  0  0  0  0  0  0  0  0  0
    9.7212    4.2641    0.0000 H   0  0  0  0  0  0  0  0  0  0  0  0
   10.4617    4.2641    0.0000 H   0  0  0  0  0  0  0  0  0  0  0  0
   11.1762    6.1510    0.0000 H   0  0  0  0  0  0  0  0  0  0  0  0
   10.4357    6.1510    0.0000 H   0  0  0  0  0  0  0  0  0  0  0  0
   11.1501    4.2641    0.0000 H   0  0  0  0  0  0  0  0  0  0  0  0
   11.8906    4.2641    0.0000 H   0  0  0  0  0  0  0  0  0  0  0  0
   12.6051    6.1510    0.0000 H   0  0  0  0  0  0  0  0  0  0  0  0
   11.8646    6.1510    0.0000 H   0  0  0  0  0  0  0  0  0  0  0  0
   12.5791    4.2641    0.0000 H   0  0  0  0  0  0  0  0  0  0  0  0
   13.3196    4.2641    0.0000 H   0  0  0  0  0  0  0  0  0  0  0  0
   14.0341    6.1510    0.0000 H   0  0  0  0  0  0  0  0  0  0  0  0
   13.2935    6.1510    0.0000 H   0  0  0  0  0  0  0  0  0  0  0  0
   14.0080    4.2641    0.0000 H   0  0  0  0  0  0  0  0  0  0  0  0
   14.7485    4.2641    0.0000 H   0  0  0  0  0  0  0  0  0  0  0  0
   15.4630    6.1510    0.0000 H   0  0  0  0  0  0  0  0  0  0  0  0
   14.7225    6.1510    0.0000 H   0  0  0  0  0  0  0  0  0  0  0  0
   15.4370    4.2641    0.0000 H   0  0  0  0  0  0  0  0  0  0  0  0
   16.1775    4.2641    0.0000 H   0  0  0  0  0  0  0  0  0  0  0  0
   16.8919    6.1510    0.0000 H   0  0  0  0  0  0  0  0  0  0  0  0
   16.1514    6.1510    0.0000 H   0  0  0  0  0  0  0  0  0  0  0  0
   16.8659    4.2641    0.0000 H   0  0  0  0  0  0  0  0  0  0  0  0
   17.6064    4.2641    0.0000 H   0  0  0  0  0  0  0  0  0  0  0  0
   18.3209    6.1510    0.0000 H   0  0  0  0  0  0  0  0  0  0  0  0
   17.5804    6.1510    0.0000 H   0  0  0  0  0  0  0  0  0  0  0  0
   18.2948    4.2641    0.0000 H   0  0  0  0  0  0  0  0  0  0  0  0
   19.0354    4.2641    0.0000 H   0  0  0  0  0  0  0  0  0  0  0  0
   19.7498    6.1510    0.0000 H   0  0  0  0  0  0  0  0  0  0  0  0
   19.0093    6.1510    0.0000 H   0  0  0  0  0  0  0  0  0  0  0  0
   22.2375    5.4138    0.0000 H   0  0  0  0  0  0  0  0  0  0  0  0
  1  2  1  0  0  0  0
  2  3  1  0  0  0  0
  3  4  1  0  0  0  0
  4  5  1  0  0  0  0
  5  6  1  0  0  0  0
  6  7  1  0  0  0  0
  7  8  1  0  0  0  0
  8  9  1  0  0  0  0
  9 10  1  0  0  0  0
 10 11  1  0  0  0  0
 11 12  1  0  0  0  0
 12 13  1  0  0  0  0
 13 14  1  0  0  0  0
 14 15  1  0  0  0  0
 15 16  1  0  0  0  0
 16 17  1  0  0  0  0
 17 18  1  0  0  0  0
 18 19  1  0  0  0  0
 19 20  1  0  0  0  0
 19 21  2  0  0  0  0
 19 22  2  0  0  0  0
  1 23  1  0  0  0  0
  1 24  1  0  0  0  0
  1 25  1  0  0  0  0
  2 26  1  0  0  0  0
  2 27  1  0  0  0  0
  3 28  1  0  0  0  0
  3 29  1  0  0  0  0
  4 30  1  0  0  0  0
  4 31  1  0  0  0  0
  5 32  1  0  0  0  0
  5 33  1  0  0  0  0
  6 34  1  0  0  0  0
  6 35  1  0  0  0  0
  7 36  1  0  0  0  0
  7 37  1  0  0  0  0
  8 38  1  0  0  0  0
  8 39  1  0  0  0  0
  9 40  1  0  0  0  0
  9 41  1  0  0  0  0
 10 42  1  0  0  0  0
 10 43  1  0  0  0  0
 11 44  1  0  0  0  0
 11 45  1  0  0  0  0
 12 46  1  0  0  0  0
 12 47  1  0  0  0  0
 13 48  1  0  0  0  0
 13 49  1  0  0  0  0
 14 50  1  0  0  0  0
 14 51  1  0  0  0  0
 15 52  1  0  0  0  0
 15 53  1  0  0  0  0
 16 54  1  0  0  0  0
 16 55  1  0  0  0  0
 17 56  1  0  0  0  0
 17 57  1  0  0  0  0
 20 58  1  0  0  0  0
M  END
>  <InChIKey>
KGIBGHABTNQVJX-UHFFFAOYSA-M

>  <UN GHS>
Non-irritant

>  <CASRN>
68955-20-4

> <Outcome>
0

>  <Index>
380

>  <StandardizerResult>
Clear Stereo (ID: ClearStereo)
Wedge Clean (ID: WedgeClean)
Mesomerize (ID: Mesomerize)
Tautomerize (ID: Tautomerize)
Add Explicit Hydrogens (ID: AddExplicitH)
Neutralize (ID: Neutralize)
Clean 2D (ID: Clean2D)

> <knn Distance>
4.35889911651611

> <CpId>
380

$$$$
549
  Mrv1532301301811342D          

 26 25  0  0  0  0            999 V2000
    7.3314    3.3914    0.0000 N   0  0  0  0  0  0  0  0  0  0  0  0
    7.3314    2.5664    0.0000 C   0  0  0  0  0  0  0  0  0  0  0  0
    6.6169    2.1539    0.0000 C   0  0  0  0  0  0  0  0  0  0  0  0
    5.9025    2.5664    0.0000 C   0  0  0  0  0  0  0  0  0  0  0  0
    5.1880    2.1539    0.0000 C   0  0  0  0  0  0  0  0  0  0  0  0
    4.4735    2.5664    0.0000 N   0  0  0  0  0  0  0  0  0  0  0  0
    3.7590    2.1539    0.0000 C   0  0  0  0  0  0  0  0  0  0  0  0
    3.0446    2.5664    0.0000 N   0  0  0  0  0  0  0  0  0  0  0  0
    3.7590    1.3289    0.0000 N   0  0  0  0  0  0  0  0  0  0  0  0
    8.0459    2.1539    0.0000 C   0  0  0  0  0  0  0  0  0  0  0  0
    8.7603    2.5664    0.0000 O   0  0  0  0  0  0  0  0  0  0  0  0
    8.0459    1.3289    0.0000 O   0  0  0  0  0  0  0  0  0  0  0  0
    8.0459    3.8039    0.0000 H   0  0  0  0  0  0  0  0  0  0  0  0
    6.6169    3.8039    0.0000 H   0  0  0  0  0  0  0  0  0  0  0  0
    6.6169    2.9789    0.0000 H   0  0  0  0  0  0  0  0  0  0  0  0
    6.2467    1.4167    0.0000 H   0  0  0  0  0  0  0  0  0  0  0  0
    6.9872    1.4167    0.0000 H   0  0  0  0  0  0  0  0  0  0  0  0
    5.7592    3.3789    0.0000 H   0  0  0  0  0  0  0  0  0  0  0  0
    5.2705    3.0967    0.0000 H   0  0  0  0  0  0  0  0  0  0  0  0
    4.8177    1.4167    0.0000 H   0  0  0  0  0  0  0  0  0  0  0  0
    5.5582    1.4167    0.0000 H   0  0  0  0  0  0  0  0  0  0  0  0
    4.0385    3.2674    0.0000 H   0  0  0  0  0  0  0  0  0  0  0  0
    3.0446    3.3914    0.0000 H   0  0  0  0  0  0  0  0  0  0  0  0
    2.3301    2.1539    0.0000 H   0  0  0  0  0  0  0  0  0  0  0  0
    3.0446    0.9164    0.0000 H   0  0  0  0  0  0  0  0  0  0  0  0
    9.4748    2.1539    0.0000 H   0  0  0  0  0  0  0  0  0  0  0  0
  1  2  1  0  0  0  0
  2  3  1  0  0  0  0
  3  4  1  0  0  0  0
  4  5  1  0  0  0  0
  5  6  1  0  0  0  0
  6  7  1  0  0  0  0
  7  8  1  0  0  0  0
  7  9  2  0  0  0  0
  2 10  1  0  0  0  0
 10 11  1  0  0  0  0
 10 12  2  0  0  0  0
  1 13  1  0  0  0  0
  1 14  1  0  0  0  0
  2 15  1  0  0  0  0
  3 16  1  0  0  0  0
  3 17  1  0  0  0  0
  4 18  1  0  0  0  0
  4 19  1  0  0  0  0
  5 20  1  0  0  0  0
  5 21  1  0  0  0  0
  6 22  1  0  0  0  0
  8 23  1  0  0  0  0
  8 24  1  0  0  0  0
  9 25  1  0  0  0  0
 11 26  1  0  0  0  0
M  END
>  <InChIKey>
ODKSFYDXXFIFQN-BYPYZUCNSA-N

>  <UN GHS>
Non-irritant

>  <CASRN>
1119-34-2

> <Outcome>
0

>  <Index>
549

>  <StandardizerResult>
Clear Stereo (ID: ClearStereo)
Wedge Clean (ID: WedgeClean)
Mesomerize (ID: Mesomerize)
Tautomerize (ID: Tautomerize)
Add Explicit Hydrogens (ID: AddExplicitH)
Neutralize (ID: Neutralize)
Clean 2D (ID: Clean2D)

> <knn Distance>
4.35889911651611

> <CpId>
549

$$$$
561
  Mrv1532301301811342D          

 45 47  0  0  0  0            999 V2000
    0.5287   -1.8751    0.0000 C   0  0  0  0  0  0  0  0  0  0  0  0
    1.3537   -1.8751    0.0000 C   0  0  0  0  0  0  0  0  0  0  0  0
    1.8387   -1.2077    0.0000 C   0  0  0  0  0  0  0  0  0  0  0  0
    1.1242   -0.7952    0.0000 C   0  0  0  0  0  0  0  0  0  0  0  0
    2.1742   -0.4540    0.0000 C   0  0  0  0  0  0  0  0  0  0  0  0
    2.6233   -1.4626    0.0000 C   0  0  0  0  0  0  0  0  0  0  0  0
    3.3377   -1.0501    0.0000 C   0  0  0  0  0  0  0  0  0  0  0  0
    4.0522   -1.4626    0.0000 C   0  0  0  0  0  0  0  0  0  0  0  0
    4.7667   -1.0501    0.0000 C   0  0  0  0  0  0  0  0  0  0  0  0
    5.4812   -1.4626    0.0000 O   0  0  0  0  0  0  0  0  0  0  0  0
    5.4812   -2.2876    0.0000 C   0  0  0  0  0  0  0  0  0  0  0  0
    4.7667   -2.7001    0.0000 C   0  0  0  0  0  0  0  0  0  0  0  0
    4.7667   -3.5251    0.0000 C   0  0  0  0  0  0  0  0  0  0  0  0
    4.0522   -2.2876    0.0000 C   0  0  0  0  0  0  0  0  0  0  0  0
    3.3377   -2.7001    0.0000 C   0  0  0  0  0  0  0  0  0  0  0  0
    2.6233   -2.2876    0.0000 C   0  0  0  0  0  0  0  0  0  0  0  0
    1.8387   -2.5425    0.0000 C   0  0  0  0  0  0  0  0  0  0  0  0
    2.0017   -3.3513    0.0000 C   0  0  0  0  0  0  0  0  0  0  0  0
    1.2314   -3.1010    0.0000 C   0  0  0  0  0  0  0  0  0  0  0  0
    0.5287   -1.0501    0.0000 H   0  0  0  0  0  0  0  0  0  0  0  0
   -0.2963   -1.8751    0.0000 H   0  0  0  0  0  0  0  0  0  0  0  0
    0.5287   -2.7001    0.0000 H   0  0  0  0  0  0  0  0  0  0  0  0
    0.9792   -2.6102    0.0000 H   0  0  0  0  0  0  0  0  0  0  0  0
    1.5282   -0.0758    0.0000 H   0  0  0  0  0  0  0  0  0  0  0  0
    0.8085   -0.0329    0.0000 H   0  0  0  0  0  0  0  0  0  0  0  0
    1.0751   -1.6187    0.0000 H   0  0  0  0  0  0  0  0  0  0  0  0
    2.7253   -1.0679    0.0000 H   0  0  0  0  0  0  0  0  0  0  0  0
    2.9596   -0.2014    0.0000 H   0  0  0  0  0  0  0  0  0  0  0  0
    2.2641    0.3661    0.0000 H   0  0  0  0  0  0  0  0  0  0  0  0
    3.9508   -0.4980    0.0000 H   0  0  0  0  0  0  0  0  0  0  0  0
    5.1369   -0.3128    0.0000 H   0  0  0  0  0  0  0  0  0  0  0  0
    4.3964   -0.3128    0.0000 H   0  0  0  0  0  0  0  0  0  0  0  0
    5.9345   -2.9769    0.0000 H   0  0  0  0  0  0  0  0  0  0  0  0
    6.3048   -2.3356    0.0000 H   0  0  0  0  0  0  0  0  0  0  0  0
    4.0522   -3.1126    0.0000 H   0  0  0  0  0  0  0  0  0  0  0  0
    4.1833   -4.1085    0.0000 H   0  0  0  0  0  0  0  0  0  0  0  0
    5.1792   -4.2396    0.0000 H   0  0  0  0  0  0  0  0  0  0  0  0
    5.5636   -3.3116    0.0000 H   0  0  0  0  0  0  0  0  0  0  0  0
    2.9252   -3.4146    0.0000 H   0  0  0  0  0  0  0  0  0  0  0  0
    1.2910   -3.7702    0.0000 H   0  0  0  0  0  0  0  0  0  0  0  0
    1.8449   -4.1612    0.0000 H   0  0  0  0  0  0  0  0  0  0  0  0
    2.5046   -4.0053    0.0000 H   0  0  0  0  0  0  0  0  0  0  0  0
    0.4067   -3.1225    0.0000 H   0  0  0  0  0  0  0  0  0  0  0  0
    0.5371   -3.5466    0.0000 H   0  0  0  0  0  0  0  0  0  0  0  0
    0.8683   -3.8418    0.0000 H   0  0  0  0  0  0  0  0  0  0  0  0
  1  2  1  0  0  0  0
  2  3  1  0  0  0  0
  3  4  1  0  0  0  0
  3  5  1  0  0  0  0
  3  6  1  0  0  0  0
  6  7  4  0  0  0  0
  7  8  4  0  0  0  0
  8  9  1  0  0  0  0
  9 10  1  0  0  0  0
 10 11  1  0  0  0  0
 11 12  1  0  0  0  0
 12 13  1  0  0  0  0
 12 14  1  0  0  0  0
  8 14  4  0  0  0  0
 14 15  4  0  0  0  0
 15 16  4  0  0  0  0
  6 16  4  0  0  0  0
 16 17  1  0  0  0  0
  2 17  1  0  0  0  0
 17 18  1  0  0  0  0
 17 19  1  0  0  0  0
  1 20  1  0  0  0  0
  1 21  1  0  0  0  0
  1 22  1  0  0  0  0
  2 23  1  0  0  0  0
  4 24  1  0  0  0  0
  4 25  1  0  0  0  0
  4 26  1  0  0  0  0
  5 27  1  0  0  0  0
  5 28  1  0  0  0  0
  5 29  1  0  0  0  0
  7 30  1  0  0  0  0
  9 31  1  0  0  0  0
  9 32  1  0  0  0  0
 11 33  1  0  0  0  0
 11 34  1  0  0  0  0
 12 35  1  0  0  0  0
 13 36  1  0  0  0  0
 13 37  1  0  0  0  0
 13 38  1  0  0  0  0
 15 39  1  0  0  0  0
 18 40  1  0  0  0  0
 18 41  1  0  0  0  0
 18 42  1  0  0  0  0
 19 43  1  0  0  0  0
 19 44  1  0  0  0  0
 19 45  1  0  0  0  0
M  END
>  <InChIKey>
ONKNPOPIGWHAQC-UHFFFAOYSA-N

>  <UN GHS>
Non-irritant

>  <CASRN>
1222-05-5

> <Outcome>
0

>  <Index>
561

>  <StandardizerResult>
Dearomatize (ID: Dearomatize)
Clear Stereo (ID: ClearStereo)
Wedge Clean (ID: WedgeClean)
Mesomerize (ID: Mesomerize)
Tautomerize (ID: Tautomerize)
Aromatize (ID: Aromatize)
Add Explicit Hydrogens (ID: AddExplicitH)
Neutralize (ID: Neutralize)
Clean 2D (ID: Clean2D)

> <knn Distance>
4.35889911651611

> <CpId>
561

$$$$
706
  Mrv1532301301811342D          

 58 59  0  0  0  0            999 V2000
   -4.7028   -4.8266    0.0000 C   0  0  0  0  0  0  0  0  0  0  0  0
   -3.9884   -5.2391    0.0000 C   0  0  0  0  0  0  0  0  0  0  0  0
   -3.9884   -6.0641    0.0000 C   0  0  0  0  0  0  0  0  0  0  0  0
   -3.2739   -4.8266    0.0000 C   0  0  0  0  0  0  0  0  0  0  0  0
   -2.5594   -5.2391    0.0000 C   0  0  0  0  0  0  0  0  0  0  0  0
   -1.8450   -4.8266    0.0000 C   0  0  0  0  0  0  0  0  0  0  0  0
   -1.1305   -5.2391    0.0000 C   0  0  0  0  0  0  0  0  0  0  0  0
   -0.4160   -4.8266    0.0000 C   0  0  0  0  0  0  0  0  0  0  0  0
    0.2985   -5.2391    0.0000 C   0  0  0  0  0  0  0  0  0  0  0  0
    1.0129   -4.8266    0.0000 C   0  0  0  0  0  0  0  0  0  0  0  0
    1.7274   -5.2391    0.0000 O   0  0  0  0  0  0  0  0  0  0  0  0
    2.4419   -4.8266    0.0000 P   0  0  0  0  0  0  0  0  0  0  0  0
    2.8544   -5.5411    0.0000 O   0  0  0  0  0  0  0  0  0  0  0  0
    3.1563   -4.4141    0.0000 O   0  0  0  0  0  0  0  0  0  0  0  0
    3.8708   -4.8266    0.0000 C   0  0  0  0  0  0  0  0  0  0  0  0
    4.5853   -4.4141    0.0000 C   0  0  0  0  0  0  0  0  0  0  0  0
    5.2998   -4.8266    0.0000 C   0  0  0  0  0  0  0  0  0  0  0  0
    5.2998   -5.6516    0.0000 C   0  0  0  0  0  0  0  0  0  0  0  0
    4.5853   -6.0641    0.0000 C   0  0  0  0  0  0  0  0  0  0  0  0
    3.8708   -5.6516    0.0000 C   0  0  0  0  0  0  0  0  0  0  0  0
    2.0294   -4.1121    0.0000 O   0  0  0  0  0  0  0  0  0  0  0  0
    2.4419   -3.3977    0.0000 C   0  0  0  0  0  0  0  0  0  0  0  0
    2.0294   -2.6832    0.0000 C   0  0  0  0  0  0  0  0  0  0  0  0
    2.4419   -1.9687    0.0000 C   0  0  0  0  0  0  0  0  0  0  0  0
    3.2669   -1.9687    0.0000 C   0  0  0  0  0  0  0  0  0  0  0  0
    3.6794   -2.6832    0.0000 C   0  0  0  0  0  0  0  0  0  0  0  0
    3.2669   -3.3977    0.0000 C   0  0  0  0  0  0  0  0  0  0  0  0
   -4.2903   -4.1121    0.0000 H   0  0  0  0  0  0  0  0  0  0  0  0
   -5.4173   -4.4141    0.0000 H   0  0  0  0  0  0  0  0  0  0  0  0
   -5.1153   -5.5411    0.0000 H   0  0  0  0  0  0  0  0  0  0  0  0
   -4.7028   -5.6516    0.0000 H   0  0  0  0  0  0  0  0  0  0  0  0
   -4.5717   -6.6475    0.0000 H   0  0  0  0  0  0  0  0  0  0  0  0
   -3.5759   -6.7786    0.0000 H   0  0  0  0  0  0  0  0  0  0  0  0
   -3.1915   -5.8506    0.0000 H   0  0  0  0  0  0  0  0  0  0  0  0
   -2.9036   -4.0894    0.0000 H   0  0  0  0  0  0  0  0  0  0  0  0
   -3.6442   -4.0894    0.0000 H   0  0  0  0  0  0  0  0  0  0  0  0
   -2.0626   -5.8978    0.0000 H   0  0  0  0  0  0  0  0  0  0  0  0
   -2.5594   -4.4141    0.0000 H   0  0  0  0  0  0  0  0  0  0  0  0
   -1.2130   -4.2963    0.0000 H   0  0  0  0  0  0  0  0  0  0  0  0
   -1.7017   -4.0142    0.0000 H   0  0  0  0  0  0  0  0  0  0  0  0
   -1.5007   -5.9764    0.0000 H   0  0  0  0  0  0  0  0  0  0  0  0
   -0.7602   -5.9764    0.0000 H   0  0  0  0  0  0  0  0  0  0  0  0
    0.3070   -4.4293    0.0000 H   0  0  0  0  0  0  0  0  0  0  0  0
   -0.3811   -4.0024    0.0000 H   0  0  0  0  0  0  0  0  0  0  0  0
   -0.0718   -5.9764    0.0000 H   0  0  0  0  0  0  0  0  0  0  0  0
    0.6687   -5.9764    0.0000 H   0  0  0  0  0  0  0  0  0  0  0  0
    1.6426   -4.2936    0.0000 H   0  0  0  0  0  0  0  0  0  0  0  0
    1.1507   -4.0132    0.0000 H   0  0  0  0  0  0  0  0  0  0  0  0
    4.5853   -3.5891    0.0000 H   0  0  0  0  0  0  0  0  0  0  0  0
    6.0142   -4.4141    0.0000 H   0  0  0  0  0  0  0  0  0  0  0  0
    6.0142   -6.0641    0.0000 H   0  0  0  0  0  0  0  0  0  0  0  0
    4.5853   -6.8891    0.0000 H   0  0  0  0  0  0  0  0  0  0  0  0
    3.1563   -6.0641    0.0000 H   0  0  0  0  0  0  0  0  0  0  0  0
    1.2044   -2.6832    0.0000 H   0  0  0  0  0  0  0  0  0  0  0  0
    2.0294   -1.2543    0.0000 H   0  0  0  0  0  0  0  0  0  0  0  0
    3.6794   -1.2543    0.0000 H   0  0  0  0  0  0  0  0  0  0  0  0
    4.5044   -2.6832    0.0000 H   0  0  0  0  0  0  0  0  0  0  0  0
    3.6794   -4.1121    0.0000 H   0  0  0  0  0  0  0  0  0  0  0  0
  1  2  1  0  0  0  0
  2  3  1  0  0  0  0
  2  4  1  0  0  0  0
  4  5  1  0  0  0  0
  5  6  1  0  0  0  0
  6  7  1  0  0  0  0
  7  8  1  0  0  0  0
  8  9  1  0  0  0  0
  9 10  1  0  0  0  0
 10 11  1  0  0  0  0
 11 12  1  0  0  0  0
 12 13  2  0  0  0  0
 12 14  1  0  0  0  0
 14 15  1  0  0  0  0
 15 16  4  0  0  0  0
 16 17  4  0  0  0  0
 17 18  4  0  0  0  0
 18 19  4  0  0  0  0
 19 20  4  0  0  0  0
 15 20  4  0  0  0  0
 12 21  1  0  0  0  0
 21 22  1  0  0  0  0
 22 23  4  0  0  0  0
 23 24  4  0  0  0  0
 24 25  4  0  0  0  0
 25 26  4  0  0  0  0
 26 27  4  0  0  0  0
 22 27  4  0  0  0  0
  1 28  1  0  0  0  0
  1 29  1  0  0  0  0
  1 30  1  0  0  0  0
  2 31  1  0  0  0  0
  3 32  1  0  0  0  0
  3 33  1  0  0  0  0
  3 34  1  0  0  0  0
  4 35  1  0  0  0  0
  4 36  1  0  0  0  0
  5 37  1  0  0  0  0
  5 38  1  0  0  0  0
  6 39  1  0  0  0  0
  6 40  1  0  0  0  0
  7 41  1  0  0  0  0
  7 42  1  0  0  0  0
  8 43  1  0  0  0  0
  8 44  1  0  0  0  0
  9 45  1  0  0  0  0
  9 46  1  0  0  0  0
 10 47  1  0  0  0  0
 10 48  1  0  0  0  0
 16 49  1  0  0  0  0
 17 50  1  0  0  0  0
 18 51  1  0  0  0  0
 19 52  1  0  0  0  0
 20 53  1  0  0  0  0
 23 54  1  0  0  0  0
 24 55  1  0  0  0  0
 25 56  1  0  0  0  0
 26 57  1  0  0  0  0
 27 58  1  0  0  0  0
M  END
>  <InChIKey>
RYUJRXVZSJCHDZ-UHFFFAOYSA-N

>  <UN GHS>
Non-irritant

>  <CASRN>
29761-21-5

> <Outcome>
0

>  <Index>
706

>  <StandardizerResult>
Dearomatize (ID: Dearomatize)
Clear Stereo (ID: ClearStereo)
Wedge Clean (ID: WedgeClean)
Mesomerize (ID: Mesomerize)
Tautomerize (ID: Tautomerize)
Aromatize (ID: Aromatize)
Add Explicit Hydrogens (ID: AddExplicitH)
Neutralize (ID: Neutralize)
Clean 2D (ID: Clean2D)

> <knn Distance>
4.35889911651611

> <CpId>
706

$$$$
814
  Mrv1532301301811342D          

 31 30  0  0  0  0            999 V2000
    1.0461    1.4283    0.0000 C   0  0  0  0  0  0  0  0  0  0  0  0
    1.7605    1.8408    0.0000 C   0  0  0  0  0  0  0  0  0  0  0  0
    2.4750    1.4283    0.0000 C   0  0  0  0  0  0  0  0  0  0  0  0
    3.1895    1.8408    0.0000 C   0  0  0  0  0  0  0  0  0  0  0  0
    3.9039    1.4283    0.0000 C   0  0  0  0  0  0  0  0  0  0  0  0
    4.6184    1.8408    0.0000 C   0  0  0  0  0  0  0  0  0  0  0  0
    5.3329    1.4283    0.0000 C   0  0  0  0  0  0  0  0  0  0  0  0
    6.0474    1.8408    0.0000 C   0  0  0  0  0  0  0  0  0  0  0  0
    6.7618    1.4283    0.0000 O   0  0  0  0  0  0  0  0  0  0  0  0
    7.4763    1.8408    0.0000 S   0  0  0  0  0  0  0  0  0  0  0  0
    8.1908    2.2533    0.0000 O   0  0  0  0  0  0  0  0  0  0  0  0
    7.8888    1.1264    0.0000 O   0  0  0  0  0  0  0  0  0  0  0  0
    7.0638    2.5553    0.0000 O   0  0  0  0  0  0  0  0  0  0  0  0
    0.6336    2.1428    0.0000 H   0  0  0  0  0  0  0  0  0  0  0  0
    0.3316    1.0158    0.0000 H   0  0  0  0  0  0  0  0  0  0  0  0
    1.4586    0.7139    0.0000 H   0  0  0  0  0  0  0  0  0  0  0  0
    2.1308    2.5781    0.0000 H   0  0  0  0  0  0  0  0  0  0  0  0
    1.3903    2.5781    0.0000 H   0  0  0  0  0  0  0  0  0  0  0  0
    2.1047    0.6911    0.0000 H   0  0  0  0  0  0  0  0  0  0  0  0
    2.8453    0.6911    0.0000 H   0  0  0  0  0  0  0  0  0  0  0  0
    3.5597    2.5781    0.0000 H   0  0  0  0  0  0  0  0  0  0  0  0
    2.8192    2.5781    0.0000 H   0  0  0  0  0  0  0  0  0  0  0  0
    3.5337    0.6911    0.0000 H   0  0  0  0  0  0  0  0  0  0  0  0
    4.2742    0.6911    0.0000 H   0  0  0  0  0  0  0  0  0  0  0  0
    4.9887    2.5781    0.0000 H   0  0  0  0  0  0  0  0  0  0  0  0
    4.2482    2.5781    0.0000 H   0  0  0  0  0  0  0  0  0  0  0  0
    4.9626    0.6911    0.0000 H   0  0  0  0  0  0  0  0  0  0  0  0
    5.7032    0.6911    0.0000 H   0  0  0  0  0  0  0  0  0  0  0  0
    6.4176    2.5781    0.0000 H   0  0  0  0  0  0  0  0  0  0  0  0
    5.6771    2.5781    0.0000 H   0  0  0  0  0  0  0  0  0  0  0  0
    8.9052    1.8408    0.0000 H   0  0  0  0  0  0  0  0  0  0  0  0
  1  2  1  0  0  0  0
  2  3  1  0  0  0  0
  3  4  1  0  0  0  0
  4  5  1  0  0  0  0
  5  6  1  0  0  0  0
  6  7  1  0  0  0  0
  7  8  1  0  0  0  0
  8  9  1  0  0  0  0
  9 10  1  0  0  0  0
 10 11  1  0  0  0  0
 10 12  2  0  0  0  0
 10 13  2  0  0  0  0
  1 14  1  0  0  0  0
  1 15  1  0  0  0  0
  1 16  1  0  0  0  0
  2 17  1  0  0  0  0
  2 18  1  0  0  0  0
  3 19  1  0  0  0  0
  3 20  1  0  0  0  0
  4 21  1  0  0  0  0
  4 22  1  0  0  0  0
  5 23  1  0  0  0  0
  5 24  1  0  0  0  0
  6 25  1  0  0  0  0
  6 26  1  0  0  0  0
  7 27  1  0  0  0  0
  7 28  1  0  0  0  0
  8 29  1  0  0  0  0
  8 30  1  0  0  0  0
 11 31  1  0  0  0  0
M  END
>  <InChIKey>
UZZYXUGECOQHPU-UHFFFAOYSA-M

>  <UN GHS>
Non-irritant

>  <CASRN>
142-31-4

> <Outcome>
0

>  <Index>
814

>  <StandardizerResult>
Clear Stereo (ID: ClearStereo)
Wedge Clean (ID: WedgeClean)
Mesomerize (ID: Mesomerize)
Tautomerize (ID: Tautomerize)
Add Explicit Hydrogens (ID: AddExplicitH)
Neutralize (ID: Neutralize)
Clean 2D (ID: Clean2D)

> <knn Distance>
4.35889911651611

> <CpId>
814

$$$$
865
  Mrv1532301301811342D          

 41 40  0  0  0  0            999 V2000
    2.1656   -0.3044    0.0000 C   0  0  0  0  0  0  0  0  0  0  0  0
    2.8801   -0.7169    0.0000 C   0  0  0  0  0  0  0  0  0  0  0  0
    3.5945   -0.3044    0.0000 Si  0  0  0  0  0  0  0  0  0  0  0  0
    4.0070   -1.0189    0.0000 O   0  0  0  0  0  0  0  0  0  0  0  0
    4.8320   -1.0189    0.0000 N   0  0  0  0  0  0  0  0  0  0  0  0
    5.2445   -1.7333    0.0000 C   0  0  0  0  0  0  0  0  0  0  0  0
    6.0695   -1.7333    0.0000 C   0  0  0  0  0  0  0  0  0  0  0  0
    4.8320   -2.4478    0.0000 C   0  0  0  0  0  0  0  0  0  0  0  0
    3.1820    0.4101    0.0000 O   0  0  0  0  0  0  0  0  0  0  0  0
    2.3570    0.4101    0.0000 N   0  0  0  0  0  0  0  0  0  0  0  0
    1.9445    1.1245    0.0000 C   0  0  0  0  0  0  0  0  0  0  0  0
    1.1195    1.1245    0.0000 C   0  0  0  0  0  0  0  0  0  0  0  0
    2.3570    1.8390    0.0000 C   0  0  0  0  0  0  0  0  0  0  0  0
    4.3090    0.1081    0.0000 O   0  0  0  0  0  0  0  0  0  0  0  0
    5.0235   -0.3044    0.0000 N   0  0  0  0  0  0  0  0  0  0  0  0
    5.7380    0.1081    0.0000 C   0  0  0  0  0  0  0  0  0  0  0  0
    6.4524   -0.3044    0.0000 C   0  0  0  0  0  0  0  0  0  0  0  0
    5.7380    0.9331    0.0000 C   0  0  0  0  0  0  0  0  0  0  0  0
    1.5453    0.2396    0.0000 H   0  0  0  0  0  0  0  0  0  0  0  0
    1.4034   -0.6201    0.0000 H   0  0  0  0  0  0  0  0  0  0  0  0
    2.1116   -1.1276    0.0000 H   0  0  0  0  0  0  0  0  0  0  0  0
    3.0071   -1.5321    0.0000 H   0  0  0  0  0  0  0  0  0  0  0  0
    3.5053   -1.2552    0.0000 H   0  0  0  0  0  0  0  0  0  0  0  0
    6.0695   -2.5583    0.0000 H   0  0  0  0  0  0  0  0  0  0  0  0
    6.8945   -1.7333    0.0000 H   0  0  0  0  0  0  0  0  0  0  0  0
    6.0695   -0.9083    0.0000 H   0  0  0  0  0  0  0  0  0  0  0  0
    4.1176   -2.0353    0.0000 H   0  0  0  0  0  0  0  0  0  0  0  0
    4.4195   -3.1623    0.0000 H   0  0  0  0  0  0  0  0  0  0  0  0
    5.5465   -2.8603    0.0000 H   0  0  0  0  0  0  0  0  0  0  0  0
    1.1195    1.9495    0.0000 H   0  0  0  0  0  0  0  0  0  0  0  0
    0.2945    1.1245    0.0000 H   0  0  0  0  0  0  0  0  0  0  0  0
    1.1195    0.2995    0.0000 H   0  0  0  0  0  0  0  0  0  0  0  0
    3.0715    1.4265    0.0000 H   0  0  0  0  0  0  0  0  0  0  0  0
    2.7695    2.5535    0.0000 H   0  0  0  0  0  0  0  0  0  0  0  0
    1.6426    2.2515    0.0000 H   0  0  0  0  0  0  0  0  0  0  0  0
    6.9341   -0.9742    0.0000 H   0  0  0  0  0  0  0  0  0  0  0  0
    7.2536   -0.1074    0.0000 H   0  0  0  0  0  0  0  0  0  0  0  0
    6.5686    0.5124    0.0000 H   0  0  0  0  0  0  0  0  0  0  0  0
    6.2969    1.5399    0.0000 H   0  0  0  0  0  0  0  0  0  0  0  0
    5.3060    1.6360    0.0000 H   0  0  0  0  0  0  0  0  0  0  0  0
    4.9441    0.7087    0.0000 H   0  0  0  0  0  0  0  0  0  0  0  0
  1  2  1  0  0  0  0
  2  3  1  0  0  0  0
  3  4  1  0  0  0  0
  4  5  1  0  0  0  0
  5  6  2  0  0  0  0
  6  7  1  0  0  0  0
  6  8  1  0  0  0  0
  3  9  1  0  0  0  0
  9 10  1  0  0  0  0
 10 11  2  0  0  0  0
 11 12  1  0  0  0  0
 11 13  1  0  0  0  0
  3 14  1  0  0  0  0
 14 15  1  0  0  0  0
 15 16  2  0  0  0  0
 16 17  1  0  0  0  0
 16 18  1  0  0  0  0
  1 19  1  0  0  0  0
  1 20  1  0  0  0  0
  1 21  1  0  0  0  0
  2 22  1  0  0  0  0
  2 23  1  0  0  0  0
  7 24  1  0  0  0  0
  7 25  1  0  0  0  0
  7 26  1  0  0  0  0
  8 27  1  0  0  0  0
  8 28  1  0  0  0  0
  8 29  1  0  0  0  0
 12 30  1  0  0  0  0
 12 31  1  0  0  0  0
 12 32  1  0  0  0  0
 13 33  1  0  0  0  0
 13 34  1  0  0  0  0
 13 35  1  0  0  0  0
 17 36  1  0  0  0  0
 17 37  1  0  0  0  0
 17 38  1  0  0  0  0
 18 39  1  0  0  0  0
 18 40  1  0  0  0  0
 18 41  1  0  0  0  0
M  END
>  <InChIKey>
WJXSOVAGEAAECT-UHFFFAOYSA-N

>  <UN GHS>
Non-irritant

>  <CASRN>
58190-57-1

> <Outcome>
0

>  <Index>
865

>  <StandardizerResult>
Clear Stereo (ID: ClearStereo)
Wedge Clean (ID: WedgeClean)
Mesomerize (ID: Mesomerize)
Tautomerize (ID: Tautomerize)
Add Explicit Hydrogens (ID: AddExplicitH)
Neutralize (ID: Neutralize)
Clean 2D (ID: Clean2D)

> <knn Distance>
4.35889911651611

> <CpId>
865

$$$$
1001
  Mrv1532301301811342D          

 52 55  0  0  0  0            999 V2000
    3.5544    2.0247    0.0000 O   0  0  0  0  0  0  0  0  0  0  0  0
    3.5544    1.1997    0.0000 C   0  0  0  0  0  0  0  0  0  0  0  0
    2.8400    0.7872    0.0000 N   0  0  0  0  0  0  0  0  0  0  0  0
    2.8400   -0.0378    0.0000 C   0  0  0  0  0  0  0  0  0  0  0  0
    3.5544   -0.4503    0.0000 C   0  0  0  0  0  0  0  0  0  0  0  0
    3.5544   -1.2753    0.0000 C   0  0  0  0  0  0  0  0  0  0  0  0
    2.8400   -1.6878    0.0000 C   0  0  0  0  0  0  0  0  0  0  0  0
    2.1255   -1.2753    0.0000 C   0  0  0  0  0  0  0  0  0  0  0  0
    2.1255   -0.4503    0.0000 C   0  0  0  0  0  0  0  0  0  0  0  0
    1.4110   -0.0378    0.0000 S   0  0  0  0  0  0  0  0  0  0  0  0
    0.6966   -0.4503    0.0000 S   0  0  0  0  0  0  0  0  0  0  0  0
   -0.0179   -0.0378    0.0000 C   0  0  0  0  0  0  0  0  0  0  0  0
   -0.7324   -0.4503    0.0000 C   0  0  0  0  0  0  0  0  0  0  0  0
   -1.4469   -0.0378    0.0000 C   0  0  0  0  0  0  0  0  0  0  0  0
   -1.4469    0.7872    0.0000 C   0  0  0  0  0  0  0  0  0  0  0  0
   -0.7324    1.1997    0.0000 C   0  0  0  0  0  0  0  0  0  0  0  0
   -0.0179    0.7872    0.0000 C   0  0  0  0  0  0  0  0  0  0  0  0
    0.6966    1.1997    0.0000 N   0  0  0  0  0  0  0  0  0  0  0  0
    0.6966    2.0247    0.0000 C   0  0  0  0  0  0  0  0  0  0  0  0
   -0.0179    2.4372    0.0000 O   0  0  0  0  0  0  0  0  0  0  0  0
    1.4110    2.4372    0.0000 C   0  0  0  0  0  0  0  0  0  0  0  0
    1.4110    3.2622    0.0000 C   0  0  0  0  0  0  0  0  0  0  0  0
    2.1255    3.6747    0.0000 C   0  0  0  0  0  0  0  0  0  0  0  0
    2.8400    3.2622    0.0000 C   0  0  0  0  0  0  0  0  0  0  0  0
    2.8400    2.4372    0.0000 C   0  0  0  0  0  0  0  0  0  0  0  0
    2.1255    2.0247    0.0000 C   0  0  0  0  0  0  0  0  0  0  0  0
    4.2689    0.7872    0.0000 C   0  0  0  0  0  0  0  0  0  0  0  0
    4.9834    1.1997    0.0000 C   0  0  0  0  0  0  0  0  0  0  0  0
    5.6979    0.7872    0.0000 C   0  0  0  0  0  0  0  0  0  0  0  0
    5.6979   -0.0378    0.0000 C   0  0  0  0  0  0  0  0  0  0  0  0
    4.9834   -0.4503    0.0000 C   0  0  0  0  0  0  0  0  0  0  0  0
    4.2689   -0.0378    0.0000 C   0  0  0  0  0  0  0  0  0  0  0  0
    2.1255    1.1997    0.0000 H   0  0  0  0  0  0  0  0  0  0  0  0
    3.5544    0.3747    0.0000 H   0  0  0  0  0  0  0  0  0  0  0  0
    4.2689   -1.6878    0.0000 H   0  0  0  0  0  0  0  0  0  0  0  0
    2.8400   -2.5128    0.0000 H   0  0  0  0  0  0  0  0  0  0  0  0
    1.4110   -1.6878    0.0000 H   0  0  0  0  0  0  0  0  0  0  0  0
   -0.7324   -1.2753    0.0000 H   0  0  0  0  0  0  0  0  0  0  0  0
   -2.1613   -0.4503    0.0000 H   0  0  0  0  0  0  0  0  0  0  0  0
   -2.1613    1.1997    0.0000 H   0  0  0  0  0  0  0  0  0  0  0  0
   -0.7324    2.0247    0.0000 H   0  0  0  0  0  0  0  0  0  0  0  0
    1.4110    0.7872    0.0000 H   0  0  0  0  0  0  0  0  0  0  0  0
    0.6966    3.6747    0.0000 H   0  0  0  0  0  0  0  0  0  0  0  0
    2.1255    4.4997    0.0000 H   0  0  0  0  0  0  0  0  0  0  0  0
    3.5544    3.6747    0.0000 H   0  0  0  0  0  0  0  0  0  0  0  0
    2.8400    1.6122    0.0000 H   0  0  0  0  0  0  0  0  0  0  0  0
    1.4110    1.6122    0.0000 H   0  0  0  0  0  0  0  0  0  0  0  0
    4.9834    2.0247    0.0000 H   0  0  0  0  0  0  0  0  0  0  0  0
    6.4123    1.1997    0.0000 H   0  0  0  0  0  0  0  0  0  0  0  0
    6.4123   -0.4503    0.0000 H   0  0  0  0  0  0  0  0  0  0  0  0
    4.9834   -1.2753    0.0000 H   0  0  0  0  0  0  0  0  0  0  0  0
    4.9834    0.3747    0.0000 H   0  0  0  0  0  0  0  0  0  0  0  0
  1  2  2  0  0  0  0
  2  3  1  0  0  0  0
  3  4  1  0  0  0  0
  4  5  4  0  0  0  0
  5  6  4  0  0  0  0
  6  7  4  0  0  0  0
  7  8  4  0  0  0  0
  8  9  4  0  0  0  0
  4  9  4  0  0  0  0
  9 10  1  0  0  0  0
 10 11  1  0  0  0  0
 11 12  1  0  0  0  0
 12 13  4  0  0  0  0
 13 14  4  0  0  0  0
 14 15  4  0  0  0  0
 15 16  4  0  0  0  0
 16 17  4  0  0  0  0
 12 17  4  0  0  0  0
 17 18  1  0  0  0  0
 18 19  1  0  0  0  0
 19 20  2  0  0  0  0
 19 21  1  0  0  0  0
 21 22  4  0  0  0  0
 22 23  4  0  0  0  0
 23 24  4  0  0  0  0
 24 25  4  0  0  0  0
 25 26  4  0  0  0  0
 21 26  4  0  0  0  0
  2 27  1  0  0  0  0
 27 28  4  0  0  0  0
 28 29  4  0  0  0  0
 29 30  4  0  0  0  0
 30 31  4  0  0  0  0
 31 32  4  0  0  0  0
 27 32  4  0  0  0  0
  3 33  1  0  0  0  0
  5 34  1  0  0  0  0
  6 35  1  0  0  0  0
  7 36  1  0  0  0  0
  8 37  1  0  0  0  0
 13 38  1  0  0  0  0
 14 39  1  0  0  0  0
 15 40  1  0  0  0  0
 16 41  1  0  0  0  0
 18 42  1  0  0  0  0
 22 43  1  0  0  0  0
 23 44  1  0  0  0  0
 24 45  1  0  0  0  0
 25 46  1  0  0  0  0
 26 47  1  0  0  0  0
 28 48  1  0  0  0  0
 29 49  1  0  0  0  0
 30 50  1  0  0  0  0
 31 51  1  0  0  0  0
 32 52  1  0  0  0  0
M  END
>  <InChIKey>
ZHMIOPLMFZVSHY-UHFFFAOYSA-N

>  <UN GHS>
Non-irritant

>  <CASRN>
135-57-9

> <Outcome>
0

>  <Index>
1001

>  <StandardizerResult>
Dearomatize (ID: Dearomatize)
Clear Stereo (ID: ClearStereo)
Wedge Clean (ID: WedgeClean)
Mesomerize (ID: Mesomerize)
Tautomerize (ID: Tautomerize)
Aromatize (ID: Aromatize)
Add Explicit Hydrogens (ID: AddExplicitH)
Neutralize (ID: Neutralize)
Clean 2D (ID: Clean2D)

> <knn Distance>
4.35889911651611

> <CpId>
1001

$$$$
1077
  Mrv1532301301811342D          

 62 64  0  0  0  0            999 V2000
    2.8190    0.0426    0.0000 C   0  0  0  0  0  0  0  0  0  0  0  0
    3.5334    0.4551    0.0000 C   0  0  0  0  0  0  0  0  0  0  0  0
    4.2479    0.0426    0.0000 C   0  0  0  0  0  0  0  0  0  0  0  0
    4.2479   -0.7824    0.0000 C   0  0  0  0  0  0  0  0  0  0  0  0
    4.9624    0.4551    0.0000 C   0  0  0  0  0  0  0  0  0  0  0  0
    4.9624    1.2801    0.0000 O   0  0  0  0  0  0  0  0  0  0  0  0
    5.6768    0.0426    0.0000 O   0  0  0  0  0  0  0  0  0  0  0  0
    6.3913    0.4551    0.0000 C   0  0  0  0  0  0  0  0  0  0  0  0
    6.3913    1.2801    0.0000 C   0  0  0  0  0  0  0  0  0  0  0  0
    7.1058    1.6926    0.0000 C   0  0  0  0  0  0  0  0  0  0  0  0
    7.8202    1.2801    0.0000 C   0  0  0  0  0  0  0  0  0  0  0  0
    7.8202    0.4551    0.0000 C   0  0  0  0  0  0  0  0  0  0  0  0
    8.5347    0.0426    0.0000 C   0  0  0  0  0  0  0  0  0  0  0  0
    8.5347   -0.7824    0.0000 C   0  0  0  0  0  0  0  0  0  0  0  0
    7.8202   -1.1949    0.0000 C   0  0  0  0  0  0  0  0  0  0  0  0
    7.8202   -2.0199    0.0000 C   0  0  0  0  0  0  0  0  0  0  0  0
    7.1058   -0.7824    0.0000 C   0  0  0  0  0  0  0  0  0  0  0  0
    6.3913   -1.1949    0.0000 C   0  0  0  0  0  0  0  0  0  0  0  0
    6.3913   -2.0199    0.0000 C   0  0  0  0  0  0  0  0  0  0  0  0
    5.6768   -2.4324    0.0000 C   0  0  0  0  0  0  0  0  0  0  0  0
    4.9624   -2.0199    0.0000 C   0  0  0  0  0  0  0  0  0  0  0  0
    4.2479   -2.4324    0.0000 C   0  0  0  0  0  0  0  0  0  0  0  0
    3.5334   -2.0199    0.0000 O   0  0  0  0  0  0  0  0  0  0  0  0
    4.2479   -3.2574    0.0000 C   0  0  0  0  0  0  0  0  0  0  0  0
    4.9624   -3.6699    0.0000 C   0  0  0  0  0  0  0  0  0  0  0  0
    4.9624   -4.4949    0.0000 O   0  0  0  0  0  0  0  0  0  0  0  0
    5.6768   -3.2574    0.0000 O   0  0  0  0  0  0  0  0  0  0  0  0
    7.1058    0.0426    0.0000 C   0  0  0  0  0  0  0  0  0  0  0  0
    2.4065    0.7571    0.0000 H   0  0  0  0  0  0  0  0  0  0  0  0
    2.1045   -0.3699    0.0000 H   0  0  0  0  0  0  0  0  0  0  0  0
    3.2315   -0.6718    0.0000 H   0  0  0  0  0  0  0  0  0  0  0  0
    3.9037    1.1924    0.0000 H   0  0  0  0  0  0  0  0  0  0  0  0
    3.1632    1.1924    0.0000 H   0  0  0  0  0  0  0  0  0  0  0  0
    3.5334   -0.3699    0.0000 H   0  0  0  0  0  0  0  0  0  0  0  0
    3.6645   -1.3657    0.0000 H   0  0  0  0  0  0  0  0  0  0  0  0
    4.6604   -1.4968    0.0000 H   0  0  0  0  0  0  0  0  0  0  0  0
    5.0448   -0.5688    0.0000 H   0  0  0  0  0  0  0  0  0  0  0  0
    6.3913   -0.3699    0.0000 H   0  0  0  0  0  0  0  0  0  0  0  0
    5.9380    1.9694    0.0000 H   0  0  0  0  0  0  0  0  0  0  0  0
    5.5677    1.3281    0.0000 H   0  0  0  0  0  0  0  0  0  0  0  0
    7.4760    2.4299    0.0000 H   0  0  0  0  0  0  0  0  0  0  0  0
    6.7355    2.4299    0.0000 H   0  0  0  0  0  0  0  0  0  0  0  0
    8.5347    1.6926    0.0000 H   0  0  0  0  0  0  0  0  0  0  0  0
    9.2492    0.4551    0.0000 H   0  0  0  0  0  0  0  0  0  0  0  0
    9.2492   -1.1949    0.0000 H   0  0  0  0  0  0  0  0  0  0  0  0
    7.1058   -1.6074    0.0000 H   0  0  0  0  0  0  0  0  0  0  0  0
    7.2369   -2.6032    0.0000 H   0  0  0  0  0  0  0  0  0  0  0  0
    8.2327   -2.7343    0.0000 H   0  0  0  0  0  0  0  0  0  0  0  0
    8.6171   -1.8063    0.0000 H   0  0  0  0  0  0  0  0  0  0  0  0
    7.8202   -0.3699    0.0000 H   0  0  0  0  0  0  0  0  0  0  0  0
    5.6161   -0.9127    0.0000 H   0  0  0  0  0  0  0  0  0  0  0  0
    5.6161   -1.4770    0.0000 H   0  0  0  0  0  0  0  0  0  0  0  0
    6.5346   -2.8323    0.0000 H   0  0  0  0  0  0  0  0  0  0  0  0
    7.0233   -2.5502    0.0000 H   0  0  0  0  0  0  0  0  0  0  0  0
    4.9624   -2.8449    0.0000 H   0  0  0  0  0  0  0  0  0  0  0  0
    5.1077   -1.2078    0.0000 H   0  0  0  0  0  0  0  0  0  0  0  0
    4.1655   -1.8063    0.0000 H   0  0  0  0  0  0  0  0  0  0  0  0
    3.5334   -2.8449    0.0000 H   0  0  0  0  0  0  0  0  0  0  0  0
    2.7125   -1.9384    0.0000 H   0  0  0  0  0  0  0  0  0  0  0  0
    3.6159   -3.7877    0.0000 H   0  0  0  0  0  0  0  0  0  0  0  0
    4.1046   -4.0698    0.0000 H   0  0  0  0  0  0  0  0  0  0  0  0
    7.1058    0.8676    0.0000 H   0  0  0  0  0  0  0  0  0  0  0  0
  1  2  1  0  0  0  0
  2  3  1  0  0  0  0
  3  4  1  0  0  0  0
  3  5  1  0  0  0  0
  5  6  2  0  0  0  0
  5  7  1  0  0  0  0
  7  8  1  0  0  0  0
  8  9  1  0  0  0  0
  9 10  1  0  0  0  0
 10 11  1  0  0  0  0
 11 12  2  0  0  0  0
 12 13  1  0  0  0  0
 13 14  2  0  0  0  0
 14 15  1  0  0  0  0
 15 16  1  0  0  0  0
 15 17  1  0  0  0  0
 17 18  1  0  0  0  0
 18 19  1  0  0  0  0
 19 20  1  0  0  0  0
 20 21  1  0  0  0  0
 21 22  1  0  0  0  0
 22 23  1  0  0  0  0
 22 24  1  0  0  0  0
 24 25  1  0  0  0  0
 25 26  2  0  0  0  0
 25 27  1  0  0  0  0
 20 27  1  0  0  0  0
 17 28  1  0  0  0  0
  8 28  1  0  0  0  0
 12 28  1  0  0  0  0
  1 29  1  0  0  0  0
  1 30  1  0  0  0  0
  1 31  1  0  0  0  0
  2 32  1  0  0  0  0
  2 33  1  0  0  0  0
  3 34  1  0  0  0  0
  4 35  1  0  0  0  0
  4 36  1  0  0  0  0
  4 37  1  0  0  0  0
  8 38  1  0  0  0  0
  9 39  1  0  0  0  0
  9 40  1  0  0  0  0
 10 41  1  0  0  0  0
 10 42  1  0  0  0  0
 11 43  1  0  0  0  0
 13 44  1  0  0  0  0
 14 45  1  0  0  0  0
 15 46  1  0  0  0  0
 16 47  1  0  0  0  0
 16 48  1  0  0  0  0
 16 49  1  0  0  0  0
 17 50  1  0  0  0  0
 18 51  1  0  0  0  0
 18 52  1  0  0  0  0
 19 53  1  0  0  0  0
 19 54  1  0  0  0  0
 20 55  1  0  0  0  0
 21 56  1  0  0  0  0
 21 57  1  0  0  0  0
 22 58  1  0  0  0  0
 23 59  1  0  0  0  0
 24 60  1  0  0  0  0
 24 61  1  0  0  0  0
 28 62  1  0  0  0  0
M  END
>  <InChIKey>
InChI=1S/C23H34O5/c1-4-14(2)23(26)28-20-7-5-6-16-9-8-15(3)19(22(16)20)11-10-18-12-17(24)13-21(25)27-18/h6,8-9,14-15,17-20,22,24H,4-5,7,10-13H2,1-3H3

>  <CASRN>
73573-88-3

> <Outcome>
0

>  <Index>
1077

>  <StandardizerResult>
Clear Stereo (ID: ClearStereo)
Wedge Clean (ID: WedgeClean)
Mesomerize (ID: Mesomerize)
Tautomerize (ID: Tautomerize)
Add Explicit Hydrogens (ID: AddExplicitH)
Neutralize (ID: Neutralize)
Clean 2D (ID: Clean2D)

> <knn Distance>
4.35889911651611

> <CpId>
1077

$$$$
1123
  Mrv1532301301811342D          

 46 48  0  0  0  0            999 V2000
    6.4539    1.2409    0.0000 C   0  0  0  0  0  0  0  0  0  0  0  0
    5.7394    0.8284    0.0000 C   0  0  0  0  0  0  0  0  0  0  0  0
    5.7394    0.0034    0.0000 C   0  0  0  0  0  0  0  0  0  0  0  0
    5.0250   -0.4091    0.0000 O   0  0  0  0  0  0  0  0  0  0  0  0
    6.4539   -0.4091    0.0000 N   0  0  0  0  0  0  0  0  0  0  0  0
    6.4539   -1.2341    0.0000 C   0  0  0  0  0  0  0  0  0  0  0  0
    7.1684   -1.6466    0.0000 C   0  0  0  0  0  0  0  0  0  0  0  0
    7.1684   -2.4716    0.0000 C   0  0  0  0  0  0  0  0  0  0  0  0
    7.8829   -2.8841    0.0000 C   0  0  0  0  0  0  0  0  0  0  0  0
    6.4539   -2.8841    0.0000 C   0  0  0  0  0  0  0  0  0  0  0  0
    5.7394   -2.4716    0.0000 C   0  0  0  0  0  0  0  0  0  0  0  0
    5.7394   -1.6466    0.0000 N   0  0  0  0  0  0  0  0  0  0  0  0
    5.0250    1.2409    0.0000 C   0  0  0  0  0  0  0  0  0  0  0  0
    4.3105    0.8284    0.0000 C   0  0  0  0  0  0  0  0  0  0  0  0
    3.5960    1.2409    0.0000 C   0  0  0  0  0  0  0  0  0  0  0  0
    3.5960    2.0659    0.0000 C   0  0  0  0  0  0  0  0  0  0  0  0
    4.3105    2.4784    0.0000 C   0  0  0  0  0  0  0  0  0  0  0  0
    5.0250    2.0659    0.0000 C   0  0  0  0  0  0  0  0  0  0  0  0
    4.3105    3.3034    0.0000 C   0  0  0  0  0  0  0  0  0  0  0  0
    3.5960    3.7159    0.0000 O   0  0  0  0  0  0  0  0  0  0  0  0
    5.0250    3.7159    0.0000 C   0  0  0  0  0  0  0  0  0  0  0  0
    5.0250    4.5409    0.0000 C   0  0  0  0  0  0  0  0  0  0  0  0
    5.7394    4.9534    0.0000 C   0  0  0  0  0  0  0  0  0  0  0  0
    6.4539    4.5409    0.0000 C   0  0  0  0  0  0  0  0  0  0  0  0
    6.4539    3.7159    0.0000 C   0  0  0  0  0  0  0  0  0  0  0  0
    5.7394    3.3034    0.0000 C   0  0  0  0  0  0  0  0  0  0  0  0
    6.8664    0.5265    0.0000 H   0  0  0  0  0  0  0  0  0  0  0  0
    7.1684    1.6534    0.0000 H   0  0  0  0  0  0  0  0  0  0  0  0
    6.0414    1.9554    0.0000 H   0  0  0  0  0  0  0  0  0  0  0  0
    6.4539    0.4159    0.0000 H   0  0  0  0  0  0  0  0  0  0  0  0
    7.2789   -0.4091    0.0000 H   0  0  0  0  0  0  0  0  0  0  0  0
    7.8829   -1.2341    0.0000 H   0  0  0  0  0  0  0  0  0  0  0  0
    7.4704   -3.5985    0.0000 H   0  0  0  0  0  0  0  0  0  0  0  0
    8.5973   -3.2966    0.0000 H   0  0  0  0  0  0  0  0  0  0  0  0
    8.2954   -2.1696    0.0000 H   0  0  0  0  0  0  0  0  0  0  0  0
    6.4539   -3.7091    0.0000 H   0  0  0  0  0  0  0  0  0  0  0  0
    5.0250   -2.8841    0.0000 H   0  0  0  0  0  0  0  0  0  0  0  0
    4.3105    0.0034    0.0000 H   0  0  0  0  0  0  0  0  0  0  0  0
    2.8816    0.8284    0.0000 H   0  0  0  0  0  0  0  0  0  0  0  0
    2.8816    2.4784    0.0000 H   0  0  0  0  0  0  0  0  0  0  0  0
    5.7394    2.4784    0.0000 H   0  0  0  0  0  0  0  0  0  0  0  0
    4.3105    4.9534    0.0000 H   0  0  0  0  0  0  0  0  0  0  0  0
    5.7394    5.7784    0.0000 H   0  0  0  0  0  0  0  0  0  0  0  0
    7.1684    4.9534    0.0000 H   0  0  0  0  0  0  0  0  0  0  0  0
    7.1684    3.3034    0.0000 H   0  0  0  0  0  0  0  0  0  0  0  0
    5.0250    2.8909    0.0000 H   0  0  0  0  0  0  0  0  0  0  0  0
  1  2  1  0  0  0  0
  2  3  1  0  0  0  0
  3  4  2  0  0  0  0
  3  5  1  0  0  0  0
  5  6  1  0  0  0  0
  6  7  4  0  0  0  0
  7  8  4  0  0  0  0
  8  9  1  0  0  0  0
  8 10  4  0  0  0  0
 10 11  4  0  0  0  0
 11 12  4  0  0  0  0
  6 12  4  0  0  0  0
  2 13  1  0  0  0  0
 13 14  4  0  0  0  0
 14 15  4  0  0  0  0
 15 16  4  0  0  0  0
 16 17  4  0  0  0  0
 17 18  4  0  0  0  0
 13 18  4  0  0  0  0
 17 19  1  0  0  0  0
 19 20  2  0  0  0  0
 19 21  1  0  0  0  0
 21 22  4  0  0  0  0
 22 23  4  0  0  0  0
 23 24  4  0  0  0  0
 24 25  4  0  0  0  0
 25 26  4  0  0  0  0
 21 26  4  0  0  0  0
  1 27  1  0  0  0  0
  1 28  1  0  0  0  0
  1 29  1  0  0  0  0
  2 30  1  0  0  0  0
  5 31  1  0  0  0  0
  7 32  1  0  0  0  0
  9 33  1  0  0  0  0
  9 34  1  0  0  0  0
  9 35  1  0  0  0  0
 10 36  1  0  0  0  0
 11 37  1  0  0  0  0
 14 38  1  0  0  0  0
 15 39  1  0  0  0  0
 16 40  1  0  0  0  0
 18 41  1  0  0  0  0
 22 42  1  0  0  0  0
 23 43  1  0  0  0  0
 24 44  1  0  0  0  0
 25 45  1  0  0  0  0
 26 46  1  0  0  0  0
M  END
>  <InChIKey>
InChI=1S/C22H20N2O2/c1-15-11-12-23-20(13-15)24-22(26)16(2)18-9-6-10-19(14-18)21(25)17-7-4-3-5-8-17/h3-14,16H,1-2H3,(H,23,24,26)

>  <CASRN>
60576-13-8

> <Outcome>
0

>  <Index>
1123

>  <StandardizerResult>
Dearomatize (ID: Dearomatize)
Clear Stereo (ID: ClearStereo)
Wedge Clean (ID: WedgeClean)
Mesomerize (ID: Mesomerize)
Tautomerize (ID: Tautomerize)
Aromatize (ID: Aromatize)
Add Explicit Hydrogens (ID: AddExplicitH)
Neutralize (ID: Neutralize)
Clean 2D (ID: Clean2D)

> <knn Distance>
4.35889911651611

> <CpId>
1123

$$$$
1191
  Mrv1532301301811342D          

 44 47  0  0  0  0            999 V2000
    4.4700   -1.0192    0.0000 C   0  0  0  0  0  0  0  0  0  0  0  0
    3.7816   -0.5645    0.0000 C   0  0  0  0  0  0  0  0  0  0  0  0
    3.0624   -0.9957    0.0000 C   0  0  0  0  0  0  0  0  0  0  0  0
    2.4989   -0.3762    0.0000 C   0  0  0  0  0  0  0  0  0  0  0  0
    2.5950    0.4787    0.0000 C   0  0  0  0  0  0  0  0  0  0  0  0
    1.7624    0.7114    0.0000 C   0  0  0  0  0  0  0  0  0  0  0  0
    1.2021    0.1058    0.0000 C   0  0  0  0  0  0  0  0  0  0  0  0
    1.4738    1.5015    0.0000 C   0  0  0  0  0  0  0  0  0  0  0  0
    0.6914    1.7629    0.0000 O   0  0  0  0  0  0  0  0  0  0  0  0
    2.1790    1.9591    0.0000 O   0  0  0  0  0  0  0  0  0  0  0  0
    2.9938    1.6885    0.0000 C   0  0  0  0  0  0  0  0  0  0  0  0
    3.9265    1.4678    0.0000 O   0  0  0  0  0  0  0  0  0  0  0  0
    4.7585    1.6807    0.0000 C   0  0  0  0  0  0  0  0  0  0  0  0
    5.4440    2.1398    0.0000 C   0  0  0  0  0  0  0  0  0  0  0  0
    5.2443    0.9830    0.0000 C   0  0  0  0  0  0  0  0  0  0  0  0
    4.7555    0.2939    0.0000 C   0  0  0  0  0  0  0  0  0  0  0  0
    3.8980    0.2827    0.0000 C   0  0  0  0  0  0  0  0  0  0  0  0
    3.3374    0.9782    0.0000 C   0  0  0  0  0  0  0  0  0  0  0  0
    3.5759    1.9290    0.0000 O   0  0  0  0  0  0  0  0  0  0  0  0
    4.3021    2.3894    0.0000 O   0  0  0  0  0  0  0  0  0  0  0  0
    4.0154   -1.7076    0.0000 H   0  0  0  0  0  0  0  0  0  0  0  0
    5.1585   -1.4738    0.0000 H   0  0  0  0  0  0  0  0  0  0  0  0
    4.9247   -0.3307    0.0000 H   0  0  0  0  0  0  0  0  0  0  0  0
    4.5331   -0.2242    0.0000 H   0  0  0  0  0  0  0  0  0  0  0  0
    2.5645   -1.6535    0.0000 H   0  0  0  0  0  0  0  0  0  0  0  0
    3.3494   -1.7692    0.0000 H   0  0  0  0  0  0  0  0  0  0  0  0
    1.6809   -0.2689    0.0000 H   0  0  0  0  0  0  0  0  0  0  0  0
    1.8989   -0.9425    0.0000 H   0  0  0  0  0  0  0  0  0  0  0  0
    2.4637    1.2932    0.0000 H   0  0  0  0  0  0  0  0  0  0  0  0
    1.9871   -0.0824    0.0000 H   0  0  0  0  0  0  0  0  0  0  0  0
    0.8417    0.8479    0.0000 H   0  0  0  0  0  0  0  0  0  0  0  0
    0.3797    0.0398    0.0000 H   0  0  0  0  0  0  0  0  0  0  0  0
    0.9646   -0.6843    0.0000 H   0  0  0  0  0  0  0  0  0  0  0  0
    1.3697    2.3199    0.0000 H   0  0  0  0  0  0  0  0  0  0  0  0
   -0.0807    2.0538    0.0000 H   0  0  0  0  0  0  0  0  0  0  0  0
    2.9645    2.5130    0.0000 H   0  0  0  0  0  0  0  0  0  0  0  0
    5.9031    1.4544    0.0000 H   0  0  0  0  0  0  0  0  0  0  0  0
    6.1294    2.5990    0.0000 H   0  0  0  0  0  0  0  0  0  0  0  0
    4.9848    2.8253    0.0000 H   0  0  0  0  0  0  0  0  0  0  0  0
    5.5032    0.1997    0.0000 H   0  0  0  0  0  0  0  0  0  0  0  0
    6.0286    0.7272    0.0000 H   0  0  0  0  0  0  0  0  0  0  0  0
    4.6595    1.1133    0.0000 H   0  0  0  0  0  0  0  0  0  0  0  0
    4.1355    0.8383    0.0000 H   0  0  0  0  0  0  0  0  0  0  0  0
    3.1031    0.0619    0.0000 H   0  0  0  0  0  0  0  0  0  0  0  0
  1  2  1  0  0  0  0
  2  3  1  0  0  0  0
  3  4  1  0  0  0  0
  4  5  1  0  0  0  0
  5  6  1  0  0  0  0
  6  7  1  0  0  0  0
  6  8  1  0  0  0  0
  8  9  1  0  0  0  0
  8 10  1  0  0  0  0
 10 11  1  0  0  0  0
 11 12  1  0  0  0  0
 12 13  1  0  0  0  0
 13 14  1  0  0  0  0
 13 15  1  0  0  0  0
 15 16  1  0  0  0  0
 16 17  1  0  0  0  0
  2 17  1  0  0  0  0
 17 18  1  0  0  0  0
  5 18  1  0  0  0  0
 11 18  1  0  0  0  0
 18 19  1  0  0  0  0
 19 20  1  0  0  0  0
 13 20  1  0  0  0  0
  1 21  1  0  0  0  0
  1 22  1  0  0  0  0
  1 23  1  0  0  0  0
  2 24  1  0  0  0  0
  3 25  1  0  0  0  0
  3 26  1  0  0  0  0
  4 27  1  0  0  0  0
  4 28  1  0  0  0  0
  5 29  1  0  0  0  0
  6 30  1  0  0  0  0
  7 31  1  0  0  0  0
  7 32  1  0  0  0  0
  7 33  1  0  0  0  0
  8 34  1  0  0  0  0
  9 35  1  0  0  0  0
 11 36  1  0  0  0  0
 14 37  1  0  0  0  0
 14 38  1  0  0  0  0
 14 39  1  0  0  0  0
 15 40  1  0  0  0  0
 15 41  1  0  0  0  0
 16 42  1  0  0  0  0
 16 43  1  0  0  0  0
 17 44  1  0  0  0  0
M  END
>  <InChIKey>
InChI=1S/C15H24O5/c1-8-4-5-11-9(2)12(16)17-13-15(11)10(8)6-7-14(3,18-13)19-20-15/h8-13,16H,4-7H2,1-3H3

>  <CASRN>
71939-50-9

> <Outcome>
0

>  <Index>
1191

>  <StandardizerResult>
Clear Stereo (ID: ClearStereo)
Wedge Clean (ID: WedgeClean)
Mesomerize (ID: Mesomerize)
Tautomerize (ID: Tautomerize)
Add Explicit Hydrogens (ID: AddExplicitH)
Neutralize (ID: Neutralize)
Clean 2D (ID: Clean2D)

> <knn Distance>
4.35889911651611

> <CpId>
1191

$$$$
1202
  Mrv1532301301811342D          

 67 70  0  0  0  0            999 V2000
    1.9581   -5.1711    0.0000 C   0  0  0  0  0  0  0  0  0  0  0  0
    1.8985   -4.3483    0.0000 C   0  0  0  0  0  0  0  0  0  0  0  0
    2.5814   -3.8853    0.0000 C   0  0  0  0  0  0  0  0  0  0  0  0
    2.5219   -3.0625    0.0000 C   0  0  0  0  0  0  0  0  0  0  0  0
    1.7795   -2.7026    0.0000 O   0  0  0  0  0  0  0  0  0  0  0  0
    3.2047   -2.5995    0.0000 O   0  0  0  0  0  0  0  0  0  0  0  0
    3.1452   -1.7766    0.0000 C   0  0  0  0  0  0  0  0  0  0  0  0
    2.9159   -0.9842    0.0000 C   0  0  0  0  0  0  0  0  0  0  0  0
    3.5987   -0.5212    0.0000 C   0  0  0  0  0  0  0  0  0  0  0  0
    4.2500   -1.0275    0.0000 C   0  0  0  0  0  0  0  0  0  0  0  0
    5.0622   -0.8823    0.0000 C   0  0  0  0  0  0  0  0  0  0  0  0
    5.3425   -0.1064    0.0000 C   0  0  0  0  0  0  0  0  0  0  0  0
    6.1546    0.0388    0.0000 C   0  0  0  0  0  0  0  0  0  0  0  0
    6.6864   -0.5919    0.0000 C   0  0  0  0  0  0  0  0  0  0  0  0
    7.4985   -0.4467    0.0000 C   0  0  0  0  0  0  0  0  0  0  0  0
    8.0303   -1.0774    0.0000 C   0  0  0  0  0  0  0  0  0  0  0  0
    8.8424   -0.9322    0.0000 O   0  0  0  0  0  0  0  0  0  0  0  0
    7.7500   -1.8533    0.0000 C   0  0  0  0  0  0  0  0  0  0  0  0
    6.9379   -1.9985    0.0000 C   0  0  0  0  0  0  0  0  0  0  0  0
    6.4061   -1.3678    0.0000 C   0  0  0  0  0  0  0  0  0  0  0  0
    6.1258   -2.1437    0.0000 C   0  0  0  0  0  0  0  0  0  0  0  0
    5.5940   -1.5130    0.0000 C   0  0  0  0  0  0  0  0  0  0  0  0
    5.3137   -2.2889    0.0000 C   0  0  0  0  0  0  0  0  0  0  0  0
    5.8455   -2.9196    0.0000 O   0  0  0  0  0  0  0  0  0  0  0  0
    4.5016   -2.4342    0.0000 C   0  0  0  0  0  0  0  0  0  0  0  0
    3.9697   -1.8034    0.0000 C   0  0  0  0  0  0  0  0  0  0  0  0
    3.6099   -2.5458    0.0000 C   0  0  0  0  0  0  0  0  0  0  0  0
    2.3331   -1.9219    0.0000 C   0  0  0  0  0  0  0  0  0  0  0  0
    1.6502   -2.3848    0.0000 O   0  0  0  0  0  0  0  0  0  0  0  0
    1.8012   -1.2911    0.0000 C   0  0  0  0  0  0  0  0  0  0  0  0
    0.9891   -1.4364    0.0000 O   0  0  0  0  0  0  0  0  0  0  0  0
    1.1352   -5.2307    0.0000 H   0  0  0  0  0  0  0  0  0  0  0  0
    2.0176   -5.9940    0.0000 H   0  0  0  0  0  0  0  0  0  0  0  0
    2.7809   -5.1116    0.0000 H   0  0  0  0  0  0  0  0  0  0  0  0
    1.3966   -3.6935    0.0000 H   0  0  0  0  0  0  0  0  0  0  0  0
    1.0736   -4.3599    0.0000 H   0  0  0  0  0  0  0  0  0  0  0  0
    3.0833   -4.5401    0.0000 H   0  0  0  0  0  0  0  0  0  0  0  0
    3.4063   -3.8737    0.0000 H   0  0  0  0  0  0  0  0  0  0  0  0
    2.3624   -0.3724    0.0000 H   0  0  0  0  0  0  0  0  0  0  0  0
    2.0992   -1.1009    0.0000 H   0  0  0  0  0  0  0  0  0  0  0  0
    4.0095    0.1943    0.0000 H   0  0  0  0  0  0  0  0  0  0  0  0
    3.2353    0.2195    0.0000 H   0  0  0  0  0  0  0  0  0  0  0  0
    4.7819   -1.6582    0.0000 H   0  0  0  0  0  0  0  0  0  0  0  0
    4.5303   -0.2516    0.0000 H   0  0  0  0  0  0  0  0  0  0  0  0
    5.4838    0.7064    0.0000 H   0  0  0  0  0  0  0  0  0  0  0  0
    4.9282    0.6071    0.0000 H   0  0  0  0  0  0  0  0  0  0  0  0
    6.9191    0.3490    0.0000 H   0  0  0  0  0  0  0  0  0  0  0  0
    6.5266    0.7752    0.0000 H   0  0  0  0  0  0  0  0  0  0  0  0
    7.7788    0.3293    0.0000 H   0  0  0  0  0  0  0  0  0  0  0  0
    7.9422   -2.6556    0.0000 H   0  0  0  0  0  0  0  0  0  0  0  0
    8.5083   -2.1782    0.0000 H   0  0  0  0  0  0  0  0  0  0  0  0
    6.7966   -2.8113    0.0000 H   0  0  0  0  0  0  0  0  0  0  0  0
    7.3521   -2.7120    0.0000 H   0  0  0  0  0  0  0  0  0  0  0  0
    6.1518   -2.9683    0.0000 H   0  0  0  0  0  0  0  0  0  0  0  0
    6.4544   -2.9005    0.0000 H   0  0  0  0  0  0  0  0  0  0  0  0
    5.4951   -2.6755    0.0000 H   0  0  0  0  0  0  0  0  0  0  0  0
    5.8743   -0.7371    0.0000 H   0  0  0  0  0  0  0  0  0  0  0  0
    4.9345   -3.0216    0.0000 H   0  0  0  0  0  0  0  0  0  0  0  0
    5.8265   -3.7444    0.0000 H   0  0  0  0  0  0  0  0  0  0  0  0
    3.9377   -3.0364    0.0000 H   0  0  0  0  0  0  0  0  0  0  0  0
    4.4532   -3.2577    0.0000 H   0  0  0  0  0  0  0  0  0  0  0  0
    2.9475   -3.0377    0.0000 H   0  0  0  0  0  0  0  0  0  0  0  0
    3.2697   -3.2974    0.0000 H   0  0  0  0  0  0  0  0  0  0  0  0
    3.6775   -3.3680    0.0000 H   0  0  0  0  0  0  0  0  0  0  0  0
    1.5009   -0.5227    0.0000 H   0  0  0  0  0  0  0  0  0  0  0  0
    1.5209   -2.0671    0.0000 H   0  0  0  0  0  0  0  0  0  0  0  0
    0.2132   -1.1561    0.0000 H   0  0  0  0  0  0  0  0  0  0  0  0
  1  2  1  0  0  0  0
  2  3  1  0  0  0  0
  3  4  1  0  0  0  0
  4  5  2  0  0  0  0
  4  6  1  0  0  0  0
  6  7  1  0  0  0  0
  7  8  1  0  0  0  0
  8  9  1  0  0  0  0
  9 10  1  0  0  0  0
 10 11  1  0  0  0  0
 11 12  1  0  0  0  0
 12 13  1  0  0  0  0
 13 14  1  0  0  0  0
 14 15  2  0  0  0  0
 15 16  1  0  0  0  0
 16 17  2  0  0  0  0
 16 18  1  0  0  0  0
 18 19  1  0  0  0  0
 19 20  1  0  0  0  0
 14 20  1  0  0  0  0
 20 21  1  0  0  0  0
 20 22  1  0  0  0  0
 11 22  1  0  0  0  0
 22 23  1  0  0  0  0
 23 24  1  0  0  0  0
 23 25  1  0  0  0  0
 25 26  1  0  0  0  0
  7 26  1  0  0  0  0
 10 26  1  0  0  0  0
 26 27  1  0  0  0  0
  7 28  1  0  0  0  0
 28 29  2  0  0  0  0
 28 30  1  0  0  0  0
 30 31  1  0  0  0  0
  1 32  1  0  0  0  0
  1 33  1  0  0  0  0
  1 34  1  0  0  0  0
  2 35  1  0  0  0  0
  2 36  1  0  0  0  0
  3 37  1  0  0  0  0
  3 38  1  0  0  0  0
  8 39  1  0  0  0  0
  8 40  1  0  0  0  0
  9 41  1  0  0  0  0
  9 42  1  0  0  0  0
 10 43  1  0  0  0  0
 11 44  1  0  0  0  0
 12 45  1  0  0  0  0
 12 46  1  0  0  0  0
 13 47  1  0  0  0  0
 13 48  1  0  0  0  0
 15 49  1  0  0  0  0
 18 50  1  0  0  0  0
 18 51  1  0  0  0  0
 19 52  1  0  0  0  0
 19 53  1  0  0  0  0
 21 54  1  0  0  0  0
 21 55  1  0  0  0  0
 21 56  1  0  0  0  0
 22 57  1  0  0  0  0
 23 58  1  0  0  0  0
 24 59  1  0  0  0  0
 25 60  1  0  0  0  0
 25 61  1  0  0  0  0
 27 62  1  0  0  0  0
 27 63  1  0  0  0  0
 27 64  1  0  0  0  0
 30 65  1  0  0  0  0
 30 66  1  0  0  0  0
 31 67  1  0  0  0  0
M  END
>  <InChIKey>
InChI=1S/C25H36O6/c1-4-5-21(30)31-25(20(29)14-26)11-9-18-17-7-6-15-12-16(27)8-10-23(15,2)22(17)19(28)13-24(18,25)3/h12,17-19,22,26,28H,4-11,13-14H2,1-3H3

>  <CASRN>
13609-67-1

> <Outcome>
0

>  <Index>
1202

>  <StandardizerResult>
Clear Stereo (ID: ClearStereo)
Wedge Clean (ID: WedgeClean)
Mesomerize (ID: Mesomerize)
Tautomerize (ID: Tautomerize)
Add Explicit Hydrogens (ID: AddExplicitH)
Neutralize (ID: Neutralize)
Clean 2D (ID: Clean2D)

> <knn Distance>
4.35889911651611

> <CpId>
1202

$$$$
1207
  Mrv1532301301811342D          

 45 46  0  0  0  0            999 V2000
    2.8511   -4.9236    0.0000 C   0  0  0  0  0  0  0  0  0  0  0  0
    2.8511   -4.0986    0.0000 C   0  0  0  0  0  0  0  0  0  0  0  0
    2.1366   -3.6861    0.0000 C   0  0  0  0  0  0  0  0  0  0  0  0
    1.4222   -4.0986    0.0000 O   0  0  0  0  0  0  0  0  0  0  0  0
    0.7077   -3.6861    0.0000 C   0  0  0  0  0  0  0  0  0  0  0  0
   -0.0068   -4.0986    0.0000 C   0  0  0  0  0  0  0  0  0  0  0  0
   -0.7212   -3.6861    0.0000 C   0  0  0  0  0  0  0  0  0  0  0  0
   -0.7212   -2.8611    0.0000 C   0  0  0  0  0  0  0  0  0  0  0  0
   -0.0068   -2.4486    0.0000 C   0  0  0  0  0  0  0  0  0  0  0  0
    0.7077   -2.8611    0.0000 C   0  0  0  0  0  0  0  0  0  0  0  0
    3.5656   -3.6861    0.0000 N   0  0  0  0  0  0  0  0  0  0  0  0
    4.2801   -4.0986    0.0000 C   0  0  0  0  0  0  0  0  0  0  0  0
    4.2801   -4.9236    0.0000 C   0  0  0  0  0  0  0  0  0  0  0  0
    4.9945   -3.6861    0.0000 C   0  0  0  0  0  0  0  0  0  0  0  0
    4.9945   -2.8611    0.0000 O   0  0  0  0  0  0  0  0  0  0  0  0
    5.7090   -4.0986    0.0000 C   0  0  0  0  0  0  0  0  0  0  0  0
    6.4235   -3.6861    0.0000 C   0  0  0  0  0  0  0  0  0  0  0  0
    7.1379   -4.0986    0.0000 C   0  0  0  0  0  0  0  0  0  0  0  0
    7.1379   -4.9236    0.0000 C   0  0  0  0  0  0  0  0  0  0  0  0
    7.8524   -5.3361    0.0000 O   0  0  0  0  0  0  0  0  0  0  0  0
    6.4235   -5.3361    0.0000 C   0  0  0  0  0  0  0  0  0  0  0  0
    5.7090   -4.9236    0.0000 C   0  0  0  0  0  0  0  0  0  0  0  0
    2.0261   -4.9236    0.0000 H   0  0  0  0  0  0  0  0  0  0  0  0
    2.8511   -5.7486    0.0000 H   0  0  0  0  0  0  0  0  0  0  0  0
    3.6761   -4.9236    0.0000 H   0  0  0  0  0  0  0  0  0  0  0  0
    2.1366   -4.5111    0.0000 H   0  0  0  0  0  0  0  0  0  0  0  0
    2.5069   -2.9489    0.0000 H   0  0  0  0  0  0  0  0  0  0  0  0
    1.7664   -2.9489    0.0000 H   0  0  0  0  0  0  0  0  0  0  0  0
   -0.0068   -4.9236    0.0000 H   0  0  0  0  0  0  0  0  0  0  0  0
   -1.4357   -4.0986    0.0000 H   0  0  0  0  0  0  0  0  0  0  0  0
   -1.4357   -2.4486    0.0000 H   0  0  0  0  0  0  0  0  0  0  0  0
   -0.0068   -1.6236    0.0000 H   0  0  0  0  0  0  0  0  0  0  0  0
    1.4222   -2.4486    0.0000 H   0  0  0  0  0  0  0  0  0  0  0  0
    3.5656   -2.8611    0.0000 H   0  0  0  0  0  0  0  0  0  0  0  0
    3.5656   -4.5111    0.0000 H   0  0  0  0  0  0  0  0  0  0  0  0
    3.9643   -5.6858    0.0000 H   0  0  0  0  0  0  0  0  0  0  0  0
    4.8634   -5.5070    0.0000 H   0  0  0  0  0  0  0  0  0  0  0  0
    5.0423   -4.6079    0.0000 H   0  0  0  0  0  0  0  0  0  0  0  0
    4.2801   -3.2736    0.0000 H   0  0  0  0  0  0  0  0  0  0  0  0
    5.4070   -2.1467    0.0000 H   0  0  0  0  0  0  0  0  0  0  0  0
    6.4235   -2.8611    0.0000 H   0  0  0  0  0  0  0  0  0  0  0  0
    7.8524   -3.6861    0.0000 H   0  0  0  0  0  0  0  0  0  0  0  0
    7.8524   -6.1611    0.0000 H   0  0  0  0  0  0  0  0  0  0  0  0
    6.4235   -6.1611    0.0000 H   0  0  0  0  0  0  0  0  0  0  0  0
    5.3259   -5.6543    0.0000 H   0  0  0  0  0  0  0  0  0  0  0  0
  1  2  1  0  0  0  0
  2  3  1  0  0  0  0
  3  4  1  0  0  0  0
  4  5  1  0  0  0  0
  5  6  4  0  0  0  0
  6  7  4  0  0  0  0
  7  8  4  0  0  0  0
  8  9  4  0  0  0  0
  9 10  4  0  0  0  0
  5 10  4  0  0  0  0
  2 11  1  0  0  0  0
 11 12  1  0  0  0  0
 12 13  1  0  0  0  0
 12 14  1  0  0  0  0
 14 15  1  0  0  0  0
 14 16  1  0  0  0  0
 16 17  4  0  0  0  0
 17 18  4  0  0  0  0
 18 19  4  0  0  0  0
 19 20  1  0  0  0  0
 19 21  4  0  0  0  0
 21 22  4  0  0  0  0
 16 22  4  0  0  0  0
  1 23  1  0  0  0  0
  1 24  1  0  0  0  0
  1 25  1  0  0  0  0
  2 26  1  0  0  0  0
  3 27  1  0  0  0  0
  3 28  1  0  0  0  0
  6 29  1  0  0  0  0
  7 30  1  0  0  0  0
  8 31  1  0  0  0  0
  9 32  1  0  0  0  0
 10 33  1  0  0  0  0
 11 34  1  0  0  0  0
 12 35  1  0  0  0  0
 13 36  1  0  0  0  0
 13 37  1  0  0  0  0
 13 38  1  0  0  0  0
 14 39  1  0  0  0  0
 15 40  1  0  0  0  0
 17 41  1  0  0  0  0
 18 42  1  0  0  0  0
 20 43  1  0  0  0  0
 21 44  1  0  0  0  0
 22 45  1  0  0  0  0
M  END
>  <InChIKey>
InChI=1S/C18H23NO3/c1-13(12-22-17-6-4-3-5-7-17)19-14(2)18(21)15-8-10-16(20)11-9-15/h3-11,13-14,18-21H,12H2,1-2H3

>  <CASRN>
395-28-8

> <Outcome>
0

>  <Index>
1207

>  <StandardizerResult>
Dearomatize (ID: Dearomatize)
Clear Stereo (ID: ClearStereo)
Wedge Clean (ID: WedgeClean)
Mesomerize (ID: Mesomerize)
Tautomerize (ID: Tautomerize)
Aromatize (ID: Aromatize)
Add Explicit Hydrogens (ID: AddExplicitH)
Neutralize (ID: Neutralize)
Clean 2D (ID: Clean2D)

> <knn Distance>
4.35889911651611

> <CpId>
1207

$$$$
1250
  Mrv1532301301811342D          

 48 49  0  0  0  0            999 V2000
   -5.7401   -4.0892    0.0000 C   0  0  0  0  0  0  0  0  0  0  0  0
   -5.0256   -4.5017    0.0000 C   0  0  0  0  0  0  0  0  0  0  0  0
   -4.3112   -4.0892    0.0000 C   0  0  0  0  0  0  0  0  0  0  0  0
   -3.5967   -4.5017    0.0000 C   0  0  0  0  0  0  0  0  0  0  0  0
   -2.8822   -4.0892    0.0000 O   0  0  0  0  0  0  0  0  0  0  0  0
   -2.1677   -4.5017    0.0000 C   0  0  0  0  0  0  0  0  0  0  0  0
   -1.4533   -4.0892    0.0000 C   0  0  0  0  0  0  0  0  0  0  0  0
   -0.7388   -4.5017    0.0000 C   0  0  0  0  0  0  0  0  0  0  0  0
   -0.7388   -5.3267    0.0000 C   0  0  0  0  0  0  0  0  0  0  0  0
   -1.4533   -5.7392    0.0000 C   0  0  0  0  0  0  0  0  0  0  0  0
   -2.1677   -5.3267    0.0000 C   0  0  0  0  0  0  0  0  0  0  0  0
   -0.0243   -5.7392    0.0000 C   0  0  0  0  0  0  0  0  0  0  0  0
    0.6901   -5.3267    0.0000 O   0  0  0  0  0  0  0  0  0  0  0  0
   -0.0243   -6.5642    0.0000 C   0  0  0  0  0  0  0  0  0  0  0  0
    0.6901   -6.9767    0.0000 C   0  0  0  0  0  0  0  0  0  0  0  0
    1.4046   -6.5642    0.0000 N   0  0  0  0  0  0  0  0  0  0  0  0
    1.4046   -5.7392    0.0000 C   0  0  0  0  0  0  0  0  0  0  0  0
    2.1191   -5.3267    0.0000 C   0  0  0  0  0  0  0  0  0  0  0  0
    2.8336   -5.7392    0.0000 C   0  0  0  0  0  0  0  0  0  0  0  0
    2.8336   -6.5642    0.0000 C   0  0  0  0  0  0  0  0  0  0  0  0
    2.1191   -6.9767    0.0000 C   0  0  0  0  0  0  0  0  0  0  0  0
   -5.3276   -3.3747    0.0000 H   0  0  0  0  0  0  0  0  0  0  0  0
   -6.4546   -3.6767    0.0000 H   0  0  0  0  0  0  0  0  0  0  0  0
   -6.1526   -4.8037    0.0000 H   0  0  0  0  0  0  0  0  0  0  0  0
   -5.3959   -5.2389    0.0000 H   0  0  0  0  0  0  0  0  0  0  0  0
   -4.6554   -5.2389    0.0000 H   0  0  0  0  0  0  0  0  0  0  0  0
   -3.9409   -3.3519    0.0000 H   0  0  0  0  0  0  0  0  0  0  0  0
   -4.6814   -3.3519    0.0000 H   0  0  0  0  0  0  0  0  0  0  0  0
   -3.9669   -5.2389    0.0000 H   0  0  0  0  0  0  0  0  0  0  0  0
   -3.2264   -5.2389    0.0000 H   0  0  0  0  0  0  0  0  0  0  0  0
   -1.4533   -3.2642    0.0000 H   0  0  0  0  0  0  0  0  0  0  0  0
   -0.0243   -4.0892    0.0000 H   0  0  0  0  0  0  0  0  0  0  0  0
   -1.4533   -6.5642    0.0000 H   0  0  0  0  0  0  0  0  0  0  0  0
   -2.8822   -5.7392    0.0000 H   0  0  0  0  0  0  0  0  0  0  0  0
   -0.8479   -6.6122    0.0000 H   0  0  0  0  0  0  0  0  0  0  0  0
   -0.4777   -7.2535    0.0000 H   0  0  0  0  0  0  0  0  0  0  0  0
    0.3199   -7.7139    0.0000 H   0  0  0  0  0  0  0  0  0  0  0  0
    1.0604   -7.7139    0.0000 H   0  0  0  0  0  0  0  0  0  0  0  0
    0.6901   -6.1517    0.0000 H   0  0  0  0  0  0  0  0  0  0  0  0
    1.4046   -4.9142    0.0000 H   0  0  0  0  0  0  0  0  0  0  0  0
    2.7511   -4.7964    0.0000 H   0  0  0  0  0  0  0  0  0  0  0  0
    2.2623   -4.5142    0.0000 H   0  0  0  0  0  0  0  0  0  0  0  0
    3.6179   -5.9949    0.0000 H   0  0  0  0  0  0  0  0  0  0  0  0
    3.5927   -5.4161    0.0000 H   0  0  0  0  0  0  0  0  0  0  0  0
    3.0096   -7.3702    0.0000 H   0  0  0  0  0  0  0  0  0  0  0  0
    3.4980   -7.0532    0.0000 H   0  0  0  0  0  0  0  0  0  0  0  0
    1.7488   -7.7139    0.0000 H   0  0  0  0  0  0  0  0  0  0  0  0
    2.4893   -7.7139    0.0000 H   0  0  0  0  0  0  0  0  0  0  0  0
  1  2  1  0  0  0  0
  2  3  1  0  0  0  0
  3  4  1  0  0  0  0
  4  5  1  0  0  0  0
  5  6  1  0  0  0  0
  6  7  4  0  0  0  0
  7  8  4  0  0  0  0
  8  9  4  0  0  0  0
  9 10  4  0  0  0  0
 10 11  4  0  0  0  0
  6 11  4  0  0  0  0
  9 12  1  0  0  0  0
 12 13  2  0  0  0  0
 12 14  1  0  0  0  0
 14 15  1  0  0  0  0
 15 16  1  0  0  0  0
 16 17  1  0  0  0  0
 17 18  1  0  0  0  0
 18 19  1  0  0  0  0
 19 20  1  0  0  0  0
 20 21  1  0  0  0  0
 16 21  1  0  0  0  0
  1 22  1  0  0  0  0
  1 23  1  0  0  0  0
  1 24  1  0  0  0  0
  2 25  1  0  0  0  0
  2 26  1  0  0  0  0
  3 27  1  0  0  0  0
  3 28  1  0  0  0  0
  4 29  1  0  0  0  0
  4 30  1  0  0  0  0
  7 31  1  0  0  0  0
  8 32  1  0  0  0  0
 10 33  1  0  0  0  0
 11 34  1  0  0  0  0
 14 35  1  0  0  0  0
 14 36  1  0  0  0  0
 15 37  1  0  0  0  0
 15 38  1  0  0  0  0
 17 39  1  0  0  0  0
 17 40  1  0  0  0  0
 18 41  1  0  0  0  0
 18 42  1  0  0  0  0
 19 43  1  0  0  0  0
 19 44  1  0  0  0  0
 20 45  1  0  0  0  0
 20 46  1  0  0  0  0
 21 47  1  0  0  0  0
 21 48  1  0  0  0  0
M  END
>  <InChIKey>
InChI=1S/C18H27NO2/c1-2-3-15-21-17-9-7-16(8-10-17)18(20)11-14-19-12-5-4-6-13-19/h7-10H,2-6,11-15H2,1H3

>  <CASRN>
586-60-7

> <Outcome>
0

>  <Index>
1250

>  <StandardizerResult>
Dearomatize (ID: Dearomatize)
Clear Stereo (ID: ClearStereo)
Wedge Clean (ID: WedgeClean)
Mesomerize (ID: Mesomerize)
Tautomerize (ID: Tautomerize)
Aromatize (ID: Aromatize)
Add Explicit Hydrogens (ID: AddExplicitH)
Neutralize (ID: Neutralize)
Clean 2D (ID: Clean2D)

> <knn Distance>
4.35889911651611

> <CpId>
1250

$$$$
1323
  Mrv1532301301811342D          

 59 61  0  0  0  0            999 V2000
   -3.8654   -8.5195    0.0000 C   0  0  0  0  0  0  0  0  0  0  0  0
   -3.6104   -7.7349    0.0000 C   0  0  0  0  0  0  0  0  0  0  0  0
   -3.3555   -6.9503    0.0000 C   0  0  0  0  0  0  0  0  0  0  0  0
   -3.1006   -6.1657    0.0000 C   0  0  0  0  0  0  0  0  0  0  0  0
   -2.2936   -5.9941    0.0000 C   0  0  0  0  0  0  0  0  0  0  0  0
   -1.7416   -6.6072    0.0000 C   0  0  0  0  0  0  0  0  0  0  0  0
   -2.0386   -5.2095    0.0000 C   0  0  0  0  0  0  0  0  0  0  0  0
   -2.5907   -4.5964    0.0000 O   0  0  0  0  0  0  0  0  0  0  0  0
   -1.2317   -5.0380    0.0000 C   0  0  0  0  0  0  0  0  0  0  0  0
   -0.9767   -4.2534    0.0000 C   0  0  0  0  0  0  0  0  0  0  0  0
   -0.1698   -4.0818    0.0000 C   0  0  0  0  0  0  0  0  0  0  0  0
    0.4433   -4.6339    0.0000 C   0  0  0  0  0  0  0  0  0  0  0  0
    0.3571   -5.4544    0.0000 O   0  0  0  0  0  0  0  0  0  0  0  0
    1.1578   -4.2214    0.0000 C   0  0  0  0  0  0  0  0  0  0  0  0
    0.9863   -3.4144    0.0000 C   0  0  0  0  0  0  0  0  0  0  0  0
    1.3218   -2.6607    0.0000 O   0  0  0  0  0  0  0  0  0  0  0  0
    0.7087   -2.1087    0.0000 C   0  0  0  0  0  0  0  0  0  0  0  0
   -0.0057   -2.5212    0.0000 C   0  0  0  0  0  0  0  0  0  0  0  0
   -0.7202   -2.1087    0.0000 C   0  0  0  0  0  0  0  0  0  0  0  0
   -0.7202   -1.2837    0.0000 C   0  0  0  0  0  0  0  0  0  0  0  0
   -0.0057   -0.8712    0.0000 C   0  0  0  0  0  0  0  0  0  0  0  0
    0.7087   -1.2837    0.0000 C   0  0  0  0  0  0  0  0  0  0  0  0
    1.4232   -0.8712    0.0000 C   0  0  0  0  0  0  0  0  0  0  0  0
    2.1377   -1.2837    0.0000 C   0  0  0  0  0  0  0  0  0  0  0  0
    2.8521   -0.8712    0.0000 C   0  0  0  0  0  0  0  0  0  0  0  0
    3.5666   -1.2837    0.0000 C   0  0  0  0  0  0  0  0  0  0  0  0
    4.2811   -0.8712    0.0000 O   0  0  0  0  0  0  0  0  0  0  0  0
    3.5666   -2.1087    0.0000 O   0  0  0  0  0  0  0  0  0  0  0  0
    0.1658   -3.3282    0.0000 C   0  0  0  0  0  0  0  0  0  0  0  0
   -4.6500   -8.2646    0.0000 H   0  0  0  0  0  0  0  0  0  0  0  0
   -4.1203   -9.3042    0.0000 H   0  0  0  0  0  0  0  0  0  0  0  0
   -3.0808   -8.7745    0.0000 H   0  0  0  0  0  0  0  0  0  0  0  0
   -3.3187   -5.3700    0.0000 H   0  0  0  0  0  0  0  0  0  0  0  0
   -3.8690   -5.8655    0.0000 H   0  0  0  0  0  0  0  0  0  0  0  0
   -2.5485   -6.7788    0.0000 H   0  0  0  0  0  0  0  0  0  0  0  0
   -1.7847   -7.4311    0.0000 H   0  0  0  0  0  0  0  0  0  0  0  0
   -0.9569   -6.8622    0.0000 H   0  0  0  0  0  0  0  0  0  0  0  0
   -1.2922   -5.9153    0.0000 H   0  0  0  0  0  0  0  0  0  0  0  0
   -2.8456   -5.3811    0.0000 H   0  0  0  0  0  0  0  0  0  0  0  0
   -2.7622   -3.7895    0.0000 H   0  0  0  0  0  0  0  0  0  0  0  0
   -0.4218   -5.1950    0.0000 H   0  0  0  0  0  0  0  0  0  0  0  0
   -1.5288   -3.6403    0.0000 H   0  0  0  0  0  0  0  0  0  0  0  0
   -0.6890   -3.4407    0.0000 H   0  0  0  0  0  0  0  0  0  0  0  0
   -0.3269   -4.9295    0.0000 H   0  0  0  0  0  0  0  0  0  0  0  0
    0.8039   -6.1479    0.0000 H   0  0  0  0  0  0  0  0  0  0  0  0
    1.6657   -4.8715    0.0000 H   0  0  0  0  0  0  0  0  0  0  0  0
    1.9808   -4.1638    0.0000 H   0  0  0  0  0  0  0  0  0  0  0  0
    1.8068   -3.5006    0.0000 H   0  0  0  0  0  0  0  0  0  0  0  0
   -1.4347   -2.5212    0.0000 H   0  0  0  0  0  0  0  0  0  0  0  0
   -1.4347   -0.8712    0.0000 H   0  0  0  0  0  0  0  0  0  0  0  0
   -0.0057   -0.0462    0.0000 H   0  0  0  0  0  0  0  0  0  0  0  0
    1.7935   -0.1340    0.0000 H   0  0  0  0  0  0  0  0  0  0  0  0
    1.0529   -0.1340    0.0000 H   0  0  0  0  0  0  0  0  0  0  0  0
    1.7674   -2.0209    0.0000 H   0  0  0  0  0  0  0  0  0  0  0  0
    2.5079   -2.0209    0.0000 H   0  0  0  0  0  0  0  0  0  0  0  0
    3.2224   -0.1340    0.0000 H   0  0  0  0  0  0  0  0  0  0  0  0
    2.4819   -0.1340    0.0000 H   0  0  0  0  0  0  0  0  0  0  0  0
    4.9956   -1.2837    0.0000 H   0  0  0  0  0  0  0  0  0  0  0  0
    0.7178   -2.7151    0.0000 H   0  0  0  0  0  0  0  0  0  0  0  0
  1  2  1  0  0  0  0
  2  3  3  0  0  0  0
  3  4  1  0  0  0  0
  4  5  1  0  0  0  0
  5  6  1  0  0  0  0
  5  7  1  0  0  0  0
  7  8  1  0  0  0  0
  9  7  1  4  0  0  0
  9 10  2  0  0  0  0
 10 11  1  0  0  0  0
 11 12  1  0  0  0  0
 12 13  1  0  0  0  0
 12 14  1  0  0  0  0
 14 15  1  0  0  0  0
 15 16  1  0  0  0  0
 16 17  1  0  0  0  0
 17 18  4  0  0  0  0
 18 19  4  0  0  0  0
 19 20  4  0  0  0  0
 20 21  4  0  0  0  0
 21 22  4  0  0  0  0
 17 22  4  0  0  0  0
 22 23  1  0  0  0  0
 23 24  1  0  0  0  0
 24 25  1  0  0  0  0
 25 26  1  0  0  0  0
 26 27  1  0  0  0  0
 26 28  2  0  0  0  0
 18 29  1  0  0  0  0
 11 29  1  0  0  0  0
 15 29  1  0  0  0  0
  1 30  1  0  0  0  0
  1 31  1  0  0  0  0
  1 32  1  0  0  0  0
  4 33  1  0  0  0  0
  4 34  1  0  0  0  0
  5 35  1  0  0  0  0
  6 36  1  0  0  0  0
  6 37  1  0  0  0  0
  6 38  1  0  0  0  0
  7 39  1  0  0  0  0
  8 40  1  0  0  0  0
  9 41  1  0  0  0  0
 10 42  1  0  0  0  0
 11 43  1  0  0  0  0
 12 44  1  0  0  0  0
 13 45  1  0  0  0  0
 14 46  1  0  0  0  0
 14 47  1  0  0  0  0
 15 48  1  0  0  0  0
 19 49  1  0  0  0  0
 20 50  1  0  0  0  0
 21 51  1  0  0  0  0
 23 52  1  0  0  0  0
 23 53  1  0  0  0  0
 24 54  1  0  0  0  0
 24 55  1  0  0  0  0
 25 56  1  0  0  0  0
 25 57  1  0  0  0  0
 27 58  1  0  0  0  0
 29 59  1  0  0  0  0
M  END
>  <InChIKey>
InChI=1S/C24H30O5/c1-3-4-7-15(2)19(25)13-12-17-20(26)14-21-23(17)18-10-5-8-16(24(18)29-21)9-6-11-22(27)28/h5,8,10,12-13,15,17,19-21,23,25-26H,6-7,9,11,14H2,1-2H3,(H,27,28)

>  <CASRN>
88430-50-6

> <Outcome>
0

>  <Index>
1323

>  <StandardizerResult>
Dearomatize (ID: Dearomatize)
Clear Stereo (ID: ClearStereo)
Wedge Clean (ID: WedgeClean)
Mesomerize (ID: Mesomerize)
Tautomerize (ID: Tautomerize)
Aromatize (ID: Aromatize)
Add Explicit Hydrogens (ID: AddExplicitH)
Neutralize (ID: Neutralize)
Clean 2D (ID: Clean2D)

> <knn Distance>
4.35889911651611

> <CpId>
1323

$$$$
1524
  Mrv1532301301811342D          

 70 73  0  0  0  0            999 V2000
    1.5803   -1.4629    0.0000 C   0  0  0  0  0  0  0  0  0  0  0  0
    2.2947   -1.8754    0.0000 C   0  0  0  0  0  0  0  0  0  0  0  0
    3.0092   -1.4629    0.0000 C   0  0  0  0  0  0  0  0  0  0  0  0
    3.7237   -1.8754    0.0000 C   0  0  0  0  0  0  0  0  0  0  0  0
    4.4381   -1.4629    0.0000 C   0  0  0  0  0  0  0  0  0  0  0  0
    4.4381   -0.6379    0.0000 O   0  0  0  0  0  0  0  0  0  0  0  0
    5.1526   -1.8754    0.0000 O   0  0  0  0  0  0  0  0  0  0  0  0
    5.8671   -1.4629    0.0000 C   0  0  0  0  0  0  0  0  0  0  0  0
    6.4802   -0.9109    0.0000 C   0  0  0  0  0  0  0  0  0  0  0  0
    7.1946   -1.3234    0.0000 C   0  0  0  0  0  0  0  0  0  0  0  0
    7.0231   -2.1304    0.0000 C   0  0  0  0  0  0  0  0  0  0  0  0
    7.5080   -2.7978    0.0000 C   0  0  0  0  0  0  0  0  0  0  0  0
    8.3285   -2.7116    0.0000 C   0  0  0  0  0  0  0  0  0  0  0  0
    8.8134   -3.3790    0.0000 C   0  0  0  0  0  0  0  0  0  0  0  0
    8.4779   -4.1327    0.0000 C   0  0  0  0  0  0  0  0  0  0  0  0
    8.9628   -4.8001    0.0000 C   0  0  0  0  0  0  0  0  0  0  0  0
    8.6273   -5.5538    0.0000 C   0  0  0  0  0  0  0  0  0  0  0  0
    9.1122   -6.2212    0.0000 O   0  0  0  0  0  0  0  0  0  0  0  0
    7.8068   -5.6400    0.0000 C   0  0  0  0  0  0  0  0  0  0  0  0
    7.3218   -4.9726    0.0000 C   0  0  0  0  0  0  0  0  0  0  0  0
    7.6574   -4.2189    0.0000 C   0  0  0  0  0  0  0  0  0  0  0  0
    6.8369   -4.3051    0.0000 C   0  0  0  0  0  0  0  0  0  0  0  0
    7.1725   -3.5515    0.0000 C   0  0  0  0  0  0  0  0  0  0  0  0
    6.3520   -3.6377    0.0000 C   0  0  0  0  0  0  0  0  0  0  0  0
    6.0164   -4.3914    0.0000 O   0  0  0  0  0  0  0  0  0  0  0  0
    5.8671   -2.9703    0.0000 C   0  0  0  0  0  0  0  0  0  0  0  0
    6.2026   -2.2166    0.0000 C   0  0  0  0  0  0  0  0  0  0  0  0
    5.3776   -2.2166    0.0000 C   0  0  0  0  0  0  0  0  0  0  0  0
    5.3822   -0.7955    0.0000 C   0  0  0  0  0  0  0  0  0  0  0  0
    4.6677   -0.3830    0.0000 O   0  0  0  0  0  0  0  0  0  0  0  0
    5.7177   -0.0418    0.0000 C   0  0  0  0  0  0  0  0  0  0  0  0
    5.2328    0.6256    0.0000 O   0  0  0  0  0  0  0  0  0  0  0  0
    1.9928   -0.7484    0.0000 H   0  0  0  0  0  0  0  0  0  0  0  0
    0.8658   -1.0504    0.0000 H   0  0  0  0  0  0  0  0  0  0  0  0
    1.1678   -2.1774    0.0000 H   0  0  0  0  0  0  0  0  0  0  0  0
    1.9245   -2.6127    0.0000 H   0  0  0  0  0  0  0  0  0  0  0  0
    2.6650   -2.6127    0.0000 H   0  0  0  0  0  0  0  0  0  0  0  0
    3.3795   -0.7257    0.0000 H   0  0  0  0  0  0  0  0  0  0  0  0
    2.6389   -0.7257    0.0000 H   0  0  0  0  0  0  0  0  0  0  0  0
    3.3534   -2.6127    0.0000 H   0  0  0  0  0  0  0  0  0  0  0  0
    4.0939   -2.6127    0.0000 H   0  0  0  0  0  0  0  0  0  0  0  0
    6.7892   -0.1460    0.0000 H   0  0  0  0  0  0  0  0  0  0  0  0
    6.0188   -0.2269    0.0000 H   0  0  0  0  0  0  0  0  0  0  0  0
    8.0176   -1.3809    0.0000 H   0  0  0  0  0  0  0  0  0  0  0  0
    7.7026   -0.6733    0.0000 H   0  0  0  0  0  0  0  0  0  0  0  0
    6.6876   -2.8840    0.0000 H   0  0  0  0  0  0  0  0  0  0  0  0
    7.8436   -2.0441    0.0000 H   0  0  0  0  0  0  0  0  0  0  0  0
    9.1216   -2.4842    0.0000 H   0  0  0  0  0  0  0  0  0  0  0  0
    8.7899   -2.0276    0.0000 H   0  0  0  0  0  0  0  0  0  0  0  0
    9.4260   -3.9316    0.0000 H   0  0  0  0  0  0  0  0  0  0  0  0
    9.6383   -3.3926    0.0000 H   0  0  0  0  0  0  0  0  0  0  0  0
    9.7833   -4.7139    0.0000 H   0  0  0  0  0  0  0  0  0  0  0  0
    7.1687   -6.1629    0.0000 H   0  0  0  0  0  0  0  0  0  0  0  0
    7.8452   -6.4641    0.0000 H   0  0  0  0  0  0  0  0  0  0  0  0
    6.5288   -5.2000    0.0000 H   0  0  0  0  0  0  0  0  0  0  0  0
    6.8605   -5.6565    0.0000 H   0  0  0  0  0  0  0  0  0  0  0  0
    6.1063   -4.6882    0.0000 H   0  0  0  0  0  0  0  0  0  0  0  0
    6.2993   -4.9309    0.0000 H   0  0  0  0  0  0  0  0  0  0  0  0
    6.0832   -3.9696    0.0000 H   0  0  0  0  0  0  0  0  0  0  0  0
    7.9930   -3.4652    0.0000 H   0  0  0  0  0  0  0  0  0  0  0  0
    5.5273   -3.6161    0.0000 H   0  0  0  0  0  0  0  0  0  0  0  0
    5.2660   -4.7340    0.0000 H   0  0  0  0  0  0  0  0  0  0  0  0
    5.0792   -2.7256    0.0000 H   0  0  0  0  0  0  0  0  0  0  0  0
    5.1049   -3.2860    0.0000 H   0  0  0  0  0  0  0  0  0  0  0  0
    4.6461   -1.8351    0.0000 H   0  0  0  0  0  0  0  0  0  0  0  0
    4.5529   -2.2384    0.0000 H   0  0  0  0  0  0  0  0  0  0  0  0
    4.6673   -2.6361    0.0000 H   0  0  0  0  0  0  0  0  0  0  0  0
    6.2782    0.5636    0.0000 H   0  0  0  0  0  0  0  0  0  0  0  0
    4.8972   -0.1280    0.0000 H   0  0  0  0  0  0  0  0  0  0  0  0
    5.1466    1.4461    0.0000 H   0  0  0  0  0  0  0  0  0  0  0  0
  1  2  1  0  0  0  0
  2  3  1  0  0  0  0
  3  4  1  0  0  0  0
  4  5  1  0  0  0  0
  5  6  2  0  0  0  0
  5  7  1  0  0  0  0
  7  8  1  0  0  0  0
  8  9  1  0  0  0  0
  9 10  1  0  0  0  0
 10 11  1  0  0  0  0
 11 12  1  0  0  0  0
 12 13  1  0  0  0  0
 13 14  1  0  0  0  0
 14 15  1  0  0  0  0
 15 16  2  0  0  0  0
 16 17  1  0  0  0  0
 17 18  2  0  0  0  0
 17 19  1  0  0  0  0
 19 20  1  0  0  0  0
 20 21  1  0  0  0  0
 15 21  1  0  0  0  0
 21 22  1  0  0  0  0
 21 23  1  0  0  0  0
 12 23  1  0  0  0  0
 23 24  1  0  0  0  0
 24 25  1  0  0  0  0
 24 26  1  0  0  0  0
 26 27  1  0  0  0  0
  8 27  1  0  0  0  0
 11 27  1  0  0  0  0
 27 28  1  0  0  0  0
  8 29  1  0  0  0  0
 29 30  2  0  0  0  0
 29 31  1  0  0  0  0
 31 32  1  0  0  0  0
  1 33  1  0  0  0  0
  1 34  1  0  0  0  0
  1 35  1  0  0  0  0
  2 36  1  0  0  0  0
  2 37  1  0  0  0  0
  3 38  1  0  0  0  0
  3 39  1  0  0  0  0
  4 40  1  0  0  0  0
  4 41  1  0  0  0  0
  9 42  1  0  0  0  0
  9 43  1  0  0  0  0
 10 44  1  0  0  0  0
 10 45  1  0  0  0  0
 11 46  1  0  0  0  0
 12 47  1  0  0  0  0
 13 48  1  0  0  0  0
 13 49  1  0  0  0  0
 14 50  1  0  0  0  0
 14 51  1  0  0  0  0
 16 52  1  0  0  0  0
 19 53  1  0  0  0  0
 19 54  1  0  0  0  0
 20 55  1  0  0  0  0
 20 56  1  0  0  0  0
 22 57  1  0  0  0  0
 22 58  1  0  0  0  0
 22 59  1  0  0  0  0
 23 60  1  0  0  0  0
 24 61  1  0  0  0  0
 25 62  1  0  0  0  0
 26 63  1  0  0  0  0
 26 64  1  0  0  0  0
 28 65  1  0  0  0  0
 28 66  1  0  0  0  0
 28 67  1  0  0  0  0
 31 68  1  0  0  0  0
 31 69  1  0  0  0  0
 32 70  1  0  0  0  0
M  END
>  <InChIKey>
InChI=1S/C26H38O6/c1-4-5-6-22(31)32-26(21(30)15-27)12-10-19-18-8-7-16-13-17(28)9-11-24(16,2)23(18)20(29)14-25(19,26)3/h13,18-20,23,27,29H,4-12,14-15H2,1-3H3

>  <CASRN>
57524-89-7

> <Outcome>
0

>  <Index>
1524

>  <StandardizerResult>
Clear Stereo (ID: ClearStereo)
Wedge Clean (ID: WedgeClean)
Mesomerize (ID: Mesomerize)
Tautomerize (ID: Tautomerize)
Add Explicit Hydrogens (ID: AddExplicitH)
Neutralize (ID: Neutralize)
Clean 2D (ID: Clean2D)

> <knn Distance>
4.35889911651611

> <CpId>
1524

$$$$
1562
  Mrv1532301301811342D          

 43 43  0  0  0  0            999 V2000
   -5.0004    3.7070    0.0000 C   0  0  0  0  0  0  0  0  0  0  0  0
   -4.2859    3.2945    0.0000 C   0  0  0  0  0  0  0  0  0  0  0  0
   -3.5714    3.7070    0.0000 C   0  0  0  0  0  0  0  0  0  0  0  0
   -2.8569    3.2945    0.0000 C   0  0  0  0  0  0  0  0  0  0  0  0
   -2.1425    3.7070    0.0000 N   0  0  0  0  0  0  0  0  0  0  0  0
   -1.4280    3.2945    0.0000 C   0  0  0  0  0  0  0  0  0  0  0  0
   -0.7135    3.7070    0.0000 C   0  0  0  0  0  0  0  0  0  0  0  0
    0.0009    3.2945    0.0000 C   0  0  0  0  0  0  0  0  0  0  0  0
    0.0009    2.4695    0.0000 C   0  0  0  0  0  0  0  0  0  0  0  0
   -0.7135    2.0570    0.0000 C   0  0  0  0  0  0  0  0  0  0  0  0
   -1.4280    2.4695    0.0000 C   0  0  0  0  0  0  0  0  0  0  0  0
    0.7154    2.0570    0.0000 C   0  0  0  0  0  0  0  0  0  0  0  0
    0.7154    1.2320    0.0000 O   0  0  0  0  0  0  0  0  0  0  0  0
    1.4299    2.4695    0.0000 O   0  0  0  0  0  0  0  0  0  0  0  0
    2.1444    2.0570    0.0000 C   0  0  0  0  0  0  0  0  0  0  0  0
    2.8588    2.4695    0.0000 C   0  0  0  0  0  0  0  0  0  0  0  0
    3.5733    2.0570    0.0000 N   0  0  0  0  0  0  0  0  0  0  0  0
    4.2878    2.4695    0.0000 C   0  0  0  0  0  0  0  0  0  0  0  0
    3.5733    1.2320    0.0000 C   0  0  0  0  0  0  0  0  0  0  0  0
   -4.5879    4.4215    0.0000 H   0  0  0  0  0  0  0  0  0  0  0  0
   -5.7148    4.1195    0.0000 H   0  0  0  0  0  0  0  0  0  0  0  0
   -5.4129    2.9925    0.0000 H   0  0  0  0  0  0  0  0  0  0  0  0
   -4.6561    2.5572    0.0000 H   0  0  0  0  0  0  0  0  0  0  0  0
   -3.9156    2.5572    0.0000 H   0  0  0  0  0  0  0  0  0  0  0  0
   -3.2012    4.4442    0.0000 H   0  0  0  0  0  0  0  0  0  0  0  0
   -3.9417    4.4442    0.0000 H   0  0  0  0  0  0  0  0  0  0  0  0
   -3.2272    2.5572    0.0000 H   0  0  0  0  0  0  0  0  0  0  0  0
   -2.4867    2.5572    0.0000 H   0  0  0  0  0  0  0  0  0  0  0  0
   -2.1425    4.5320    0.0000 H   0  0  0  0  0  0  0  0  0  0  0  0
   -0.7135    4.5320    0.0000 H   0  0  0  0  0  0  0  0  0  0  0  0
    0.7154    3.7070    0.0000 H   0  0  0  0  0  0  0  0  0  0  0  0
   -0.7135    1.2320    0.0000 H   0  0  0  0  0  0  0  0  0  0  0  0
   -2.1425    2.0570    0.0000 H   0  0  0  0  0  0  0  0  0  0  0  0
    1.7741    1.3197    0.0000 H   0  0  0  0  0  0  0  0  0  0  0  0
    2.5146    1.3197    0.0000 H   0  0  0  0  0  0  0  0  0  0  0  0
    3.2291    3.2067    0.0000 H   0  0  0  0  0  0  0  0  0  0  0  0
    2.4886    3.2067    0.0000 H   0  0  0  0  0  0  0  0  0  0  0  0
    4.7003    1.7550    0.0000 H   0  0  0  0  0  0  0  0  0  0  0  0
    5.0022    2.8820    0.0000 H   0  0  0  0  0  0  0  0  0  0  0  0
    3.8753    3.1840    0.0000 H   0  0  0  0  0  0  0  0  0  0  0  0
    2.7483    1.2320    0.0000 H   0  0  0  0  0  0  0  0  0  0  0  0
    3.5733    0.4070    0.0000 H   0  0  0  0  0  0  0  0  0  0  0  0
    4.3983    1.2320    0.0000 H   0  0  0  0  0  0  0  0  0  0  0  0
  1  2  1  0  0  0  0
  2  3  1  0  0  0  0
  3  4  1  0  0  0  0
  4  5  1  0  0  0  0
  5  6  1  0  0  0  0
  6  7  4  0  0  0  0
  7  8  4  0  0  0  0
  8  9  4  0  0  0  0
  9 10  4  0  0  0  0
 10 11  4  0  0  0  0
  6 11  4  0  0  0  0
  9 12  1  0  0  0  0
 12 13  2  0  0  0  0
 12 14  1  0  0  0  0
 14 15  1  0  0  0  0
 15 16  1  0  0  0  0
 16 17  1  0  0  0  0
 17 18  1  0  0  0  0
 17 19  1  0  0  0  0
  1 20  1  0  0  0  0
  1 21  1  0  0  0  0
  1 22  1  0  0  0  0
  2 23  1  0  0  0  0
  2 24  1  0  0  0  0
  3 25  1  0  0  0  0
  3 26  1  0  0  0  0
  4 27  1  0  0  0  0
  4 28  1  0  0  0  0
  5 29  1  0  0  0  0
  7 30  1  0  0  0  0
  8 31  1  0  0  0  0
 10 32  1  0  0  0  0
 11 33  1  0  0  0  0
 15 34  1  0  0  0  0
 15 35  1  0  0  0  0
 16 36  1  0  0  0  0
 16 37  1  0  0  0  0
 18 38  1  0  0  0  0
 18 39  1  0  0  0  0
 18 40  1  0  0  0  0
 19 41  1  0  0  0  0
 19 42  1  0  0  0  0
 19 43  1  0  0  0  0
M  END
>  <InChIKey>
InChI=1S/C15H24N2O2/c1-4-5-10-16-14-8-6-13(7-9-14)15(18)19-12-11-17(2)3/h6-9,16H,4-5,10-12H2,1-3H3

>  <CASRN>
94-24-6

> <Outcome>
0

>  <Index>
1562

>  <StandardizerResult>
Dearomatize (ID: Dearomatize)
Clear Stereo (ID: ClearStereo)
Wedge Clean (ID: WedgeClean)
Mesomerize (ID: Mesomerize)
Tautomerize (ID: Tautomerize)
Aromatize (ID: Aromatize)
Add Explicit Hydrogens (ID: AddExplicitH)
Neutralize (ID: Neutralize)
Clean 2D (ID: Clean2D)

> <knn Distance>
4.35889911651611

> <CpId>
1562

$$$$
1705
  Mrv1532301301811342D          

 71 74  0  0  0  0            999 V2000
   -0.9696    0.1076    0.0000 C   0  0  0  0  0  0  0  0  0  0  0  0
   -0.4378   -0.5231    0.0000 C   0  0  0  0  0  0  0  0  0  0  0  0
   -1.0685   -1.0549    0.0000 C   0  0  0  0  0  0  0  0  0  0  0  0
    0.1929    0.0088    0.0000 C   0  0  0  0  0  0  0  0  0  0  0  0
    0.0940   -1.1538    0.0000 C   0  0  0  0  0  0  0  0  0  0  0  0
    0.9061   -1.0086    0.0000 C   0  0  0  0  0  0  0  0  0  0  0  0
    1.1864   -0.2326    0.0000 O   0  0  0  0  0  0  0  0  0  0  0  0
    1.4380   -1.6393    0.0000 O   0  0  0  0  0  0  0  0  0  0  0  0
    2.2501   -1.4940    0.0000 C   0  0  0  0  0  0  0  0  0  0  0  0
    2.7819   -2.1248    0.0000 C   0  0  0  0  0  0  0  0  0  0  0  0
    2.5016   -2.9007    0.0000 O   0  0  0  0  0  0  0  0  0  0  0  0
    3.5940   -1.9795    0.0000 C   0  0  0  0  0  0  0  0  0  0  0  0
    3.6535   -2.8024    0.0000 O   0  0  0  0  0  0  0  0  0  0  0  0
    3.3647   -1.1870    0.0000 C   0  0  0  0  0  0  0  0  0  0  0  0
    4.0475   -0.7241    0.0000 C   0  0  0  0  0  0  0  0  0  0  0  0
    4.6989   -1.2304    0.0000 C   0  0  0  0  0  0  0  0  0  0  0  0
    5.5110   -1.0852    0.0000 C   0  0  0  0  0  0  0  0  0  0  0  0
    5.7913   -0.3093    0.0000 C   0  0  0  0  0  0  0  0  0  0  0  0
    6.6034   -0.1641    0.0000 C   0  0  0  0  0  0  0  0  0  0  0  0
    7.1352   -0.7948    0.0000 C   0  0  0  0  0  0  0  0  0  0  0  0
    7.9474   -0.6496    0.0000 C   0  0  0  0  0  0  0  0  0  0  0  0
    8.4792   -1.2803    0.0000 C   0  0  0  0  0  0  0  0  0  0  0  0
    9.2913   -1.1351    0.0000 O   0  0  0  0  0  0  0  0  0  0  0  0
    8.1989   -2.0562    0.0000 C   0  0  0  0  0  0  0  0  0  0  0  0
    7.3868   -2.2014    0.0000 C   0  0  0  0  0  0  0  0  0  0  0  0
    6.8549   -1.5707    0.0000 C   0  0  0  0  0  0  0  0  0  0  0  0
    6.5746   -2.3466    0.0000 C   0  0  0  0  0  0  0  0  0  0  0  0
    6.0428   -1.7159    0.0000 C   0  0  0  0  0  0  0  0  0  0  0  0
    5.7625   -2.4918    0.0000 C   0  0  0  0  0  0  0  0  0  0  0  0
    6.2943   -3.1225    0.0000 O   0  0  0  0  0  0  0  0  0  0  0  0
    4.9504   -2.6371    0.0000 C   0  0  0  0  0  0  0  0  0  0  0  0
    4.4186   -2.0063    0.0000 C   0  0  0  0  0  0  0  0  0  0  0  0
    4.0587   -2.7487    0.0000 C   0  0  0  0  0  0  0  0  0  0  0  0
   -0.3389    0.6395    0.0000 H   0  0  0  0  0  0  0  0  0  0  0  0
   -1.5014    0.7384    0.0000 H   0  0  0  0  0  0  0  0  0  0  0  0
   -1.6003   -0.4242    0.0000 H   0  0  0  0  0  0  0  0  0  0  0  0
   -1.8547   -1.3049    0.0000 H   0  0  0  0  0  0  0  0  0  0  0  0
   -1.1384   -1.8769    0.0000 H   0  0  0  0  0  0  0  0  0  0  0  0
   -0.3358   -1.4341    0.0000 H   0  0  0  0  0  0  0  0  0  0  0  0
    0.4429   -0.7775    0.0000 H   0  0  0  0  0  0  0  0  0  0  0  0
    1.0149   -0.0612    0.0000 H   0  0  0  0  0  0  0  0  0  0  0  0
    0.5721    0.7415    0.0000 H   0  0  0  0  0  0  0  0  0  0  0  0
    0.0286   -1.9762    0.0000 H   0  0  0  0  0  0  0  0  0  0  0  0
    0.7051   -1.7080    0.0000 H   0  0  0  0  0  0  0  0  0  0  0  0
    2.8488   -0.9265    0.0000 H   0  0  0  0  0  0  0  0  0  0  0  0
    2.1523   -0.6749    0.0000 H   0  0  0  0  0  0  0  0  0  0  0  0
    3.1326   -3.4421    0.0000 H   0  0  0  0  0  0  0  0  0  0  0  0
    2.7297   -1.7137    0.0000 H   0  0  0  0  0  0  0  0  0  0  0  0
    3.3119   -0.3637    0.0000 H   0  0  0  0  0  0  0  0  0  0  0  0
    4.7089   -0.2309    0.0000 H   0  0  0  0  0  0  0  0  0  0  0  0
    4.2003    0.0867    0.0000 H   0  0  0  0  0  0  0  0  0  0  0  0
    5.2307   -1.8611    0.0000 H   0  0  0  0  0  0  0  0  0  0  0  0
    4.9792   -0.4545    0.0000 H   0  0  0  0  0  0  0  0  0  0  0  0
    5.9326    0.5035    0.0000 H   0  0  0  0  0  0  0  0  0  0  0  0
    5.3771    0.4042    0.0000 H   0  0  0  0  0  0  0  0  0  0  0  0
    7.3679    0.1461    0.0000 H   0  0  0  0  0  0  0  0  0  0  0  0
    6.9755    0.5723    0.0000 H   0  0  0  0  0  0  0  0  0  0  0  0
    8.2277    0.1264    0.0000 H   0  0  0  0  0  0  0  0  0  0  0  0
    8.7307   -2.6869    0.0000 H   0  0  0  0  0  0  0  0  0  0  0  0
    7.5320   -3.0135    0.0000 H   0  0  0  0  0  0  0  0  0  0  0  0
    6.7199   -3.1587    0.0000 H   0  0  0  0  0  0  0  0  0  0  0  0
    7.1065   -2.9773    0.0000 H   0  0  0  0  0  0  0  0  0  0  0  0
    7.3506   -2.6269    0.0000 H   0  0  0  0  0  0  0  0  0  0  0  0
    6.3231   -0.9400    0.0000 H   0  0  0  0  0  0  0  0  0  0  0  0
    5.4822   -3.2678    0.0000 H   0  0  0  0  0  0  0  0  0  0  0  0
    6.3323   -3.9467    0.0000 H   0  0  0  0  0  0  0  0  0  0  0  0
    4.3998   -3.2515    0.0000 H   0  0  0  0  0  0  0  0  0  0  0  0
    4.9380   -3.4620    0.0000 H   0  0  0  0  0  0  0  0  0  0  0  0
    3.3972   -3.2417    0.0000 H   0  0  0  0  0  0  0  0  0  0  0  0
    3.7212   -3.5015    0.0000 H   0  0  0  0  0  0  0  0  0  0  0  0
    4.1307   -3.5706    0.0000 H   0  0  0  0  0  0  0  0  0  0  0  0
  1  2  1  0  0  0  0
  2  3  1  0  0  0  0
  2  4  1  0  0  0  0
  2  5  1  0  0  0  0
  5  6  1  0  0  0  0
  6  7  2  0  0  0  0
  6  8  1  0  0  0  0
  8  9  1  0  0  0  0
  9 10  1  0  0  0  0
 10 11  2  0  0  0  0
 10 12  1  0  0  0  0
 12 13  1  0  0  0  0
 12 14  1  0  0  0  0
 14 15  1  0  0  0  0
 15 16  1  0  0  0  0
 16 17  1  0  0  0  0
 17 18  1  0  0  0  0
 18 19  1  0  0  0  0
 19 20  1  0  0  0  0
 20 21  2  0  0  0  0
 21 22  1  0  0  0  0
 22 23  2  0  0  0  0
 22 24  1  0  0  0  0
 24 25  2  0  0  0  0
 25 26  1  0  0  0  0
 20 26  1  0  0  0  0
 26 27  1  0  0  0  0
 26 28  1  0  0  0  0
 17 28  1  0  0  0  0
 28 29  1  0  0  0  0
 29 30  1  0  0  0  0
 29 31  1  0  0  0  0
 31 32  1  0  0  0  0
 12 32  1  0  0  0  0
 16 32  1  0  0  0  0
 32 33  1  0  0  0  0
  1 34  1  0  0  0  0
  1 35  1  0  0  0  0
  1 36  1  0  0  0  0
  3 37  1  0  0  0  0
  3 38  1  0  0  0  0
  3 39  1  0  0  0  0
  4 40  1  0  0  0  0
  4 41  1  0  0  0  0
  4 42  1  0  0  0  0
  5 43  1  0  0  0  0
  5 44  1  0  0  0  0
  9 45  1  0  0  0  0
  9 46  1  0  0  0  0
 13 47  1  0  0  0  0
 14 48  1  0  0  0  0
 14 49  1  0  0  0  0
 15 50  1  0  0  0  0
 15 51  1  0  0  0  0
 16 52  1  0  0  0  0
 17 53  1  0  0  0  0
 18 54  1  0  0  0  0
 18 55  1  0  0  0  0
 19 56  1  0  0  0  0
 19 57  1  0  0  0  0
 21 58  1  0  0  0  0
 24 59  1  0  0  0  0
 25 60  1  0  0  0  0
 27 61  1  0  0  0  0
 27 62  1  0  0  0  0
 27 63  1  0  0  0  0
 28 64  1  0  0  0  0
 29 65  1  0  0  0  0
 30 66  1  0  0  0  0
 31 67  1  0  0  0  0
 31 68  1  0  0  0  0
 33 69  1  0  0  0  0
 33 70  1  0  0  0  0
 33 71  1  0  0  0  0
M  END
>  <InChIKey>
InChI=1S/C27H38O6/c1-24(2,3)14-22(31)33-15-21(30)27(32)11-9-19-18-7-6-16-12-17(28)8-10-25(16,4)23(18)20(29)13-26(19,27)5/h8,10,12,18-20,23,29,32H,6-7,9,11,13-15H2,1-5H3

>  <CASRN>
7681-14-3

> <Outcome>
0

>  <Index>
1705

>  <StandardizerResult>
Clear Stereo (ID: ClearStereo)
Wedge Clean (ID: WedgeClean)
Mesomerize (ID: Mesomerize)
Tautomerize (ID: Tautomerize)
Add Explicit Hydrogens (ID: AddExplicitH)
Neutralize (ID: Neutralize)
Clean 2D (ID: Clean2D)

> <knn Distance>
4.35889911651611

> <CpId>
1705

$$$$
1709
  Mrv1532301301811342D          

 38 38  0  0  0  0            999 V2000
    2.8665   -4.0999    0.0000 C   0  0  0  0  0  0  0  0  0  0  0  0
    2.1520   -3.6874    0.0000 C   0  0  0  0  0  0  0  0  0  0  0  0
    2.1520   -2.8624    0.0000 C   0  0  0  0  0  0  0  0  0  0  0  0
    1.4375   -2.4499    0.0000 N   0  0  0  0  0  0  0  0  0  0  0  0
    0.7230   -2.8624    0.0000 C   0  0  0  0  0  0  0  0  0  0  0  0
    0.0086   -2.4499    0.0000 C   0  0  0  0  0  0  0  0  0  0  0  0
    0.7230   -3.6874    0.0000 C   0  0  0  0  0  0  0  0  0  0  0  0
    2.8665   -2.4499    0.0000 C   0  0  0  0  0  0  0  0  0  0  0  0
    2.8665   -1.6249    0.0000 O   0  0  0  0  0  0  0  0  0  0  0  0
    3.5809   -2.8624    0.0000 C   0  0  0  0  0  0  0  0  0  0  0  0
    4.2954   -2.4499    0.0000 C   0  0  0  0  0  0  0  0  0  0  0  0
    5.0099   -2.8624    0.0000 C   0  0  0  0  0  0  0  0  0  0  0  0
    5.0099   -3.6874    0.0000 C   0  0  0  0  0  0  0  0  0  0  0  0
    5.7243   -4.0999    0.0000 O   0  0  0  0  0  0  0  0  0  0  0  0
    4.2954   -4.0999    0.0000 C   0  0  0  0  0  0  0  0  0  0  0  0
    4.2954   -4.9249    0.0000 O   0  0  0  0  0  0  0  0  0  0  0  0
    3.5809   -3.6874    0.0000 C   0  0  0  0  0  0  0  0  0  0  0  0
    2.1520   -4.5124    0.0000 H   0  0  0  0  0  0  0  0  0  0  0  0
    2.8665   -4.9249    0.0000 H   0  0  0  0  0  0  0  0  0  0  0  0
    3.5809   -4.5124    0.0000 H   0  0  0  0  0  0  0  0  0  0  0  0
    1.3767   -3.4053    0.0000 H   0  0  0  0  0  0  0  0  0  0  0  0
    1.3767   -3.9696    0.0000 H   0  0  0  0  0  0  0  0  0  0  0  0
    2.8665   -3.2749    0.0000 H   0  0  0  0  0  0  0  0  0  0  0  0
    1.4375   -1.6249    0.0000 H   0  0  0  0  0  0  0  0  0  0  0  0
    0.7230   -2.0374    0.0000 H   0  0  0  0  0  0  0  0  0  0  0  0
   -0.2050   -1.6530    0.0000 H   0  0  0  0  0  0  0  0  0  0  0  0
   -0.8164   -2.4499    0.0000 H   0  0  0  0  0  0  0  0  0  0  0  0
   -0.2050   -3.2468    0.0000 H   0  0  0  0  0  0  0  0  0  0  0  0
   -0.0031   -3.2958    0.0000 H   0  0  0  0  0  0  0  0  0  0  0  0
    0.0337   -4.1407    0.0000 H   0  0  0  0  0  0  0  0  0  0  0  0
    0.7948   -4.5093    0.0000 H   0  0  0  0  0  0  0  0  0  0  0  0
    2.1520   -2.0374    0.0000 H   0  0  0  0  0  0  0  0  0  0  0  0
    3.2790   -0.9105    0.0000 H   0  0  0  0  0  0  0  0  0  0  0  0
    4.2954   -1.6249    0.0000 H   0  0  0  0  0  0  0  0  0  0  0  0
    5.7243   -2.4499    0.0000 H   0  0  0  0  0  0  0  0  0  0  0  0
    5.7243   -4.9249    0.0000 H   0  0  0  0  0  0  0  0  0  0  0  0
    4.7079   -5.6394    0.0000 H   0  0  0  0  0  0  0  0  0  0  0  0
    4.2954   -3.2749    0.0000 H   0  0  0  0  0  0  0  0  0  0  0  0
  1  2  1  0  0  0  0
  2  3  1  0  0  0  0
  3  4  1  0  0  0  0
  4  5  1  0  0  0  0
  5  6  1  0  0  0  0
  5  7  1  0  0  0  0
  3  8  1  0  0  0  0
  8  9  1  0  0  0  0
  8 10  1  0  0  0  0
 10 11  4  0  0  0  0
 11 12  4  0  0  0  0
 12 13  4  0  0  0  0
 13 14  1  0  0  0  0
 13 15  4  0  0  0  0
 15 16  1  0  0  0  0
 15 17  4  0  0  0  0
 10 17  4  0  0  0  0
  1 18  1  0  0  0  0
  1 19  1  0  0  0  0
  1 20  1  0  0  0  0
  2 21  1  0  0  0  0
  2 22  1  0  0  0  0
  3 23  1  0  0  0  0
  4 24  1  0  0  0  0
  5 25  1  0  0  0  0
  6 26  1  0  0  0  0
  6 27  1  0  0  0  0
  6 28  1  0  0  0  0
  7 29  1  0  0  0  0
  7 30  1  0  0  0  0
  7 31  1  0  0  0  0
  8 32  1  0  0  0  0
  9 33  1  0  0  0  0
 11 34  1  0  0  0  0
 12 35  1  0  0  0  0
 14 36  1  0  0  0  0
 16 37  1  0  0  0  0
 17 38  1  0  0  0  0
M  END
>  <InChIKey>
InChI=1S/C13H21NO3/c1-4-10(14-8(2)3)13(17)9-5-6-11(15)12(16)7-9/h5-8,10,13-17H,4H2,1-3H3

>  <CASRN>
530-08-5

> <Outcome>
0

>  <Index>
1709

>  <StandardizerResult>
Dearomatize (ID: Dearomatize)
Clear Stereo (ID: ClearStereo)
Wedge Clean (ID: WedgeClean)
Mesomerize (ID: Mesomerize)
Tautomerize (ID: Tautomerize)
Aromatize (ID: Aromatize)
Add Explicit Hydrogens (ID: AddExplicitH)
Neutralize (ID: Neutralize)
Clean 2D (ID: Clean2D)

> <knn Distance>
4.35889911651611

> <CpId>
1709

$$$$
1716
  Mrv1532301301811342D          

 53 55  0  0  0  0            999 V2000
    3.0903    3.3810    0.0000 O   0  0  0  0  0  0  0  0  0  0  0  0
    3.5028    2.6665    0.0000 C   0  0  0  0  0  0  0  0  0  0  0  0
    2.7883    2.2540    0.0000 C   0  0  0  0  0  0  0  0  0  0  0  0
    2.7883    1.4290    0.0000 C   0  0  0  0  0  0  0  0  0  0  0  0
    2.0739    1.0165    0.0000 N   0  0  0  0  0  0  0  0  0  0  0  0
    2.0739    0.1915    0.0000 C   0  0  0  0  0  0  0  0  0  0  0  0
    1.3594   -0.2210    0.0000 C   0  0  0  0  0  0  0  0  0  0  0  0
    0.6449    0.1915    0.0000 C   0  0  0  0  0  0  0  0  0  0  0  0
    0.6449    1.0165    0.0000 C   0  0  0  0  0  0  0  0  0  0  0  0
    1.3594    1.4290    0.0000 C   0  0  0  0  0  0  0  0  0  0  0  0
    4.2173    3.0790    0.0000 C   0  0  0  0  0  0  0  0  0  0  0  0
    4.2173    3.9040    0.0000 C   0  0  0  0  0  0  0  0  0  0  0  0
    4.9317    4.3165    0.0000 C   0  0  0  0  0  0  0  0  0  0  0  0
    5.6462    3.9040    0.0000 C   0  0  0  0  0  0  0  0  0  0  0  0
    5.6462    3.0790    0.0000 C   0  0  0  0  0  0  0  0  0  0  0  0
    4.9317    2.6665    0.0000 C   0  0  0  0  0  0  0  0  0  0  0  0
    3.9153    1.9521    0.0000 C   0  0  0  0  0  0  0  0  0  0  0  0
    4.7403    1.9521    0.0000 C   0  0  0  0  0  0  0  0  0  0  0  0
    5.1528    1.2376    0.0000 C   0  0  0  0  0  0  0  0  0  0  0  0
    4.7403    0.5231    0.0000 C   0  0  0  0  0  0  0  0  0  0  0  0
    3.9153    0.5231    0.0000 C   0  0  0  0  0  0  0  0  0  0  0  0
    3.5028    1.2376    0.0000 C   0  0  0  0  0  0  0  0  0  0  0  0
    3.5028    4.0955    0.0000 H   0  0  0  0  0  0  0  0  0  0  0  0
    2.3350    2.9433    0.0000 H   0  0  0  0  0  0  0  0  0  0  0  0
    1.9647    2.3020    0.0000 H   0  0  0  0  0  0  0  0  0  0  0  0
    2.8960    0.6111    0.0000 H   0  0  0  0  0  0  0  0  0  0  0  0
    3.4429    1.9313    0.0000 H   0  0  0  0  0  0  0  0  0  0  0  0
    2.0596   -0.6333    0.0000 H   0  0  0  0  0  0  0  0  0  0  0  0
    2.7737   -0.2454    0.0000 H   0  0  0  0  0  0  0  0  0  0  0  0
    0.6437   -0.6314    0.0000 H   0  0  0  0  0  0  0  0  0  0  0  0
    1.3547   -1.0459    0.0000 H   0  0  0  0  0  0  0  0  0  0  0  0
   -0.0694    0.6044    0.0000 H   0  0  0  0  0  0  0  0  0  0  0  0
   -0.0699   -0.2203    0.0000 H   0  0  0  0  0  0  0  0  0  0  0  0
    0.6450    1.8415    0.0000 H   0  0  0  0  0  0  0  0  0  0  0  0
   -0.0695    1.4292    0.0000 H   0  0  0  0  0  0  0  0  0  0  0  0
    1.9914    1.9593    0.0000 H   0  0  0  0  0  0  0  0  0  0  0  0
    1.5027    2.2415    0.0000 H   0  0  0  0  0  0  0  0  0  0  0  0
    4.2173    2.2540    0.0000 H   0  0  0  0  0  0  0  0  0  0  0  0
    4.1096    4.7220    0.0000 H   0  0  0  0  0  0  0  0  0  0  0  0
    4.9317    3.4915    0.0000 H   0  0  0  0  0  0  0  0  0  0  0  0
    5.5500    4.8628    0.0000 H   0  0  0  0  0  0  0  0  0  0  0  0
    5.0424    5.1341    0.0000 H   0  0  0  0  0  0  0  0  0  0  0  0
    6.4318    3.6522    0.0000 H   0  0  0  0  0  0  0  0  0  0  0  0
    6.4028    4.2330    0.0000 H   0  0  0  0  0  0  0  0  0  0  0  0
    6.0996    2.3898    0.0000 H   0  0  0  0  0  0  0  0  0  0  0  0
    6.4698    3.0311    0.0000 H   0  0  0  0  0  0  0  0  0  0  0  0
    5.3442    1.9521    0.0000 H   0  0  0  0  0  0  0  0  0  0  0  0
    5.7286    2.4530    0.0000 H   0  0  0  0  0  0  0  0  0  0  0  0
    4.3278    1.2376    0.0000 H   0  0  0  0  0  0  0  0  0  0  0  0
    5.9150    0.9219    0.0000 H   0  0  0  0  0  0  0  0  0  0  0  0
    5.1528   -0.1913    0.0000 H   0  0  0  0  0  0  0  0  0  0  0  0
    3.5028   -0.1913    0.0000 H   0  0  0  0  0  0  0  0  0  0  0  0
    3.4017    0.4188    0.0000 H   0  0  0  0  0  0  0  0  0  0  0  0
  1  2  1  0  0  0  0
  2  3  1  0  0  0  0
  3  4  1  0  0  0  0
  4  5  1  0  0  0  0
  5  6  1  0  0  0  0
  6  7  1  0  0  0  0
  7  8  1  0  0  0  0
  8  9  1  0  0  0  0
  9 10  1  0  0  0  0
  5 10  1  0  0  0  0
  2 11  1  0  0  0  0
 11 12  1  0  0  0  0
 12 13  1  0  0  0  0
 13 14  1  0  0  0  0
 14 15  1  0  0  0  0
 15 16  1  0  0  0  0
 11 16  1  0  0  0  0
  2 17  1  0  0  0  0
 17 18  4  0  0  0  0
 18 19  4  0  0  0  0
 19 20  4  0  0  0  0
 20 21  4  0  0  0  0
 21 22  4  0  0  0  0
 17 22  4  0  0  0  0
  1 23  1  0  0  0  0
  3 24  1  0  0  0  0
  3 25  1  0  0  0  0
  4 26  1  0  0  0  0
  4 27  1  0  0  0  0
  6 28  1  0  0  0  0
  6 29  1  0  0  0  0
  7 30  1  0  0  0  0
  7 31  1  0  0  0  0
  8 32  1  0  0  0  0
  8 33  1  0  0  0  0
  9 34  1  0  0  0  0
  9 35  1  0  0  0  0
 10 36  1  0  0  0  0
 10 37  1  0  0  0  0
 11 38  1  0  0  0  0
 12 39  1  0  0  0  0
 12 40  1  0  0  0  0
 13 41  1  0  0  0  0
 13 42  1  0  0  0  0
 14 43  1  0  0  0  0
 14 44  1  0  0  0  0
 15 45  1  0  0  0  0
 15 46  1  0  0  0  0
 16 47  1  0  0  0  0
 16 48  1  0  0  0  0
 18 49  1  0  0  0  0
 19 50  1  0  0  0  0
 20 51  1  0  0  0  0
 21 52  1  0  0  0  0
 22 53  1  0  0  0  0
M  END
>  <InChIKey>
InChI=1S/C20H31NO/c22-20(18-10-4-1-5-11-18,19-12-6-2-7-13-19)14-17-21-15-8-3-9-16-21/h1,4-5,10-11,19,22H,2-3,6-9,12-17H2

>  <CASRN>
144-11-6

> <Outcome>
0

>  <Index>
1716

>  <StandardizerResult>
Dearomatize (ID: Dearomatize)
Clear Stereo (ID: ClearStereo)
Wedge Clean (ID: WedgeClean)
Mesomerize (ID: Mesomerize)
Tautomerize (ID: Tautomerize)
Aromatize (ID: Aromatize)
Add Explicit Hydrogens (ID: AddExplicitH)
Neutralize (ID: Neutralize)
Clean 2D (ID: Clean2D)

> <knn Distance>
4.35889911651611

> <CpId>
1716

$$$$
1819
  Mrv1532301301811342D          

 37 37  0  0  0  0            999 V2000
   -1.4558    3.2616    0.0000 C   0  0  0  0  0  0  0  0  0  0  0  0
   -0.7413    3.6741    0.0000 C   0  0  0  0  0  0  0  0  0  0  0  0
   -0.0269    3.2616    0.0000 N   0  0  0  0  0  0  0  0  0  0  0  0
   -0.0269    2.4366    0.0000 C   0  0  0  0  0  0  0  0  0  0  0  0
   -0.7413    2.0241    0.0000 N   0  0  0  0  0  0  0  0  0  0  0  0
   -1.4558    2.4366    0.0000 C   0  0  0  0  0  0  0  0  0  0  0  0
   -2.1703    2.8491    0.0000 N   0  0  0  0  0  0  0  0  0  0  0  0
    0.6876    2.0241    0.0000 N   0  0  0  0  0  0  0  0  0  0  0  0
    0.6876    1.1991    0.0000 C   0  0  0  0  0  0  0  0  0  0  0  0
    1.4021    0.7866    0.0000 C   0  0  0  0  0  0  0  0  0  0  0  0
    1.4021   -0.0384    0.0000 C   0  0  0  0  0  0  0  0  0  0  0  0
    0.6876   -0.4509    0.0000 N   0  0  0  0  0  0  0  0  0  0  0  0
   -0.0269   -0.0384    0.0000 C   0  0  0  0  0  0  0  0  0  0  0  0
   -0.0269    0.7866    0.0000 C   0  0  0  0  0  0  0  0  0  0  0  0
   -0.7413    4.4991    0.0000 C   0  0  0  0  0  0  0  0  0  0  0  0
   -0.7413    5.3241    0.0000 C   0  0  0  0  0  0  0  0  0  0  0  0
    0.0837    4.4991    0.0000 C   0  0  0  0  0  0  0  0  0  0  0  0
   -1.5663    4.4991    0.0000 C   0  0  0  0  0  0  0  0  0  0  0  0
   -1.5991    4.0740    0.0000 H   0  0  0  0  0  0  0  0  0  0  0  0
   -2.0878    3.7919    0.0000 H   0  0  0  0  0  0  0  0  0  0  0  0
   -0.7413    2.8491    0.0000 H   0  0  0  0  0  0  0  0  0  0  0  0
   -0.0269    4.0866    0.0000 H   0  0  0  0  0  0  0  0  0  0  0  0
   -0.7413    1.1991    0.0000 H   0  0  0  0  0  0  0  0  0  0  0  0
    1.4021    2.4366    0.0000 H   0  0  0  0  0  0  0  0  0  0  0  0
    2.1165    1.1991    0.0000 H   0  0  0  0  0  0  0  0  0  0  0  0
    2.1165   -0.4509    0.0000 H   0  0  0  0  0  0  0  0  0  0  0  0
   -0.7413   -0.4509    0.0000 H   0  0  0  0  0  0  0  0  0  0  0  0
   -0.0269    1.6116    0.0000 H   0  0  0  0  0  0  0  0  0  0  0  0
    0.0837    5.3241    0.0000 H   0  0  0  0  0  0  0  0  0  0  0  0
   -0.7413    6.1491    0.0000 H   0  0  0  0  0  0  0  0  0  0  0  0
   -1.5663    5.3241    0.0000 H   0  0  0  0  0  0  0  0  0  0  0  0
    0.5420    3.8131    0.0000 H   0  0  0  0  0  0  0  0  0  0  0  0
    0.9016    4.3914    0.0000 H   0  0  0  0  0  0  0  0  0  0  0  0
    0.7039    5.0430    0.0000 H   0  0  0  0  0  0  0  0  0  0  0  0
   -2.1781    5.0525    0.0000 H   0  0  0  0  0  0  0  0  0  0  0  0
   -2.3872    4.4167    0.0000 H   0  0  0  0  0  0  0  0  0  0  0  0
   -1.0058    3.8937    0.0000 H   0  0  0  0  0  0  0  0  0  0  0  0
  1  2  1  0  0  0  0
  3  2  1  4  0  0  0
  3  4  2  0  0  0  0
  4  5  1  0  0  0  0
  5  6  1  0  0  0  0
  6  7  3  0  0  0  0
  4  8  1  0  0  0  0
  8  9  1  0  0  0  0
  9 10  4  0  0  0  0
 10 11  4  0  0  0  0
 11 12  4  0  0  0  0
 12 13  4  0  0  0  0
 13 14  4  0  0  0  0
  9 14  4  0  0  0  0
  2 15  1  0  0  0  0
 15 16  1  0  0  0  0
 15 17  1  0  0  0  0
 15 18  1  0  0  0  0
  1 19  1  0  0  0  0
  1 20  1  0  0  0  0
  1 21  1  0  0  0  0
  2 22  1  0  0  0  0
  5 23  1  0  0  0  0
  8 24  1  0  0  0  0
 10 25  1  0  0  0  0
 11 26  1  0  0  0  0
 13 27  1  0  0  0  0
 14 28  1  0  0  0  0
 16 29  1  0  0  0  0
 16 30  1  0  0  0  0
 16 31  1  0  0  0  0
 17 32  1  0  0  0  0
 17 33  1  0  0  0  0
 17 34  1  0  0  0  0
 18 35  1  0  0  0  0
 18 36  1  0  0  0  0
 18 37  1  0  0  0  0
M  END
>  <InChIKey>
InChI=1S/C13H19N5/c1-10(13(2,3)4)17-12(16-9-14)18-11-5-7-15-8-6-11/h5-8,10H,1-4H3,(H2,15,16,17,18)

>  <CASRN>
85371-64-8

> <Outcome>
0

>  <Index>
1819

>  <StandardizerResult>
Dearomatize (ID: Dearomatize)
Clear Stereo (ID: ClearStereo)
Wedge Clean (ID: WedgeClean)
Mesomerize (ID: Mesomerize)
Tautomerize (ID: Tautomerize)
Aromatize (ID: Aromatize)
Add Explicit Hydrogens (ID: AddExplicitH)
Neutralize (ID: Neutralize)
Clean 2D (ID: Clean2D)

> <knn Distance>
4.35889911651611

> <CpId>
1819

$$$$
1882
  Mrv1532301301811342D          

 24 25  0  0  0  0            999 V2000
    3.3393   -0.7824    0.0000 C   0  0  0  0  0  0  0  0  0  0  0  0
    2.8544   -0.1149    0.0000 C   0  0  0  0  0  0  0  0  0  0  0  0
    2.0294   -0.1149    0.0000 N   0  0  0  0  0  0  0  0  0  0  0  0
    1.7745    0.6697    0.0000 C   0  0  0  0  0  0  0  0  0  0  0  0
    2.4419    1.1546    0.0000 C   0  0  0  0  0  0  0  0  0  0  0  0
    3.1093    0.6697    0.0000 N   0  0  0  0  0  0  0  0  0  0  0  0
    3.0038   -1.5361    0.0000 C   0  0  0  0  0  0  0  0  0  0  0  0
    3.4887   -2.2035    0.0000 C   0  0  0  0  0  0  0  0  0  0  0  0
    3.1531   -2.9572    0.0000 C   0  0  0  0  0  0  0  0  0  0  0  0
    2.3327   -3.0434    0.0000 C   0  0  0  0  0  0  0  0  0  0  0  0
    1.8477   -2.3760    0.0000 C   0  0  0  0  0  0  0  0  0  0  0  0
    2.1833   -1.6223    0.0000 C   0  0  0  0  0  0  0  0  0  0  0  0
    4.1112   -1.0736    0.0000 H   0  0  0  0  0  0  0  0  0  0  0  0
    4.0338   -0.3371    0.0000 H   0  0  0  0  0  0  0  0  0  0  0  0
    1.2014    1.2631    0.0000 H   0  0  0  0  0  0  0  0  0  0  0  0
    0.9620    0.5264    0.0000 H   0  0  0  0  0  0  0  0  0  0  0  0
    2.8292    1.8830    0.0000 H   0  0  0  0  0  0  0  0  0  0  0  0
    2.0546    1.8830    0.0000 H   0  0  0  0  0  0  0  0  0  0  0  0
    3.8940    0.9246    0.0000 H   0  0  0  0  0  0  0  0  0  0  0  0
    4.3092   -2.1173    0.0000 H   0  0  0  0  0  0  0  0  0  0  0  0
    3.6381   -3.6246    0.0000 H   0  0  0  0  0  0  0  0  0  0  0  0
    1.9971   -3.7971    0.0000 H   0  0  0  0  0  0  0  0  0  0  0  0
    1.0272   -2.4622    0.0000 H   0  0  0  0  0  0  0  0  0  0  0  0
    1.6984   -0.9549    0.0000 H   0  0  0  0  0  0  0  0  0  0  0  0
  1  2  1  0  0  0  0
  2  3  2  0  0  0  0
  3  4  1  0  0  0  0
  4  5  1  0  0  0  0
  5  6  1  0  0  0  0
  2  6  1  0  0  0  0
  1  7  1  0  0  0  0
  7  8  4  0  0  0  0
  8  9  4  0  0  0  0
  9 10  4  0  0  0  0
 10 11  4  0  0  0  0
 11 12  4  0  0  0  0
  7 12  4  0  0  0  0
  1 13  1  0  0  0  0
  1 14  1  0  0  0  0
  4 15  1  0  0  0  0
  4 16  1  0  0  0  0
  5 17  1  0  0  0  0
  5 18  1  0  0  0  0
  6 19  1  0  0  0  0
  8 20  1  0  0  0  0
  9 21  1  0  0  0  0
 10 22  1  0  0  0  0
 11 23  1  0  0  0  0
 12 24  1  0  0  0  0
M  END
>  <InChIKey>
InChI=1S/C10H12N2/c1-2-4-9(5-3-1)8-10-11-6-7-12-10/h1-5H,6-8H2,(H,11,12)

>  <CASRN>
59-98-3

> <Outcome>
0

>  <Index>
1882

>  <StandardizerResult>
Dearomatize (ID: Dearomatize)
Clear Stereo (ID: ClearStereo)
Wedge Clean (ID: WedgeClean)
Mesomerize (ID: Mesomerize)
Tautomerize (ID: Tautomerize)
Aromatize (ID: Aromatize)
Add Explicit Hydrogens (ID: AddExplicitH)
Neutralize (ID: Neutralize)
Clean 2D (ID: Clean2D)

> <knn Distance>
4.35889911651611

> <CpId>
1882

$$$$
1888
  Mrv1532301301811342D          

 40 41  0  0  0  0            999 V2000
    0.7860    0.5556    0.0000 C   0  0  0  0  0  0  0  0  0  0  0  0
    0.2249   -0.0492    0.0000 C   0  0  0  0  0  0  0  0  0  0  0  0
   -0.5794    0.1344    0.0000 C   0  0  0  0  0  0  0  0  0  0  0  0
   -1.3837   -0.0492    0.0000 C   0  0  0  0  0  0  0  0  0  0  0  0
   -2.0288    0.4652    0.0000 C   0  0  0  0  0  0  0  0  0  0  0  0
   -2.0288    1.2902    0.0000 C   0  0  0  0  0  0  0  0  0  0  0  0
   -1.3837    1.8045    0.0000 C   0  0  0  0  0  0  0  0  0  0  0  0
   -0.5794    1.6210    0.0000 N   0  0  0  0  0  0  0  0  0  0  0  0
   -0.0650    2.2660    0.0000 C   0  0  0  0  0  0  0  0  0  0  0  0
   -0.2215    0.8777    0.0000 C   0  0  0  0  0  0  0  0  0  0  0  0
   -0.5794   -0.6906    0.0000 C   0  0  0  0  0  0  0  0  0  0  0  0
    0.1350   -1.1031    0.0000 C   0  0  0  0  0  0  0  0  0  0  0  0
    0.1350   -1.9281    0.0000 C   0  0  0  0  0  0  0  0  0  0  0  0
   -0.5794   -2.3406    0.0000 C   0  0  0  0  0  0  0  0  0  0  0  0
   -1.2939   -1.9281    0.0000 C   0  0  0  0  0  0  0  0  0  0  0  0
   -2.0084   -2.3406    0.0000 O   0  0  0  0  0  0  0  0  0  0  0  0
   -1.2939   -1.1031    0.0000 C   0  0  0  0  0  0  0  0  0  0  0  0
    1.3908   -0.0056    0.0000 H   0  0  0  0  0  0  0  0  0  0  0  0
    1.3472    1.1603    0.0000 H   0  0  0  0  0  0  0  0  0  0  0  0
    0.1813    1.1167    0.0000 H   0  0  0  0  0  0  0  0  0  0  0  0
    0.0884   -0.8628    0.0000 H   0  0  0  0  0  0  0  0  0  0  0  0
    0.7960   -0.6446    0.0000 H   0  0  0  0  0  0  0  0  0  0  0  0
   -1.8981   -0.6942    0.0000 H   0  0  0  0  0  0  0  0  0  0  0  0
   -1.2002   -0.8535    0.0000 H   0  0  0  0  0  0  0  0  0  0  0  0
   -2.8538    0.4652    0.0000 H   0  0  0  0  0  0  0  0  0  0  0  0
   -2.5431   -0.1798    0.0000 H   0  0  0  0  0  0  0  0  0  0  0  0
   -2.5431    1.9352    0.0000 H   0  0  0  0  0  0  0  0  0  0  0  0
   -2.8538    1.2902    0.0000 H   0  0  0  0  0  0  0  0  0  0  0  0
   -1.2002    2.6089    0.0000 H   0  0  0  0  0  0  0  0  0  0  0  0
   -1.8981    2.4496    0.0000 H   0  0  0  0  0  0  0  0  0  0  0  0
    0.5800    1.7516    0.0000 H   0  0  0  0  0  0  0  0  0  0  0  0
    0.4493    2.9110    0.0000 H   0  0  0  0  0  0  0  0  0  0  0  0
   -0.7101    2.7804    0.0000 H   0  0  0  0  0  0  0  0  0  0  0  0
    0.3867    0.3202    0.0000 H   0  0  0  0  0  0  0  0  0  0  0  0
   -1.0465    0.8777    0.0000 H   0  0  0  0  0  0  0  0  0  0  0  0
    0.8660   -1.4857    0.0000 H   0  0  0  0  0  0  0  0  0  0  0  0
    0.5549   -2.6383    0.0000 H   0  0  0  0  0  0  0  0  0  0  0  0
   -0.5794   -3.1656    0.0000 H   0  0  0  0  0  0  0  0  0  0  0  0
   -2.7228   -1.9281    0.0000 H   0  0  0  0  0  0  0  0  0  0  0  0
   -2.0226   -1.4899    0.0000 H   0  0  0  0  0  0  0  0  0  0  0  0
  1  2  1  0  0  0  0
  2  3  1  0  0  0  0
  3  4  1  0  0  0  0
  4  5  1  0  0  0  0
  5  6  1  0  0  0  0
  6  7  1  0  0  0  0
  7  8  1  0  0  0  0
  8  9  1  0  0  0  0
  8 10  1  0  0  0  0
  3 10  1  0  0  0  0
  3 11  1  0  0  0  0
 11 12  4  0  0  0  0
 12 13  4  0  0  0  0
 13 14  4  0  0  0  0
 14 15  4  0  0  0  0
 15 16  1  0  0  0  0
 15 17  4  0  0  0  0
 11 17  4  0  0  0  0
  1 18  1  0  0  0  0
  1 19  1  0  0  0  0
  1 20  1  0  0  0  0
  2 21  1  0  0  0  0
  2 22  1  0  0  0  0
  4 23  1  0  0  0  0
  4 24  1  0  0  0  0
  5 25  1  0  0  0  0
  5 26  1  0  0  0  0
  6 27  1  0  0  0  0
  6 28  1  0  0  0  0
  7 29  1  0  0  0  0
  7 30  1  0  0  0  0
  9 31  1  0  0  0  0
  9 32  1  0  0  0  0
  9 33  1  0  0  0  0
 10 34  1  0  0  0  0
 10 35  1  0  0  0  0
 12 36  1  0  0  0  0
 13 37  1  0  0  0  0
 14 38  1  0  0  0  0
 16 39  1  0  0  0  0
 17 40  1  0  0  0  0
M  END
>  <InChIKey>
InChI=1S/C15H23NO/c1-3-15(9-4-5-10-16(2)12-15)13-7-6-8-14(17)11-13/h6-8,11,17H,3-5,9-10,12H2,1-2H3

>  <CASRN>
54340-58-8

> <Outcome>
0

>  <Index>
1888

>  <StandardizerResult>
Dearomatize (ID: Dearomatize)
Clear Stereo (ID: ClearStereo)
Wedge Clean (ID: WedgeClean)
Mesomerize (ID: Mesomerize)
Tautomerize (ID: Tautomerize)
Aromatize (ID: Aromatize)
Add Explicit Hydrogens (ID: AddExplicitH)
Neutralize (ID: Neutralize)
Clean 2D (ID: Clean2D)

> <knn Distance>
4.35889911651611

> <CpId>
1888

$$$$
1926
  Mrv1532301301811342D          

 42 44  0  0  0  0            999 V2000
    2.3756    3.6257    0.0000 C   0  0  0  0  0  0  0  0  0  0  0  0
    2.3756    2.8007    0.0000 N   0  0  0  0  0  0  0  0  0  0  0  0
    1.6611    2.3882    0.0000 C   0  0  0  0  0  0  0  0  0  0  0  0
    3.0900    2.3882    0.0000 C   0  0  0  0  0  0  0  0  0  0  0  0
    3.0900    1.5632    0.0000 C   0  0  0  0  0  0  0  0  0  0  0  0
    3.8045    1.1507    0.0000 C   0  0  0  0  0  0  0  0  0  0  0  0
    3.8045    0.3257    0.0000 C   0  0  0  0  0  0  0  0  0  0  0  0
    4.5478   -0.0323    0.0000 C   0  0  0  0  0  0  0  0  0  0  0  0
    5.1526    0.5288    0.0000 C   0  0  0  0  0  0  0  0  0  0  0  0
    5.9409    0.2857    0.0000 C   0  0  0  0  0  0  0  0  0  0  0  0
    6.1245   -0.5186    0.0000 C   0  0  0  0  0  0  0  0  0  0  0  0
    5.5197   -1.0798    0.0000 C   0  0  0  0  0  0  0  0  0  0  0  0
    4.7314   -0.8366    0.0000 C   0  0  0  0  0  0  0  0  0  0  0  0
    4.2170   -1.4816    0.0000 C   0  0  0  0  0  0  0  0  0  0  0  0
    3.3920   -1.4816    0.0000 C   0  0  0  0  0  0  0  0  0  0  0  0
    2.8776   -0.8366    0.0000 C   0  0  0  0  0  0  0  0  0  0  0  0
    2.0893   -1.0798    0.0000 C   0  0  0  0  0  0  0  0  0  0  0  0
    1.4845   -0.5186    0.0000 C   0  0  0  0  0  0  0  0  0  0  0  0
    1.6681    0.2857    0.0000 C   0  0  0  0  0  0  0  0  0  0  0  0
    2.4564    0.5288    0.0000 C   0  0  0  0  0  0  0  0  0  0  0  0
    3.0612   -0.0323    0.0000 C   0  0  0  0  0  0  0  0  0  0  0  0
    3.2006    3.6257    0.0000 H   0  0  0  0  0  0  0  0  0  0  0  0
    2.3756    4.4507    0.0000 H   0  0  0  0  0  0  0  0  0  0  0  0
    1.5506    3.6257    0.0000 H   0  0  0  0  0  0  0  0  0  0  0  0
    1.2486    3.1026    0.0000 H   0  0  0  0  0  0  0  0  0  0  0  0
    0.9466    1.9757    0.0000 H   0  0  0  0  0  0  0  0  0  0  0  0
    2.0736    1.6737    0.0000 H   0  0  0  0  0  0  0  0  0  0  0  0
    3.9136    2.4361    0.0000 H   0  0  0  0  0  0  0  0  0  0  0  0
    3.5434    3.0774    0.0000 H   0  0  0  0  0  0  0  0  0  0  0  0
    2.2664    1.5152    0.0000 H   0  0  0  0  0  0  0  0  0  0  0  0
    2.6367    0.8739    0.0000 H   0  0  0  0  0  0  0  0  0  0  0  0
    4.5190    1.5632    0.0000 H   0  0  0  0  0  0  0  0  0  0  0  0
    4.9690    1.3332    0.0000 H   0  0  0  0  0  0  0  0  0  0  0  0
    6.5457    0.8468    0.0000 H   0  0  0  0  0  0  0  0  0  0  0  0
    6.9128   -0.7618    0.0000 H   0  0  0  0  0  0  0  0  0  0  0  0
    5.7033   -1.8841    0.0000 H   0  0  0  0  0  0  0  0  0  0  0  0
    4.5749   -2.2249    0.0000 H   0  0  0  0  0  0  0  0  0  0  0  0
    3.0340   -2.2249    0.0000 H   0  0  0  0  0  0  0  0  0  0  0  0
    1.9057   -1.8841    0.0000 H   0  0  0  0  0  0  0  0  0  0  0  0
    0.6962   -0.7618    0.0000 H   0  0  0  0  0  0  0  0  0  0  0  0
    1.0633    0.8468    0.0000 H   0  0  0  0  0  0  0  0  0  0  0  0
    1.9286    1.1629    0.0000 H   0  0  0  0  0  0  0  0  0  0  0  0
  1  2  1  0  0  0  0
  2  3  1  0  0  0  0
  2  4  1  0  0  0  0
  4  5  1  0  0  0  0
  6  5  1  4  0  0  0
  6  7  2  0  0  0  0
  7  8  1  0  0  0  0
  8  9  4  0  0  0  0
  9 10  4  0  0  0  0
 10 11  4  0  0  0  0
 11 12  4  0  0  0  0
 12 13  4  0  0  0  0
  8 13  4  0  0  0  0
 13 14  1  0  0  0  0
 14 15  2  0  0  0  0
 15 16  1  0  0  0  0
 16 17  4  0  0  0  0
 17 18  4  0  0  0  0
 18 19  4  0  0  0  0
 19 20  4  0  0  0  0
 20 21  4  0  0  0  0
  7 21  1  0  0  0  0
 16 21  4  0  0  0  0
  1 22  1  0  0  0  0
  1 23  1  0  0  0  0
  1 24  1  0  0  0  0
  3 25  1  0  0  0  0
  3 26  1  0  0  0  0
  3 27  1  0  0  0  0
  4 28  1  0  0  0  0
  4 29  1  0  0  0  0
  5 30  1  0  0  0  0
  5 31  1  0  0  0  0
  6 32  1  0  0  0  0
  9 33  1  0  0  0  0
 10 34  1  0  0  0  0
 11 35  1  0  0  0  0
 12 36  1  0  0  0  0
 14 37  1  0  0  0  0
 15 38  1  0  0  0  0
 17 39  1  0  0  0  0
 18 40  1  0  0  0  0
 19 41  1  0  0  0  0
 20 42  1  0  0  0  0
M  END
>  <InChIKey>
InChI=1S/C20H21N/c1-21(2)15-7-12-20-18-10-5-3-8-16(18)13-14-17-9-4-6-11-19(17)20/h3-6,8-14H,7,15H2,1-2H3

>  <CASRN>
303-53-7

> <Outcome>
0

>  <Index>
1926

>  <StandardizerResult>
Dearomatize (ID: Dearomatize)
Clear Stereo (ID: ClearStereo)
Wedge Clean (ID: WedgeClean)
Mesomerize (ID: Mesomerize)
Tautomerize (ID: Tautomerize)
Aromatize (ID: Aromatize)
Add Explicit Hydrogens (ID: AddExplicitH)
Neutralize (ID: Neutralize)
Clean 2D (ID: Clean2D)

> <knn Distance>
4.35889911651611

> <CpId>
1926

$$$$
1981
  Mrv1532301301811342D          

124131  0  0  0  0            999 V2000
   16.0336    1.5251    0.0000 C   0  0  0  0  0  0  0  0  0  0  0  0
   15.2214    1.3799    0.0000 C   0  0  0  0  0  0  0  0  0  0  0  0
   14.9411    0.6039    0.0000 O   0  0  0  0  0  0  0  0  0  0  0  0
   14.1290    0.4587    0.0000 C   0  0  0  0  0  0  0  0  0  0  0  0
   13.5972    1.0894    0.0000 C   0  0  0  0  0  0  0  0  0  0  0  0
   13.8775    1.8653    0.0000 C   0  0  0  0  0  0  0  0  0  0  0  0
   13.3457    2.4961    0.0000 O   0  0  0  0  0  0  0  0  0  0  0  0
   13.6260    3.2720    0.0000 C   0  0  0  0  0  0  0  0  0  0  0  0
   13.0942    3.9027    0.0000 C   0  0  0  0  0  0  0  0  0  0  0  0
   14.4381    3.4172    0.0000 O   0  0  0  0  0  0  0  0  0  0  0  0
   14.6896    2.0106    0.0000 C   0  0  0  0  0  0  0  0  0  0  0  0
   14.9699    2.7865    0.0000 O   0  0  0  0  0  0  0  0  0  0  0  0
   13.8487   -0.3172    0.0000 O   0  0  0  0  0  0  0  0  0  0  0  0
   13.0366   -0.4624    0.0000 C   0  0  0  0  0  0  0  0  0  0  0  0
   12.7563   -1.2383    0.0000 C   0  0  0  0  0  0  0  0  0  0  0  0
   13.2881   -1.8691    0.0000 O   0  0  0  0  0  0  0  0  0  0  0  0
   11.9442   -1.3836    0.0000 C   0  0  0  0  0  0  0  0  0  0  0  0
   11.4124   -0.7529    0.0000 C   0  0  0  0  0  0  0  0  0  0  0  0
   10.6002   -0.8981    0.0000 O   0  0  0  0  0  0  0  0  0  0  0  0
   10.0684   -0.2674    0.0000 C   0  0  0  0  0  0  0  0  0  0  0  0
    9.2563   -0.4126    0.0000 C   0  0  0  0  0  0  0  0  0  0  0  0
    8.9760   -1.1885    0.0000 C   0  0  0  0  0  0  0  0  0  0  0  0
    8.1639   -1.3337    0.0000 C   0  0  0  0  0  0  0  0  0  0  0  0
    7.8836   -2.1096    0.0000 O   0  0  0  0  0  0  0  0  0  0  0  0
    7.6321   -0.7030    0.0000 C   0  0  0  0  0  0  0  0  0  0  0  0
    7.9124    0.0729    0.0000 C   0  0  0  0  0  0  0  0  0  0  0  0
    7.3805    0.7036    0.0000 O   0  0  0  0  0  0  0  0  0  0  0  0
    6.5684    0.5584    0.0000 C   0  0  0  0  0  0  0  0  0  0  0  0
    6.2881   -0.2175    0.0000 C   0  0  0  0  0  0  0  0  0  0  0  0
    5.4760   -0.3627    0.0000 C   0  0  0  0  0  0  0  0  0  0  0  0
    4.9442    0.2680    0.0000 C   0  0  0  0  0  0  0  0  0  0  0  0
    4.6639   -0.5079    0.0000 C   0  0  0  0  0  0  0  0  0  0  0  0
    5.2245    1.0439    0.0000 C   0  0  0  0  0  0  0  0  0  0  0  0
    4.6927    1.6746    0.0000 C   0  0  0  0  0  0  0  0  0  0  0  0
    3.8805    1.5294    0.0000 C   0  0  0  0  0  0  0  0  0  0  0  0
    3.6002    0.7535    0.0000 C   0  0  0  0  0  0  0  0  0  0  0  0
    4.1321    0.1228    0.0000 C   0  0  0  0  0  0  0  0  0  0  0  0
    3.8518   -0.6532    0.0000 C   0  0  0  0  0  0  0  0  0  0  0  0
    3.0396   -0.7984    0.0000 C   0  0  0  0  0  0  0  0  0  0  0  0
    2.7594   -1.5743    0.0000 O   0  0  0  0  0  0  0  0  0  0  0  0
    2.5078   -0.1677    0.0000 C   0  0  0  0  0  0  0  0  0  0  0  0
    2.1480   -0.9100    0.0000 C   0  0  0  0  0  0  0  0  0  0  0  0
    1.6833   -0.1409    0.0000 C   0  0  0  0  0  0  0  0  0  0  0  0
    1.4540    0.6516    0.0000 C   0  0  0  0  0  0  0  0  0  0  0  0
    2.1368    1.1146    0.0000 C   0  0  0  0  0  0  0  0  0  0  0  0
    2.7881    0.6083    0.0000 C   0  0  0  0  0  0  0  0  0  0  0  0
    2.9858    1.4092    0.0000 O   0  0  0  0  0  0  0  0  0  0  0  0
    1.1769   -0.7922    0.0000 C   0  0  0  0  0  0  0  0  0  0  0  0
    1.4062   -1.5847    0.0000 C   0  0  0  0  0  0  0  0  0  0  0  0
    0.7234   -2.0477    0.0000 C   0  0  0  0  0  0  0  0  0  0  0  0
    0.6966   -2.8722    0.0000 O   0  0  0  0  0  0  0  0  0  0  0  0
    0.0720   -1.5413    0.0000 O   0  0  0  0  0  0  0  0  0  0  0  0
    0.3523   -0.7654    0.0000 C   0  0  0  0  0  0  0  0  0  0  0  0
    6.0366    1.1891    0.0000 C   0  0  0  0  0  0  0  0  0  0  0  0
    8.7245    0.2181    0.0000 O   0  0  0  0  0  0  0  0  0  0  0  0
   11.6927    0.0231    0.0000 O   0  0  0  0  0  0  0  0  0  0  0  0
   12.5048    0.1683    0.0000 C   0  0  0  0  0  0  0  0  0  0  0  0
   12.7851    0.9442    0.0000 C   0  0  0  0  0  0  0  0  0  0  0  0
   16.1788    0.7129    0.0000 H   0  0  0  0  0  0  0  0  0  0  0  0
   16.8457    1.6703    0.0000 H   0  0  0  0  0  0  0  0  0  0  0  0
   15.8883    2.3372    0.0000 H   0  0  0  0  0  0  0  0  0  0  0  0
   15.5017    2.1558    0.0000 H   0  0  0  0  0  0  0  0  0  0  0  0
   13.3169    0.3135    0.0000 H   0  0  0  0  0  0  0  0  0  0  0  0
   13.0654    1.7201    0.0000 H   0  0  0  0  0  0  0  0  0  0  0  0
   14.4093    1.2346    0.0000 H   0  0  0  0  0  0  0  0  0  0  0  0
   14.1578    2.6413    0.0000 H   0  0  0  0  0  0  0  0  0  0  0  0
   13.7249    4.4345    0.0000 H   0  0  0  0  0  0  0  0  0  0  0  0
   12.5623    4.5334    0.0000 H   0  0  0  0  0  0  0  0  0  0  0  0
   12.4634    3.3709    0.0000 H   0  0  0  0  0  0  0  0  0  0  0  0
   15.3203    2.5424    0.0000 H   0  0  0  0  0  0  0  0  0  0  0  0
   15.5258    3.3961    0.0000 H   0  0  0  0  0  0  0  0  0  0  0  0
   13.5684   -1.0931    0.0000 H   0  0  0  0  0  0  0  0  0  0  0  0
   12.4760   -2.0143    0.0000 H   0  0  0  0  0  0  0  0  0  0  0  0
   13.8199   -2.4998    0.0000 H   0  0  0  0  0  0  0  0  0  0  0  0
   11.1696   -1.6676    0.0000 H   0  0  0  0  0  0  0  0  0  0  0  0
   11.5334   -2.0990    0.0000 H   0  0  0  0  0  0  0  0  0  0  0  0
   10.8805   -0.1221    0.0000 H   0  0  0  0  0  0  0  0  0  0  0  0
   10.2097    0.5454    0.0000 H   0  0  0  0  0  0  0  0  0  0  0  0
    9.6542    0.4461    0.0000 H   0  0  0  0  0  0  0  0  0  0  0  0
    9.7881   -1.0433    0.0000 H   0  0  0  0  0  0  0  0  0  0  0  0
    8.8347   -2.0013    0.0000 H   0  0  0  0  0  0  0  0  0  0  0  0
    9.3902   -1.9020    0.0000 H   0  0  0  0  0  0  0  0  0  0  0  0
    7.3518   -1.4789    0.0000 H   0  0  0  0  0  0  0  0  0  0  0  0
    7.5788   -2.8763    0.0000 H   0  0  0  0  0  0  0  0  0  0  0  0
    6.9988   -0.1742    0.0000 H   0  0  0  0  0  0  0  0  0  0  0  0
    6.8071   -0.7050    0.0000 H   0  0  0  0  0  0  0  0  0  0  0  0
    8.1927    0.8488    0.0000 H   0  0  0  0  0  0  0  0  0  0  0  0
    6.8487    1.3343    0.0000 H   0  0  0  0  0  0  0  0  0  0  0  0
    6.0533   -1.0084    0.0000 H   0  0  0  0  0  0  0  0  0  0  0  0
    5.7563    0.4132    0.0000 H   0  0  0  0  0  0  0  0  0  0  0  0
    4.9534   -1.0011    0.0000 H   0  0  0  0  0  0  0  0  0  0  0  0
    5.4940   -1.1875    0.0000 H   0  0  0  0  0  0  0  0  0  0  0  0
    4.0112   -1.0125    0.0000 H   0  0  0  0  0  0  0  0  0  0  0  0
    4.3188   -1.2573    0.0000 H   0  0  0  0  0  0  0  0  0  0  0  0
    4.7048   -1.3319    0.0000 H   0  0  0  0  0  0  0  0  0  0  0  0
    5.5048    1.8198    0.0000 H   0  0  0  0  0  0  0  0  0  0  0  0
    4.8340    2.4874    0.0000 H   0  0  0  0  0  0  0  0  0  0  0  0
    4.2784    2.3881    0.0000 H   0  0  0  0  0  0  0  0  0  0  0  0
    3.3911    2.1935    0.0000 H   0  0  0  0  0  0  0  0  0  0  0  0
    4.4124    0.8987    0.0000 H   0  0  0  0  0  0  0  0  0  0  0  0
    3.3199   -0.0225    0.0000 H   0  0  0  0  0  0  0  0  0  0  0  0
    4.2773   -0.6894    0.0000 H   0  0  0  0  0  0  0  0  0  0  0  0
    3.2657   -1.2338    0.0000 H   0  0  0  0  0  0  0  0  0  0  0  0
    3.6990   -1.4639    0.0000 H   0  0  0  0  0  0  0  0  0  0  0  0
    2.3952   -1.3135    0.0000 H   0  0  0  0  0  0  0  0  0  0  0  0
    2.5534   -2.3732    0.0000 H   0  0  0  0  0  0  0  0  0  0  0  0
    1.3467   -0.7137    0.0000 H   0  0  0  0  0  0  0  0  0  0  0  0
    1.4432   -1.3389    0.0000 H   0  0  0  0  0  0  0  0  0  0  0  0
    1.9541   -1.7120    0.0000 H   0  0  0  0  0  0  0  0  0  0  0  0
    0.8730    0.0146    0.0000 H   0  0  0  0  0  0  0  0  0  0  0  0
    1.1801    1.4298    0.0000 H   0  0  0  0  0  0  0  0  0  0  0  0
    0.7229    1.0340    0.0000 H   0  0  0  0  0  0  0  0  0  0  0  0
    2.0653    1.9365    0.0000 H   0  0  0  0  0  0  0  0  0  0  0  0
    1.5208    1.6634    0.0000 H   0  0  0  0  0  0  0  0  0  0  0  0
    2.4456    2.0328    0.0000 H   0  0  0  0  0  0  0  0  0  0  0  0
    1.5570   -2.3958    0.0000 H   0  0  0  0  0  0  0  0  0  0  0  0
   -0.1961   -0.1491    0.0000 H   0  0  0  0  0  0  0  0  0  0  0  0
   -0.4692   -0.6898    0.0000 H   0  0  0  0  0  0  0  0  0  0  0  0
    6.5654    1.8224    0.0000 H   0  0  0  0  0  0  0  0  0  0  0  0
    6.0346    2.0141    0.0000 H   0  0  0  0  0  0  0  0  0  0  0  0
   12.2245   -0.6076    0.0000 H   0  0  0  0  0  0  0  0  0  0  0  0
   12.4346    1.6911    0.0000 H   0  0  0  0  0  0  0  0  0  0  0  0
   12.0092    1.2245    0.0000 H   0  0  0  0  0  0  0  0  0  0  0  0
   12.0382    0.5937    0.0000 H   0  0  0  0  0  0  0  0  0  0  0  0
  1  2  1  0  0  0  0
  2  3  1  0  0  0  0
  3  4  1  0  0  0  0
  4  5  1  0  0  0  0
  5  6  1  0  0  0  0
  6  7  1  0  0  0  0
  7  8  1  0  0  0  0
  8  9  1  0  0  0  0
  8 10  2  0  0  0  0
  6 11  1  0  0  0  0
  2 11  1  0  0  0  0
 11 12  1  0  0  0  0
  4 13  1  0  0  0  0
 13 14  1  0  0  0  0
 14 15  1  0  0  0  0
 15 16  1  0  0  0  0
 15 17  1  0  0  0  0
 17 18  1  0  0  0  0
 18 19  1  0  0  0  0
 19 20  1  0  0  0  0
 20 21  1  0  0  0  0
 21 22  1  0  0  0  0
 22 23  1  0  0  0  0
 23 24  1  0  0  0  0
 23 25  1  0  0  0  0
 25 26  1  0  0  0  0
 26 27  1  0  0  0  0
 27 28  1  0  0  0  0
 28 29  1  0  0  0  0
 29 30  1  0  0  0  0
 30 31  1  0  0  0  0
 31 32  1  0  0  0  0
 31 33  1  0  0  0  0
 33 34  1  0  0  0  0
 34 35  1  0  0  0  0
 35 36  1  0  0  0  0
 36 37  1  0  0  0  0
 31 37  1  0  0  0  0
 37 38  1  0  0  0  0
 38 39  1  0  0  0  0
 39 40  1  0  0  0  0
 39 41  1  0  0  0  0
 41 42  1  0  0  0  0
 41 43  1  0  0  0  0
 43 44  1  0  0  0  0
 44 45  1  0  0  0  0
 45 46  1  0  0  0  0
 36 46  1  0  0  0  0
 41 46  1  0  0  0  0
 46 47  1  0  0  0  0
 43 48  1  0  0  0  0
 48 49  2  0  0  0  0
 49 50  1  0  0  0  0
 50 51  2  0  0  0  0
 50 52  1  0  0  0  0
 52 53  1  0  0  0  0
 48 53  1  0  0  0  0
 33 54  1  0  0  0  0
 28 54  1  0  0  0  0
 26 55  1  0  0  0  0
 21 55  1  0  0  0  0
 18 56  1  0  0  0  0
 56 57  1  0  0  0  0
 14 57  1  0  0  0  0
 57 58  1  0  0  0  0
  1 59  1  0  0  0  0
  1 60  1  0  0  0  0
  1 61  1  0  0  0  0
  2 62  1  0  0  0  0
  4 63  1  0  0  0  0
  5 64  1  0  0  0  0
  5 65  1  0  0  0  0
  6 66  1  0  0  0  0
  9 67  1  0  0  0  0
  9 68  1  0  0  0  0
  9 69  1  0  0  0  0
 11 70  1  0  0  0  0
 12 71  1  0  0  0  0
 14 72  1  0  0  0  0
 15 73  1  0  0  0  0
 16 74  1  0  0  0  0
 17 75  1  0  0  0  0
 17 76  1  0  0  0  0
 18 77  1  0  0  0  0
 20 78  1  0  0  0  0
 20 79  1  0  0  0  0
 21 80  1  0  0  0  0
 22 81  1  0  0  0  0
 22 82  1  0  0  0  0
 23 83  1  0  0  0  0
 24 84  1  0  0  0  0
 25 85  1  0  0  0  0
 25 86  1  0  0  0  0
 26 87  1  0  0  0  0
 28 88  1  0  0  0  0
 29 89  1  0  0  0  0
 29 90  1  0  0  0  0
 30 91  1  0  0  0  0
 30 92  1  0  0  0  0
 32 93  1  0  0  0  0
 32 94  1  0  0  0  0
 32 95  1  0  0  0  0
 33 96  1  0  0  0  0
 34 97  1  0  0  0  0
 34 98  1  0  0  0  0
 35 99  1  0  0  0  0
 35100  1  0  0  0  0
 36101  1  0  0  0  0
 37102  1  0  0  0  0
 38103  1  0  0  0  0
 38104  1  0  0  0  0
 39105  1  0  0  0  0
 40106  1  0  0  0  0
 42107  1  0  0  0  0
 42108  1  0  0  0  0
 42109  1  0  0  0  0
 43110  1  0  0  0  0
 44111  1  0  0  0  0
 44112  1  0  0  0  0
 45113  1  0  0  0  0
 45114  1  0  0  0  0
 47115  1  0  0  0  0
 49116  1  0  0  0  0
 53117  1  0  0  0  0
 53118  1  0  0  0  0
 54119  1  0  0  0  0
 54120  1  0  0  0  0
 57121  1  0  0  0  0
 58122  1  0  0  0  0
 58123  1  0  0  0  0
 58124  1  0  0  0  0
M  END
>  <InChIKey>
InChI=1S/C43H66O15/c1-21-39(49)33(55-23(3)44)18-38(53-21)58-40-22(2)54-36(17-32(40)46)52-20-28-14-26(45)15-37(57-28)56-27-8-10-41(4)25(13-27)6-7-30-31(41)16-34(47)42(5)29(9-11-43(30,42)50)24-12-35(48)51-19-24/h12,21-22,25-34,36-40,45-47,49-50H,6-11,13-20H2,1-5H3

>  <CASRN>
5511-98-8

> <Outcome>
0

>  <Index>
1981

>  <StandardizerResult>
Clear Stereo (ID: ClearStereo)
Wedge Clean (ID: WedgeClean)
Mesomerize (ID: Mesomerize)
Tautomerize (ID: Tautomerize)
Add Explicit Hydrogens (ID: AddExplicitH)
Neutralize (ID: Neutralize)
Clean 2D (ID: Clean2D)

> <knn Distance>
4.35889911651611

> <CpId>
1981

$$$$
2020
  Mrv1532301301811342D          

 44 46  0  0  0  0            999 V2000
    2.3755    3.6266    0.0000 C   0  0  0  0  0  0  0  0  0  0  0  0
    2.3755    2.8016    0.0000 N   0  0  0  0  0  0  0  0  0  0  0  0
    1.6610    2.3891    0.0000 C   0  0  0  0  0  0  0  0  0  0  0  0
    3.0900    2.3891    0.0000 C   0  0  0  0  0  0  0  0  0  0  0  0
    3.0900    1.5641    0.0000 C   0  0  0  0  0  0  0  0  0  0  0  0
    3.8045    1.1516    0.0000 C   0  0  0  0  0  0  0  0  0  0  0  0
    3.8045    0.3266    0.0000 C   0  0  0  0  0  0  0  0  0  0  0  0
    4.5478   -0.0313    0.0000 C   0  0  0  0  0  0  0  0  0  0  0  0
    5.1525    0.5298    0.0000 C   0  0  0  0  0  0  0  0  0  0  0  0
    5.9409    0.2866    0.0000 C   0  0  0  0  0  0  0  0  0  0  0  0
    6.1245   -0.5177    0.0000 C   0  0  0  0  0  0  0  0  0  0  0  0
    5.5197   -1.0788    0.0000 C   0  0  0  0  0  0  0  0  0  0  0  0
    4.7313   -0.8357    0.0000 C   0  0  0  0  0  0  0  0  0  0  0  0
    4.2170   -1.4807    0.0000 C   0  0  0  0  0  0  0  0  0  0  0  0
    3.3920   -1.4807    0.0000 C   0  0  0  0  0  0  0  0  0  0  0  0
    2.8776   -0.8357    0.0000 C   0  0  0  0  0  0  0  0  0  0  0  0
    2.0892   -1.0788    0.0000 C   0  0  0  0  0  0  0  0  0  0  0  0
    1.4845   -0.5177    0.0000 C   0  0  0  0  0  0  0  0  0  0  0  0
    1.6680    0.2866    0.0000 C   0  0  0  0  0  0  0  0  0  0  0  0
    2.4564    0.5298    0.0000 C   0  0  0  0  0  0  0  0  0  0  0  0
    3.0612   -0.0313    0.0000 C   0  0  0  0  0  0  0  0  0  0  0  0
    3.2005    3.6266    0.0000 H   0  0  0  0  0  0  0  0  0  0  0  0
    2.3755    4.4516    0.0000 H   0  0  0  0  0  0  0  0  0  0  0  0
    1.5505    3.6266    0.0000 H   0  0  0  0  0  0  0  0  0  0  0  0
    1.2485    3.1036    0.0000 H   0  0  0  0  0  0  0  0  0  0  0  0
    0.9466    1.9766    0.0000 H   0  0  0  0  0  0  0  0  0  0  0  0
    2.0735    1.6746    0.0000 H   0  0  0  0  0  0  0  0  0  0  0  0
    3.9136    2.4371    0.0000 H   0  0  0  0  0  0  0  0  0  0  0  0
    3.5433    3.0784    0.0000 H   0  0  0  0  0  0  0  0  0  0  0  0
    2.2664    1.5161    0.0000 H   0  0  0  0  0  0  0  0  0  0  0  0
    2.6366    0.8748    0.0000 H   0  0  0  0  0  0  0  0  0  0  0  0
    4.5189    1.5641    0.0000 H   0  0  0  0  0  0  0  0  0  0  0  0
    4.9689    1.3341    0.0000 H   0  0  0  0  0  0  0  0  0  0  0  0
    6.5456    0.8478    0.0000 H   0  0  0  0  0  0  0  0  0  0  0  0
    6.9128   -0.7609    0.0000 H   0  0  0  0  0  0  0  0  0  0  0  0
    5.7033   -1.8831    0.0000 H   0  0  0  0  0  0  0  0  0  0  0  0
    4.2170   -2.3057    0.0000 H   0  0  0  0  0  0  0  0  0  0  0  0
    4.8620   -1.9950    0.0000 H   0  0  0  0  0  0  0  0  0  0  0  0
    2.7469   -1.9950    0.0000 H   0  0  0  0  0  0  0  0  0  0  0  0
    3.3920   -2.3057    0.0000 H   0  0  0  0  0  0  0  0  0  0  0  0
    1.9057   -1.8831    0.0000 H   0  0  0  0  0  0  0  0  0  0  0  0
    0.6961   -0.7609    0.0000 H   0  0  0  0  0  0  0  0  0  0  0  0
    1.0633    0.8478    0.0000 H   0  0  0  0  0  0  0  0  0  0  0  0
    1.9285    1.1638    0.0000 H   0  0  0  0  0  0  0  0  0  0  0  0
  1  2  1  0  0  0  0
  2  3  1  0  0  0  0
  2  4  1  0  0  0  0
  4  5  1  0  0  0  0
  6  5  1  4  0  0  0
  6  7  2  0  0  0  0
  7  8  1  0  0  0  0
  8  9  4  0  0  0  0
  9 10  4  0  0  0  0
 10 11  4  0  0  0  0
 11 12  4  0  0  0  0
 12 13  4  0  0  0  0
  8 13  4  0  0  0  0
 13 14  1  0  0  0  0
 14 15  1  0  0  0  0
 15 16  1  0  0  0  0
 16 17  4  0  0  0  0
 17 18  4  0  0  0  0
 18 19  4  0  0  0  0
 19 20  4  0  0  0  0
 20 21  4  0  0  0  0
  7 21  1  0  0  0  0
 16 21  4  0  0  0  0
  1 22  1  0  0  0  0
  1 23  1  0  0  0  0
  1 24  1  0  0  0  0
  3 25  1  0  0  0  0
  3 26  1  0  0  0  0
  3 27  1  0  0  0  0
  4 28  1  0  0  0  0
  4 29  1  0  0  0  0
  5 30  1  0  0  0  0
  5 31  1  0  0  0  0
  6 32  1  0  0  0  0
  9 33  1  0  0  0  0
 10 34  1  0  0  0  0
 11 35  1  0  0  0  0
 12 36  1  0  0  0  0
 14 37  1  0  0  0  0
 14 38  1  0  0  0  0
 15 39  1  0  0  0  0
 15 40  1  0  0  0  0
 17 41  1  0  0  0  0
 18 42  1  0  0  0  0
 19 43  1  0  0  0  0
 20 44  1  0  0  0  0
M  END
>  <InChIKey>
InChI=1S/C20H23N/c1-21(2)15-7-12-20-18-10-5-3-8-16(18)13-14-17-9-4-6-11-19(17)20/h3-6,8-12H,7,13-15H2,1-2H3

>  <CASRN>
50-48-6

> <Outcome>
0

>  <Index>
2020

>  <StandardizerResult>
Dearomatize (ID: Dearomatize)
Clear Stereo (ID: ClearStereo)
Wedge Clean (ID: WedgeClean)
Mesomerize (ID: Mesomerize)
Tautomerize (ID: Tautomerize)
Aromatize (ID: Aromatize)
Add Explicit Hydrogens (ID: AddExplicitH)
Neutralize (ID: Neutralize)
Clean 2D (ID: Clean2D)

> <knn Distance>
4.35889911651611

> <CpId>
2020

$$$$
2022
  Mrv1532301301811342D          

 49 51  0  0  0  0            999 V2000
   -0.6292   -3.3877    0.0000 C   0  0  0  0  0  0  0  0  0  0  0  0
   -1.3437   -2.9752    0.0000 C   0  0  0  0  0  0  0  0  0  0  0  0
   -2.0582   -3.3877    0.0000 N   0  0  0  0  0  0  0  0  0  0  0  0
   -2.0582   -4.2127    0.0000 C   0  0  0  0  0  0  0  0  0  0  0  0
   -2.7726   -4.6252    0.0000 C   0  0  0  0  0  0  0  0  0  0  0  0
   -3.4871   -4.2127    0.0000 C   0  0  0  0  0  0  0  0  0  0  0  0
   -3.4871   -3.3877    0.0000 C   0  0  0  0  0  0  0  0  0  0  0  0
   -2.7726   -2.9752    0.0000 C   0  0  0  0  0  0  0  0  0  0  0  0
   -4.2016   -2.9752    0.0000 O   0  0  0  0  0  0  0  0  0  0  0  0
   -4.2016   -2.1502    0.0000 C   0  0  0  0  0  0  0  0  0  0  0  0
   -3.4871   -1.7377    0.0000 O   0  0  0  0  0  0  0  0  0  0  0  0
   -4.9160   -1.7377    0.0000 C   0  0  0  0  0  0  0  0  0  0  0  0
   -4.9160   -0.9127    0.0000 C   0  0  0  0  0  0  0  0  0  0  0  0
   -5.6305   -0.5002    0.0000 C   0  0  0  0  0  0  0  0  0  0  0  0
   -5.6305    0.3248    0.0000 C   0  0  0  0  0  0  0  0  0  0  0  0
   -4.9160    0.7373    0.0000 C   0  0  0  0  0  0  0  0  0  0  0  0
   -4.2016    0.3248    0.0000 C   0  0  0  0  0  0  0  0  0  0  0  0
   -4.2016   -0.5002    0.0000 C   0  0  0  0  0  0  0  0  0  0  0  0
   -5.6305   -2.1502    0.0000 C   0  0  0  0  0  0  0  0  0  0  0  0
   -5.6305   -2.9752    0.0000 C   0  0  0  0  0  0  0  0  0  0  0  0
   -6.3450   -3.3877    0.0000 C   0  0  0  0  0  0  0  0  0  0  0  0
   -7.0594   -2.9752    0.0000 C   0  0  0  0  0  0  0  0  0  0  0  0
   -7.0594   -2.1502    0.0000 C   0  0  0  0  0  0  0  0  0  0  0  0
   -6.3450   -1.7377    0.0000 C   0  0  0  0  0  0  0  0  0  0  0  0
   -1.0417   -4.1022    0.0000 H   0  0  0  0  0  0  0  0  0  0  0  0
    0.0853   -3.8002    0.0000 H   0  0  0  0  0  0  0  0  0  0  0  0
   -0.2167   -2.6733    0.0000 H   0  0  0  0  0  0  0  0  0  0  0  0
   -0.9734   -2.2380    0.0000 H   0  0  0  0  0  0  0  0  0  0  0  0
   -1.7139   -2.2380    0.0000 H   0  0  0  0  0  0  0  0  0  0  0  0
   -1.6048   -4.9020    0.0000 H   0  0  0  0  0  0  0  0  0  0  0  0
   -1.2345   -4.2607    0.0000 H   0  0  0  0  0  0  0  0  0  0  0  0
   -3.1429   -5.3625    0.0000 H   0  0  0  0  0  0  0  0  0  0  0  0
   -2.4024   -5.3625    0.0000 H   0  0  0  0  0  0  0  0  0  0  0  0
   -4.3107   -4.2607    0.0000 H   0  0  0  0  0  0  0  0  0  0  0  0
   -3.9404   -4.9020    0.0000 H   0  0  0  0  0  0  0  0  0  0  0  0
   -3.4871   -2.5627    0.0000 H   0  0  0  0  0  0  0  0  0  0  0  0
   -2.1406   -2.4449    0.0000 H   0  0  0  0  0  0  0  0  0  0  0  0
   -2.6294   -2.1628    0.0000 H   0  0  0  0  0  0  0  0  0  0  0  0
   -4.2016   -1.3252    0.0000 H   0  0  0  0  0  0  0  0  0  0  0  0
   -6.3450   -0.9127    0.0000 H   0  0  0  0  0  0  0  0  0  0  0  0
   -6.3450    0.7373    0.0000 H   0  0  0  0  0  0  0  0  0  0  0  0
   -4.9160    1.5623    0.0000 H   0  0  0  0  0  0  0  0  0  0  0  0
   -3.4871    0.7373    0.0000 H   0  0  0  0  0  0  0  0  0  0  0  0
   -3.3766   -0.5002    0.0000 H   0  0  0  0  0  0  0  0  0  0  0  0
   -4.9160   -3.3877    0.0000 H   0  0  0  0  0  0  0  0  0  0  0  0
   -6.3450   -4.2127    0.0000 H   0  0  0  0  0  0  0  0  0  0  0  0
   -7.7739   -3.3877    0.0000 H   0  0  0  0  0  0  0  0  0  0  0  0
   -7.7739   -1.7377    0.0000 H   0  0  0  0  0  0  0  0  0  0  0  0
   -5.6305   -1.3252    0.0000 H   0  0  0  0  0  0  0  0  0  0  0  0
  1  2  1  0  0  0  0
  2  3  1  0  0  0  0
  3  4  1  0  0  0  0
  4  5  1  0  0  0  0
  5  6  1  0  0  0  0
  6  7  1  0  0  0  0
  7  8  1  0  0  0  0
  3  8  1  0  0  0  0
  7  9  1  0  0  0  0
  9 10  1  0  0  0  0
 10 11  2  0  0  0  0
 10 12  1  0  0  0  0
 12 13  1  0  0  0  0
 13 14  4  0  0  0  0
 14 15  4  0  0  0  0
 15 16  4  0  0  0  0
 16 17  4  0  0  0  0
 17 18  4  0  0  0  0
 13 18  4  0  0  0  0
 12 19  1  0  0  0  0
 19 20  4  0  0  0  0
 20 21  4  0  0  0  0
 21 22  4  0  0  0  0
 22 23  4  0  0  0  0
 23 24  4  0  0  0  0
 19 24  4  0  0  0  0
  1 25  1  0  0  0  0
  1 26  1  0  0  0  0
  1 27  1  0  0  0  0
  2 28  1  0  0  0  0
  2 29  1  0  0  0  0
  4 30  1  0  0  0  0
  4 31  1  0  0  0  0
  5 32  1  0  0  0  0
  5 33  1  0  0  0  0
  6 34  1  0  0  0  0
  6 35  1  0  0  0  0
  7 36  1  0  0  0  0
  8 37  1  0  0  0  0
  8 38  1  0  0  0  0
 12 39  1  0  0  0  0
 14 40  1  0  0  0  0
 15 41  1  0  0  0  0
 16 42  1  0  0  0  0
 17 43  1  0  0  0  0
 18 44  1  0  0  0  0
 20 45  1  0  0  0  0
 21 46  1  0  0  0  0
 22 47  1  0  0  0  0
 23 48  1  0  0  0  0
 24 49  1  0  0  0  0
M  END
>  <InChIKey>
InChI=1S/C21H25NO2/c1-2-22-15-9-14-19(16-22)24-21(23)20(17-10-5-3-6-11-17)18-12-7-4-8-13-18/h3-8,10-13,19-20H,2,9,14-16H2,1H3

>  <CASRN>
82-98-4

> <Outcome>
0

>  <Index>
2022

>  <StandardizerResult>
Dearomatize (ID: Dearomatize)
Clear Stereo (ID: ClearStereo)
Wedge Clean (ID: WedgeClean)
Mesomerize (ID: Mesomerize)
Tautomerize (ID: Tautomerize)
Aromatize (ID: Aromatize)
Add Explicit Hydrogens (ID: AddExplicitH)
Neutralize (ID: Neutralize)
Clean 2D (ID: Clean2D)

> <knn Distance>
4.35889911651611

> <CpId>
2022

$$$$
2045
  Mrv1532301301811342D          

 61 67  0  0  0  0            999 V2000
   -1.1171    3.8355    0.0000 C   0  0  0  0  0  0  0  0  0  0  0  0
   -0.3101    4.0070    0.0000 O   0  0  0  0  0  0  0  0  0  0  0  0
    0.2419    3.3939    0.0000 C   0  0  0  0  0  0  0  0  0  0  0  0
    1.0489    3.5655    0.0000 C   0  0  0  0  0  0  0  0  0  0  0  0
    1.6009    2.9524    0.0000 C   0  0  0  0  0  0  0  0  0  0  0  0
    1.3460    2.1677    0.0000 C   0  0  0  0  0  0  0  0  0  0  0  0
    0.5390    1.9962    0.0000 C   0  0  0  0  0  0  0  0  0  0  0  0
   -0.0130    2.6093    0.0000 C   0  0  0  0  0  0  0  0  0  0  0  0
    1.8980    1.5546    0.0000 C   0  0  0  0  0  0  0  0  0  0  0  0
    2.5655    1.0697    0.0000 C   0  0  0  0  0  0  0  0  0  0  0  0
    3.3724    1.2412    0.0000 C   0  0  0  0  0  0  0  0  0  0  0  0
    3.9245    0.6282    0.0000 C   0  0  0  0  0  0  0  0  0  0  0  0
    3.6695   -0.1565    0.0000 C   0  0  0  0  0  0  0  0  0  0  0  0
    2.8626   -0.3280    0.0000 C   0  0  0  0  0  0  0  0  0  0  0  0
    2.3105    0.2851    0.0000 C   0  0  0  0  0  0  0  0  0  0  0  0
    1.4855    0.2851    0.0000 C   0  0  0  0  0  0  0  0  0  0  0  0
    0.9335   -0.3280    0.0000 C   0  0  0  0  0  0  0  0  0  0  0  0
    0.1265   -0.1565    0.0000 C   0  0  0  0  0  0  0  0  0  0  0  0
   -0.1284    0.6282    0.0000 C   0  0  0  0  0  0  0  0  0  0  0  0
    0.4236    1.2412    0.0000 C   0  0  0  0  0  0  0  0  0  0  0  0
    1.2306    1.0697    0.0000 C   0  0  0  0  0  0  0  0  0  0  0  0
    2.4501    2.1677    0.0000 C   0  0  0  0  0  0  0  0  0  0  0  0
    2.1951    2.9524    0.0000 C   0  0  0  0  0  0  0  0  0  0  0  0
    2.7471    3.5655    0.0000 C   0  0  0  0  0  0  0  0  0  0  0  0
    3.5541    3.3939    0.0000 C   0  0  0  0  0  0  0  0  0  0  0  0
    4.1062    4.0070    0.0000 O   0  0  0  0  0  0  0  0  0  0  0  0
    4.9131    3.8355    0.0000 C   0  0  0  0  0  0  0  0  0  0  0  0
    5.4652    4.4486    0.0000 C   0  0  0  0  0  0  0  0  0  0  0  0
    5.6367    5.2556    0.0000 C   0  0  0  0  0  0  0  0  0  0  0  0
    6.2498    4.7035    0.0000 O   0  0  0  0  0  0  0  0  0  0  0  0
    3.8091    2.6093    0.0000 C   0  0  0  0  0  0  0  0  0  0  0  0
    3.2570    1.9962    0.0000 C   0  0  0  0  0  0  0  0  0  0  0  0
   -1.6691    4.4486    0.0000 C   0  0  0  0  0  0  0  0  0  0  0  0
   -2.4537    4.7035    0.0000 C   0  0  0  0  0  0  0  0  0  0  0  0
   -1.8406    5.2556    0.0000 O   0  0  0  0  0  0  0  0  0  0  0  0
   -1.6970    3.2487    0.0000 H   0  0  0  0  0  0  0  0  0  0  0  0
   -0.9928    3.0199    0.0000 H   0  0  0  0  0  0  0  0  0  0  0  0
    1.3038    4.3501    0.0000 H   0  0  0  0  0  0  0  0  0  0  0  0
    1.9365    3.7060    0.0000 H   0  0  0  0  0  0  0  0  0  0  0  0
   -0.2514    1.7598    0.0000 H   0  0  0  0  0  0  0  0  0  0  0  0
   -0.8027    2.8483    0.0000 H   0  0  0  0  0  0  0  0  0  0  0  0
    4.1180    1.5944    0.0000 H   0  0  0  0  0  0  0  0  0  0  0  0
    4.7314    0.7997    0.0000 H   0  0  0  0  0  0  0  0  0  0  0  0
    4.2216   -0.7696    0.0000 H   0  0  0  0  0  0  0  0  0  0  0  0
    2.6076   -1.1126    0.0000 H   0  0  0  0  0  0  0  0  0  0  0  0
    1.1884   -1.1126    0.0000 H   0  0  0  0  0  0  0  0  0  0  0  0
   -0.4255   -0.7696    0.0000 H   0  0  0  0  0  0  0  0  0  0  0  0
   -0.9354    0.7997    0.0000 H   0  0  0  0  0  0  0  0  0  0  0  0
    0.6785    0.4566    0.0000 H   0  0  0  0  0  0  0  0  0  0  0  0
    1.7102    2.2849    0.0000 H   0  0  0  0  0  0  0  0  0  0  0  0
    2.9034    4.3755    0.0000 H   0  0  0  0  0  0  0  0  0  0  0  0
    4.7888    3.0199    0.0000 H   0  0  0  0  0  0  0  0  0  0  0  0
    5.4931    3.2487    0.0000 H   0  0  0  0  0  0  0  0  0  0  0  0
    5.9145    3.7567    0.0000 H   0  0  0  0  0  0  0  0  0  0  0  0
    5.8548    6.0512    0.0000 H   0  0  0  0  0  0  0  0  0  0  0  0
    4.9925    5.7710    0.0000 H   0  0  0  0  0  0  0  0  0  0  0  0
    4.6160    2.4378    0.0000 H   0  0  0  0  0  0  0  0  0  0  0  0
    2.6571    1.4299    0.0000 H   0  0  0  0  0  0  0  0  0  0  0  0
   -0.9340    4.8231    0.0000 H   0  0  0  0  0  0  0  0  0  0  0  0
   -3.2222    5.0037    0.0000 H   0  0  0  0  0  0  0  0  0  0  0  0
   -3.0337    4.1168    0.0000 H   0  0  0  0  0  0  0  0  0  0  0  0
  1  2  1  0  0  0  0
  2  3  1  0  0  0  0
  3  4  4  0  0  0  0
  4  5  4  0  0  0  0
  5  6  4  0  0  0  0
  6  7  4  0  0  0  0
  7  8  4  0  0  0  0
  3  8  4  0  0  0  0
  6  9  1  0  0  0  0
  9 10  1  0  0  0  0
 10 11  4  0  0  0  0
 11 12  4  0  0  0  0
 12 13  4  0  0  0  0
 13 14  4  0  0  0  0
 14 15  4  0  0  0  0
 10 15  4  0  0  0  0
 15 16  1  0  0  0  0
 16 17  4  0  0  0  0
 17 18  4  0  0  0  0
 18 19  4  0  0  0  0
 19 20  4  0  0  0  0
 20 21  4  0  0  0  0
  9 21  1  0  0  0  0
 16 21  4  0  0  0  0
  9 22  1  0  0  0  0
 22 23  4  0  0  0  0
 23 24  4  0  0  0  0
 24 25  4  0  0  0  0
 25 26  1  0  0  0  0
 26 27  1  0  0  0  0
 27 28  1  0  0  0  0
 28 29  1  0  0  0  0
 29 30  1  0  0  0  0
 28 30  1  0  0  0  0
 25 31  4  0  0  0  0
 31 32  4  0  0  0  0
 22 32  4  0  0  0  0
  1 33  1  0  0  0  0
 33 34  1  0  0  0  0
 34 35  1  0  0  0  0
 33 35  1  0  0  0  0
  1 36  1  0  0  0  0
  1 37  1  0  0  0  0
  4 38  1  0  0  0  0
  5 39  1  0  0  0  0
  7 40  1  0  0  0  0
  8 41  1  0  0  0  0
 11 42  1  0  0  0  0
 12 43  1  0  0  0  0
 13 44  1  0  0  0  0
 14 45  1  0  0  0  0
 17 46  1  0  0  0  0
 18 47  1  0  0  0  0
 19 48  1  0  0  0  0
 20 49  1  0  0  0  0
 23 50  1  0  0  0  0
 24 51  1  0  0  0  0
 27 52  1  0  0  0  0
 27 53  1  0  0  0  0
 28 54  1  0  0  0  0
 29 55  1  0  0  0  0
 29 56  1  0  0  0  0
 31 57  1  0  0  0  0
 32 58  1  0  0  0  0
 33 59  1  0  0  0  0
 34 60  1  0  0  0  0
 34 61  1  0  0  0  0
M  END
>  <InChIKey>
InChI=1S/C31H26O4/c1-3-7-29-27(5-1)28-6-2-4-8-30(28)31(29,21-9-13-23(14-10-21)32-17-25-19-34-25)22-11-15-24(16-12-22)33-18-26-20-35-26/h1-16,25-26H,17-20H2

>  <UN GHS>
Non-irritant

>  <CASRN>
47758-37-2

> <Outcome>
0

>  <Index>
2045

>  <StandardizerResult>
Dearomatize (ID: Dearomatize)
Clear Stereo (ID: ClearStereo)
Wedge Clean (ID: WedgeClean)
Mesomerize (ID: Mesomerize)
Tautomerize (ID: Tautomerize)
Aromatize (ID: Aromatize)
Add Explicit Hydrogens (ID: AddExplicitH)
Neutralize (ID: Neutralize)
Clean 2D (ID: Clean2D)

> <knn Distance>
4.35889911651611

> <CpId>
2045

$$$$
2074
  Mrv1532301301811342D          

119126  0  0  0  0            999 V2000
    3.6327    7.3889    0.0000 C   0  0  0  0  0  0  0  0  0  0  0  0
    4.1645    6.7582    0.0000 C   0  0  0  0  0  0  0  0  0  0  0  0
    4.9766    6.9034    0.0000 O   0  0  0  0  0  0  0  0  0  0  0  0
    5.5085    6.2727    0.0000 C   0  0  0  0  0  0  0  0  0  0  0  0
    5.2282    5.4967    0.0000 C   0  0  0  0  0  0  0  0  0  0  0  0
    4.4160    5.3515    0.0000 C   0  0  0  0  0  0  0  0  0  0  0  0
    4.1357    4.5756    0.0000 O   0  0  0  0  0  0  0  0  0  0  0  0
    3.8842    5.9822    0.0000 C   0  0  0  0  0  0  0  0  0  0  0  0
    3.0721    5.8370    0.0000 O   0  0  0  0  0  0  0  0  0  0  0  0
    6.3206    6.4179    0.0000 O   0  0  0  0  0  0  0  0  0  0  0  0
    6.8524    5.7872    0.0000 C   0  0  0  0  0  0  0  0  0  0  0  0
    7.6645    5.9324    0.0000 C   0  0  0  0  0  0  0  0  0  0  0  0
    7.9448    6.7083    0.0000 O   0  0  0  0  0  0  0  0  0  0  0  0
    8.1963    5.3017    0.0000 C   0  0  0  0  0  0  0  0  0  0  0  0
    7.9160    4.5258    0.0000 C   0  0  0  0  0  0  0  0  0  0  0  0
    8.4478    3.8951    0.0000 O   0  0  0  0  0  0  0  0  0  0  0  0
    8.1676    3.1191    0.0000 C   0  0  0  0  0  0  0  0  0  0  0  0
    8.6994    2.4884    0.0000 C   0  0  0  0  0  0  0  0  0  0  0  0
    9.5115    2.6336    0.0000 O   0  0  0  0  0  0  0  0  0  0  0  0
    8.4191    1.7125    0.0000 C   0  0  0  0  0  0  0  0  0  0  0  0
    7.6070    1.5673    0.0000 C   0  0  0  0  0  0  0  0  0  0  0  0
    7.3267    0.7914    0.0000 O   0  0  0  0  0  0  0  0  0  0  0  0
    6.5145    0.6461    0.0000 C   0  0  0  0  0  0  0  0  0  0  0  0
    6.2342   -0.1298    0.0000 C   0  0  0  0  0  0  0  0  0  0  0  0
    5.4221   -0.2750    0.0000 C   0  0  0  0  0  0  0  0  0  0  0  0
    4.8903    0.3557    0.0000 C   0  0  0  0  0  0  0  0  0  0  0  0
    4.6100   -0.4202    0.0000 C   0  0  0  0  0  0  0  0  0  0  0  0
    5.1706    1.1316    0.0000 C   0  0  0  0  0  0  0  0  0  0  0  0
    4.6388    1.7623    0.0000 C   0  0  0  0  0  0  0  0  0  0  0  0
    3.8267    1.6171    0.0000 C   0  0  0  0  0  0  0  0  0  0  0  0
    3.5464    0.8412    0.0000 C   0  0  0  0  0  0  0  0  0  0  0  0
    4.0782    0.2105    0.0000 C   0  0  0  0  0  0  0  0  0  0  0  0
    3.7979   -0.5654    0.0000 C   0  0  0  0  0  0  0  0  0  0  0  0
    2.9858   -0.7106    0.0000 C   0  0  0  0  0  0  0  0  0  0  0  0
    2.4539   -0.0799    0.0000 C   0  0  0  0  0  0  0  0  0  0  0  0
    2.0941   -0.8223    0.0000 C   0  0  0  0  0  0  0  0  0  0  0  0
    1.6294   -0.0531    0.0000 C   0  0  0  0  0  0  0  0  0  0  0  0
    1.4001    0.7394    0.0000 C   0  0  0  0  0  0  0  0  0  0  0  0
    0.6241    1.0197    0.0000 O   0  0  0  0  0  0  0  0  0  0  0  0
    2.0829    1.2023    0.0000 C   0  0  0  0  0  0  0  0  0  0  0  0
    2.7342    0.6960    0.0000 C   0  0  0  0  0  0  0  0  0  0  0  0
    2.9319    1.4970    0.0000 O   0  0  0  0  0  0  0  0  0  0  0  0
    1.1230   -0.7045    0.0000 C   0  0  0  0  0  0  0  0  0  0  0  0
    1.3523   -1.4969    0.0000 C   0  0  0  0  0  0  0  0  0  0  0  0
    0.6695   -1.9599    0.0000 C   0  0  0  0  0  0  0  0  0  0  0  0
    0.6427   -2.7845    0.0000 O   0  0  0  0  0  0  0  0  0  0  0  0
    0.0182   -1.4536    0.0000 O   0  0  0  0  0  0  0  0  0  0  0  0
    0.2985   -0.6776    0.0000 C   0  0  0  0  0  0  0  0  0  0  0  0
    5.9827    1.2769    0.0000 C   0  0  0  0  0  0  0  0  0  0  0  0
    7.0751    2.1980    0.0000 O   0  0  0  0  0  0  0  0  0  0  0  0
    7.3554    2.9739    0.0000 C   0  0  0  0  0  0  0  0  0  0  0  0
    6.8236    3.6046    0.0000 C   0  0  0  0  0  0  0  0  0  0  0  0
    7.1039    4.3805    0.0000 O   0  0  0  0  0  0  0  0  0  0  0  0
    6.5721    5.0113    0.0000 C   0  0  0  0  0  0  0  0  0  0  0  0
    5.7600    4.8660    0.0000 C   0  0  0  0  0  0  0  0  0  0  0  0
    4.2634    7.9207    0.0000 H   0  0  0  0  0  0  0  0  0  0  0  0
    3.1009    8.0196    0.0000 H   0  0  0  0  0  0  0  0  0  0  0  0
    3.0020    6.8571    0.0000 H   0  0  0  0  0  0  0  0  0  0  0  0
    3.3524    6.6129    0.0000 H   0  0  0  0  0  0  0  0  0  0  0  0
    6.0403    5.6420    0.0000 H   0  0  0  0  0  0  0  0  0  0  0  0
    4.9479    4.7208    0.0000 H   0  0  0  0  0  0  0  0  0  0  0  0
    4.6963    6.1275    0.0000 H   0  0  0  0  0  0  0  0  0  0  0  0
    3.6039    5.2063    0.0000 H   0  0  0  0  0  0  0  0  0  0  0  0
    3.8554    3.7997    0.0000 H   0  0  0  0  0  0  0  0  0  0  0  0
    3.1083    6.2625    0.0000 H   0  0  0  0  0  0  0  0  0  0  0  0
    2.2859    5.5870    0.0000 H   0  0  0  0  0  0  0  0  0  0  0  0
    7.1327    6.5631    0.0000 H   0  0  0  0  0  0  0  0  0  0  0  0
    8.4766    6.0776    0.0000 H   0  0  0  0  0  0  0  0  0  0  0  0
    8.2251    7.4842    0.0000 H   0  0  0  0  0  0  0  0  0  0  0  0
    8.8296    4.7729    0.0000 H   0  0  0  0  0  0  0  0  0  0  0  0
    9.0213    5.3037    0.0000 H   0  0  0  0  0  0  0  0  0  0  0  0
    7.6357    3.7498    0.0000 H   0  0  0  0  0  0  0  0  0  0  0  0
    8.9797    3.2643    0.0000 H   0  0  0  0  0  0  0  0  0  0  0  0
    9.2312    1.8577    0.0000 H   0  0  0  0  0  0  0  0  0  0  0  0
   10.3236    2.7789    0.0000 H   0  0  0  0  0  0  0  0  0  0  0  0
    8.2778    0.8997    0.0000 H   0  0  0  0  0  0  0  0  0  0  0  0
    8.8333    0.9990    0.0000 H   0  0  0  0  0  0  0  0  0  0  0  0
    6.7948    1.4221    0.0000 H   0  0  0  0  0  0  0  0  0  0  0  0
    7.0464    0.0154    0.0000 H   0  0  0  0  0  0  0  0  0  0  0  0
    6.0929   -0.9426    0.0000 H   0  0  0  0  0  0  0  0  0  0  0  0
    6.6485   -0.8433    0.0000 H   0  0  0  0  0  0  0  0  0  0  0  0
    5.1759   -1.0624    0.0000 H   0  0  0  0  0  0  0  0  0  0  0  0
    5.7024    0.5009    0.0000 H   0  0  0  0  0  0  0  0  0  0  0  0
    3.9822   -0.9555    0.0000 H   0  0  0  0  0  0  0  0  0  0  0  0
    4.3382   -1.1991    0.0000 H   0  0  0  0  0  0  0  0  0  0  0  0
    4.7685   -1.2298    0.0000 H   0  0  0  0  0  0  0  0  0  0  0  0
    5.4509    1.9076    0.0000 H   0  0  0  0  0  0  0  0  0  0  0  0
    4.7801    2.5752    0.0000 H   0  0  0  0  0  0  0  0  0  0  0  0
    4.2246    2.4758    0.0000 H   0  0  0  0  0  0  0  0  0  0  0  0
    3.3372    2.2812    0.0000 H   0  0  0  0  0  0  0  0  0  0  0  0
    4.3585    0.9864    0.0000 H   0  0  0  0  0  0  0  0  0  0  0  0
    3.2661    0.0653    0.0000 H   0  0  0  0  0  0  0  0  0  0  0  0
    4.2234   -0.6016    0.0000 H   0  0  0  0  0  0  0  0  0  0  0  0
    3.2165   -1.1507    0.0000 H   0  0  0  0  0  0  0  0  0  0  0  0
    3.6581   -1.3785    0.0000 H   0  0  0  0  0  0  0  0  0  0  0  0
    2.3921   -1.2835    0.0000 H   0  0  0  0  0  0  0  0  0  0  0  0
    2.8542   -1.5251    0.0000 H   0  0  0  0  0  0  0  0  0  0  0  0
    1.2916   -0.6307    0.0000 H   0  0  0  0  0  0  0  0  0  0  0  0
    1.3945   -1.2595    0.0000 H   0  0  0  0  0  0  0  0  0  0  0  0
    1.9146   -1.6276    0.0000 H   0  0  0  0  0  0  0  0  0  0  0  0
    0.8192    0.1023    0.0000 H   0  0  0  0  0  0  0  0  0  0  0  0
    1.2976    1.5580    0.0000 H   0  0  0  0  0  0  0  0  0  0  0  0
   -0.1527    1.2975    0.0000 H   0  0  0  0  0  0  0  0  0  0  0  0
    2.1205    2.0265    0.0000 H   0  0  0  0  0  0  0  0  0  0  0  0
    2.0561    0.3778    0.0000 H   0  0  0  0  0  0  0  0  0  0  0  0
    2.7215    2.2947    0.0000 H   0  0  0  0  0  0  0  0  0  0  0  0
    1.5031   -2.3081    0.0000 H   0  0  0  0  0  0  0  0  0  0  0  0
   -0.2500   -0.0613    0.0000 H   0  0  0  0  0  0  0  0  0  0  0  0
   -0.5231   -0.6021    0.0000 H   0  0  0  0  0  0  0  0  0  0  0  0
    6.5115    1.9101    0.0000 H   0  0  0  0  0  0  0  0  0  0  0  0
    5.9807    2.1019    0.0000 H   0  0  0  0  0  0  0  0  0  0  0  0
    7.8873    2.3432    0.0000 H   0  0  0  0  0  0  0  0  0  0  0  0
    6.2918    4.2353    0.0000 H   0  0  0  0  0  0  0  0  0  0  0  0
    6.0115    3.4594    0.0000 H   0  0  0  0  0  0  0  0  0  0  0  0
    6.5433    2.8287    0.0000 H   0  0  0  0  0  0  0  0  0  0  0  0
    7.3842    5.1565    0.0000 H   0  0  0  0  0  0  0  0  0  0  0  0
    5.1293    4.3342    0.0000 H   0  0  0  0  0  0  0  0  0  0  0  0
    5.4797    4.0901    0.0000 H   0  0  0  0  0  0  0  0  0  0  0  0
    5.9052    4.0539    0.0000 H   0  0  0  0  0  0  0  0  0  0  0  0
  1  2  1  0  0  0  0
  2  3  1  0  0  0  0
  3  4  1  0  0  0  0
  4  5  1  0  0  0  0
  5  6  1  0  0  0  0
  6  7  1  0  0  0  0
  6  8  1  0  0  0  0
  2  8  1  0  0  0  0
  8  9  1  0  0  0  0
  4 10  1  0  0  0  0
 10 11  1  0  0  0  0
 11 12  1  0  0  0  0
 12 13  1  0  0  0  0
 12 14  1  0  0  0  0
 14 15  1  0  0  0  0
 15 16  1  0  0  0  0
 16 17  1  0  0  0  0
 17 18  1  0  0  0  0
 18 19  1  0  0  0  0
 18 20  1  0  0  0  0
 20 21  1  0  0  0  0
 21 22  1  0  0  0  0
 22 23  1  0  0  0  0
 23 24  1  0  0  0  0
 24 25  1  0  0  0  0
 25 26  1  0  0  0  0
 26 27  1  0  0  0  0
 26 28  1  0  0  0  0
 28 29  1  0  0  0  0
 29 30  1  0  0  0  0
 30 31  1  0  0  0  0
 31 32  1  0  0  0  0
 26 32  1  0  0  0  0
 32 33  1  0  0  0  0
 33 34  1  0  0  0  0
 34 35  1  0  0  0  0
 35 36  1  0  0  0  0
 35 37  1  0  0  0  0
 37 38  1  0  0  0  0
 38 39  1  0  0  0  0
 38 40  1  0  0  0  0
 40 41  1  0  0  0  0
 31 41  1  0  0  0  0
 35 41  1  0  0  0  0
 41 42  1  0  0  0  0
 37 43  1  0  0  0  0
 43 44  2  0  0  0  0
 44 45  1  0  0  0  0
 45 46  2  0  0  0  0
 45 47  1  0  0  0  0
 47 48  1  0  0  0  0
 43 48  1  0  0  0  0
 28 49  1  0  0  0  0
 23 49  1  0  0  0  0
 21 50  1  0  0  0  0
 50 51  1  0  0  0  0
 17 51  1  0  0  0  0
 51 52  1  0  0  0  0
 15 53  1  0  0  0  0
 53 54  1  0  0  0  0
 11 54  1  0  0  0  0
 54 55  1  0  0  0  0
  1 56  1  0  0  0  0
  1 57  1  0  0  0  0
  1 58  1  0  0  0  0
  2 59  1  0  0  0  0
  4 60  1  0  0  0  0
  5 61  1  0  0  0  0
  5 62  1  0  0  0  0
  6 63  1  0  0  0  0
  7 64  1  0  0  0  0
  8 65  1  0  0  0  0
  9 66  1  0  0  0  0
 11 67  1  0  0  0  0
 12 68  1  0  0  0  0
 13 69  1  0  0  0  0
 14 70  1  0  0  0  0
 14 71  1  0  0  0  0
 15 72  1  0  0  0  0
 17 73  1  0  0  0  0
 18 74  1  0  0  0  0
 19 75  1  0  0  0  0
 20 76  1  0  0  0  0
 20 77  1  0  0  0  0
 21 78  1  0  0  0  0
 23 79  1  0  0  0  0
 24 80  1  0  0  0  0
 24 81  1  0  0  0  0
 25 82  1  0  0  0  0
 25 83  1  0  0  0  0
 27 84  1  0  0  0  0
 27 85  1  0  0  0  0
 27 86  1  0  0  0  0
 28 87  1  0  0  0  0
 29 88  1  0  0  0  0
 29 89  1  0  0  0  0
 30 90  1  0  0  0  0
 30 91  1  0  0  0  0
 31 92  1  0  0  0  0
 32 93  1  0  0  0  0
 33 94  1  0  0  0  0
 33 95  1  0  0  0  0
 34 96  1  0  0  0  0
 34 97  1  0  0  0  0
 36 98  1  0  0  0  0
 36 99  1  0  0  0  0
 36100  1  0  0  0  0
 37101  1  0  0  0  0
 38102  1  0  0  0  0
 39103  1  0  0  0  0
 40104  1  0  0  0  0
 40105  1  0  0  0  0
 42106  1  0  0  0  0
 44107  1  0  0  0  0
 48108  1  0  0  0  0
 48109  1  0  0  0  0
 49110  1  0  0  0  0
 49111  1  0  0  0  0
 51112  1  0  0  0  0
 52113  1  0  0  0  0
 52114  1  0  0  0  0
 52115  1  0  0  0  0
 54116  1  0  0  0  0
 55117  1  0  0  0  0
 55118  1  0  0  0  0
 55119  1  0  0  0  0
M  END
>  <InChIKey>
InChI=1S/C41H64O14/c1-19-36(47)27(42)14-33(50-19)54-38-21(3)52-34(16-29(38)44)55-37-20(2)51-32(15-28(37)43)53-24-8-10-39(4)23(13-24)6-7-26-25(39)9-11-40(5)35(22-12-31(46)49-18-22)30(45)17-41(26,40)48/h12,19-21,23-30,32-38,42-45,47-48H,6-11,13-18H2,1-5H3

>  <CASRN>
4562-36-1

> <Outcome>
0

>  <Index>
2074

>  <StandardizerResult>
Clear Stereo (ID: ClearStereo)
Wedge Clean (ID: WedgeClean)
Mesomerize (ID: Mesomerize)
Tautomerize (ID: Tautomerize)
Add Explicit Hydrogens (ID: AddExplicitH)
Neutralize (ID: Neutralize)
Clean 2D (ID: Clean2D)

> <knn Distance>
4.35889911651611

> <CpId>
2074

$$$$
2085
  Mrv1532301301811342D          

 58 63  0  0  0  0            999 V2000
    3.6459   -1.2463    0.0000 O   0  0  0  0  0  0  0  0  0  0  0  0
    3.6459   -0.4213    0.0000 C   0  0  0  0  0  0  0  0  0  0  0  0
    2.9315   -0.0088    0.0000 C   0  0  0  0  0  0  0  0  0  0  0  0
    2.2170   -0.4213    0.0000 C   0  0  0  0  0  0  0  0  0  0  0  0
    2.2170   -1.2463    0.0000 C   0  0  0  0  0  0  0  0  0  0  0  0
    1.5025   -1.6588    0.0000 C   0  0  0  0  0  0  0  0  0  0  0  0
    0.7881   -1.2463    0.0000 C   0  0  0  0  0  0  0  0  0  0  0  0
    0.7881   -0.4213    0.0000 C   0  0  0  0  0  0  0  0  0  0  0  0
    0.0736   -0.0088    0.0000 C   0  0  0  0  0  0  0  0  0  0  0  0
    0.0736    0.8162    0.0000 C   0  0  0  0  0  0  0  0  0  0  0  0
    0.7881    1.2287    0.0000 C   0  0  0  0  0  0  0  0  0  0  0  0
    1.5025    0.8162    0.0000 C   0  0  0  0  0  0  0  0  0  0  0  0
    1.5025   -0.0088    0.0000 C   0  0  0  0  0  0  0  0  0  0  0  0
    1.5025   -2.4838    0.0000 C   0  0  0  0  0  0  0  0  0  0  0  0
    2.2170   -2.8963    0.0000 C   0  0  0  0  0  0  0  0  0  0  0  0
    2.2170   -3.7213    0.0000 C   0  0  0  0  0  0  0  0  0  0  0  0
    1.5025   -4.1338    0.0000 C   0  0  0  0  0  0  0  0  0  0  0  0
    0.7881   -3.7213    0.0000 C   0  0  0  0  0  0  0  0  0  0  0  0
    0.7881   -2.8963    0.0000 C   0  0  0  0  0  0  0  0  0  0  0  0
    1.5025   -4.9588    0.0000 C   0  0  0  0  0  0  0  0  0  0  0  0
    2.2170   -5.3713    0.0000 C   0  0  0  0  0  0  0  0  0  0  0  0
    2.2170   -6.1963    0.0000 C   0  0  0  0  0  0  0  0  0  0  0  0
    1.5025   -6.6088    0.0000 C   0  0  0  0  0  0  0  0  0  0  0  0
    1.5025   -7.4338    0.0000 Br  0  0  0  0  0  0  0  0  0  0  0  0
    0.7881   -6.1963    0.0000 C   0  0  0  0  0  0  0  0  0  0  0  0
    0.7881   -5.3713    0.0000 C   0  0  0  0  0  0  0  0  0  0  0  0
    2.9315    0.8162    0.0000 C   0  0  0  0  0  0  0  0  0  0  0  0
    2.2170    1.2287    0.0000 O   0  0  0  0  0  0  0  0  0  0  0  0
    3.6459    1.2287    0.0000 O   0  0  0  0  0  0  0  0  0  0  0  0
    4.3604    0.8162    0.0000 C   0  0  0  0  0  0  0  0  0  0  0  0
    5.0749    1.2287    0.0000 C   0  0  0  0  0  0  0  0  0  0  0  0
    5.7894    0.8162    0.0000 C   0  0  0  0  0  0  0  0  0  0  0  0
    5.7894   -0.0088    0.0000 C   0  0  0  0  0  0  0  0  0  0  0  0
    5.0749   -0.4213    0.0000 C   0  0  0  0  0  0  0  0  0  0  0  0
    4.3604   -0.0088    0.0000 C   0  0  0  0  0  0  0  0  0  0  0  0
    2.9315   -1.6588    0.0000 H   0  0  0  0  0  0  0  0  0  0  0  0
    2.2170    0.4037    0.0000 H   0  0  0  0  0  0  0  0  0  0  0  0
    2.9315   -0.8338    0.0000 H   0  0  0  0  0  0  0  0  0  0  0  0
    2.2170   -2.0713    0.0000 H   0  0  0  0  0  0  0  0  0  0  0  0
    0.7881   -2.0713    0.0000 H   0  0  0  0  0  0  0  0  0  0  0  0
    0.0128   -0.9641    0.0000 H   0  0  0  0  0  0  0  0  0  0  0  0
    0.0128   -1.5284    0.0000 H   0  0  0  0  0  0  0  0  0  0  0  0
   -0.7510    0.0174    0.0000 H   0  0  0  0  0  0  0  0  0  0  0  0
   -0.6409    1.2287    0.0000 H   0  0  0  0  0  0  0  0  0  0  0  0
    0.7881    2.0537    0.0000 H   0  0  0  0  0  0  0  0  0  0  0  0
    0.7881    0.4037    0.0000 H   0  0  0  0  0  0  0  0  0  0  0  0
    3.0420   -2.8963    0.0000 H   0  0  0  0  0  0  0  0  0  0  0  0
    2.9315   -4.1338    0.0000 H   0  0  0  0  0  0  0  0  0  0  0  0
    0.0736   -4.1338    0.0000 H   0  0  0  0  0  0  0  0  0  0  0  0
   -0.0369   -2.8963    0.0000 H   0  0  0  0  0  0  0  0  0  0  0  0
    2.9315   -4.9588    0.0000 H   0  0  0  0  0  0  0  0  0  0  0  0
    2.9315   -6.6088    0.0000 H   0  0  0  0  0  0  0  0  0  0  0  0
    0.0736   -6.6088    0.0000 H   0  0  0  0  0  0  0  0  0  0  0  0
    0.0736   -4.9588    0.0000 H   0  0  0  0  0  0  0  0  0  0  0  0
    5.0749    2.0537    0.0000 H   0  0  0  0  0  0  0  0  0  0  0  0
    6.5038    1.2287    0.0000 H   0  0  0  0  0  0  0  0  0  0  0  0
    6.5038   -0.4213    0.0000 H   0  0  0  0  0  0  0  0  0  0  0  0
    5.0749   -1.2463    0.0000 H   0  0  0  0  0  0  0  0  0  0  0  0
  1  2  1  0  0  0  0
  2  3  2  0  0  0  0
  3  4  1  0  0  0  0
  4  5  1  0  0  0  0
  5  6  1  0  0  0  0
  6  7  1  0  0  0  0
  7  8  1  0  0  0  0
  8  9  4  0  0  0  0
  9 10  4  0  0  0  0
 10 11  4  0  0  0  0
 11 12  4  0  0  0  0
 12 13  4  0  0  0  0
  4 13  1  0  0  0  0
  8 13  4  0  0  0  0
  6 14  1  0  0  0  0
 14 15  4  0  0  0  0
 15 16  4  0  0  0  0
 16 17  4  0  0  0  0
 17 18  4  0  0  0  0
 18 19  4  0  0  0  0
 14 19  4  0  0  0  0
 17 20  1  0  0  0  0
 20 21  4  0  0  0  0
 21 22  4  0  0  0  0
 22 23  4  0  0  0  0
 23 24  1  0  0  0  0
 23 25  4  0  0  0  0
 25 26  4  0  0  0  0
 20 26  4  0  0  0  0
  3 27  1  0  0  0  0
 27 28  2  0  0  0  0
 27 29  1  0  0  0  0
 29 30  1  0  0  0  0
 30 31  4  0  0  0  0
 31 32  4  0  0  0  0
 32 33  4  0  0  0  0
 33 34  4  0  0  0  0
 34 35  4  0  0  0  0
  2 35  1  0  0  0  0
 30 35  4  0  0  0  0
  1 36  1  0  0  0  0
  4 37  1  0  0  0  0
  5 38  1  0  0  0  0
  5 39  1  0  0  0  0
  6 40  1  0  0  0  0
  7 41  1  0  0  0  0
  7 42  1  0  0  0  0
  9 43  1  0  0  0  0
 10 44  1  0  0  0  0
 11 45  1  0  0  0  0
 12 46  1  0  0  0  0
 15 47  1  0  0  0  0
 16 48  1  0  0  0  0
 18 49  1  0  0  0  0
 19 50  1  0  0  0  0
 21 51  1  0  0  0  0
 22 52  1  0  0  0  0
 25 53  1  0  0  0  0
 26 54  1  0  0  0  0
 31 55  1  0  0  0  0
 32 56  1  0  0  0  0
 33 57  1  0  0  0  0
 34 58  1  0  0  0  0
M  END
>  <InChIKey>
InChI=1S/C31H23BrO3/c32-24-15-13-20(14-16-24)19-9-11-21(12-10-19)23-17-22-5-1-2-6-25(22)27(18-23)29-30(33)26-7-3-4-8-28(26)35-31(29)34/h1-16,23,27,33H,17-18H2

>  <UN GHS>
Non-irritant

>  <CASRN>
56073-10-0

> <Outcome>
0

>  <Index>
2085

>  <StandardizerResult>
Dearomatize (ID: Dearomatize)
Clear Stereo (ID: ClearStereo)
Wedge Clean (ID: WedgeClean)
Mesomerize (ID: Mesomerize)
Tautomerize (ID: Tautomerize)
Aromatize (ID: Aromatize)
Add Explicit Hydrogens (ID: AddExplicitH)
Neutralize (ID: Neutralize)
Clean 2D (ID: Clean2D)

> <knn Distance>
4.35889911651611

> <CpId>
2085

$$$$
2106
  Mrv1532301301811342D          

 21 21  0  0  0  0            999 V2000
    1.2884    2.3787    0.0000 C   0  0  0  0  0  0  0  0  0  0  0  0
    0.5739    1.9662    0.0000 C   0  0  0  0  0  0  0  0  0  0  0  0
   -0.1406    2.3787    0.0000 I   0  0  0  0  0  0  0  0  0  0  0  0
    0.5739    1.1412    0.0000 C   0  0  0  0  0  0  0  0  0  0  0  0
    1.2413    0.6563    0.0000 O   0  0  0  0  0  0  0  0  0  0  0  0
    0.9864   -0.1283    0.0000 C   0  0  0  0  0  0  0  0  0  0  0  0
    0.1614   -0.1283    0.0000 C   0  0  0  0  0  0  0  0  0  0  0  0
   -0.3235   -0.7958    0.0000 C   0  0  0  0  0  0  0  0  0  0  0  0
    0.0120   -1.5495    0.0000 O   0  0  0  0  0  0  0  0  0  0  0  0
   -0.0936    0.6563    0.0000 O   0  0  0  0  0  0  0  0  0  0  0  0
    1.7009    1.6642    0.0000 H   0  0  0  0  0  0  0  0  0  0  0  0
    2.0028    2.7912    0.0000 H   0  0  0  0  0  0  0  0  0  0  0  0
    0.8759    3.0932    0.0000 H   0  0  0  0  0  0  0  0  0  0  0  0
    0.5739    2.7912    0.0000 H   0  0  0  0  0  0  0  0  0  0  0  0
   -0.1612    1.5157    0.0000 H   0  0  0  0  0  0  0  0  0  0  0  0
    1.1012   -0.9453    0.0000 H   0  0  0  0  0  0  0  0  0  0  0  0
    1.7279   -0.4900    0.0000 H   0  0  0  0  0  0  0  0  0  0  0  0
   -0.6535    0.0007    0.0000 H   0  0  0  0  0  0  0  0  0  0  0  0
   -1.1473   -0.8402    0.0000 H   0  0  0  0  0  0  0  0  0  0  0  0
   -0.9228   -1.3628    0.0000 H   0  0  0  0  0  0  0  0  0  0  0  0
    0.6564   -2.0647    0.0000 H   0  0  0  0  0  0  0  0  0  0  0  0
  1  2  1  0  0  0  0
  2  3  1  0  0  0  0
  2  4  1  0  0  0  0
  4  5  1  0  0  0  0
  5  6  1  0  0  0  0
  6  7  1  0  0  0  0
  7  8  1  0  0  0  0
  8  9  1  0  0  0  0
  7 10  1  0  0  0  0
  4 10  1  0  0  0  0
  1 11  1  0  0  0  0
  1 12  1  0  0  0  0
  1 13  1  0  0  0  0
  2 14  1  0  0  0  0
  4 15  1  0  0  0  0
  6 16  1  0  0  0  0
  6 17  1  0  0  0  0
  7 18  1  0  0  0  0
  8 19  1  0  0  0  0
  8 20  1  0  0  0  0
  9 21  1  0  0  0  0
M  END
>  <InChIKey>
InChI=1S/C6H11IO3/c1-4(7)6-9-3-5(2-8)10-6/h4-6,8H,2-3H2,1H3

>  <CASRN>
5634-39-9

> <Outcome>
0

>  <Index>
2106

>  <StandardizerResult>
Clear Stereo (ID: ClearStereo)
Wedge Clean (ID: WedgeClean)
Mesomerize (ID: Mesomerize)
Tautomerize (ID: Tautomerize)
Add Explicit Hydrogens (ID: AddExplicitH)
Neutralize (ID: Neutralize)
Clean 2D (ID: Clean2D)

> <knn Distance>
4.35889911651611

> <CpId>
2106

$$$$
2107
  Mrv1532301301811342D          

119126  0  0  0  0            999 V2000
    3.6102    7.3651    0.0000 C   0  0  0  0  0  0  0  0  0  0  0  0
    4.1420    6.7344    0.0000 C   0  0  0  0  0  0  0  0  0  0  0  0
    4.9541    6.8796    0.0000 O   0  0  0  0  0  0  0  0  0  0  0  0
    5.4860    6.2489    0.0000 C   0  0  0  0  0  0  0  0  0  0  0  0
    5.2057    5.4730    0.0000 C   0  0  0  0  0  0  0  0  0  0  0  0
    4.3935    5.3278    0.0000 C   0  0  0  0  0  0  0  0  0  0  0  0
    4.1132    4.5518    0.0000 O   0  0  0  0  0  0  0  0  0  0  0  0
    3.8617    5.9585    0.0000 C   0  0  0  0  0  0  0  0  0  0  0  0
    3.0496    5.8133    0.0000 O   0  0  0  0  0  0  0  0  0  0  0  0
    6.2981    6.3941    0.0000 O   0  0  0  0  0  0  0  0  0  0  0  0
    6.8299    5.7634    0.0000 C   0  0  0  0  0  0  0  0  0  0  0  0
    7.6420    5.9086    0.0000 C   0  0  0  0  0  0  0  0  0  0  0  0
    7.9223    6.6846    0.0000 O   0  0  0  0  0  0  0  0  0  0  0  0
    8.1738    5.2779    0.0000 C   0  0  0  0  0  0  0  0  0  0  0  0
    7.8935    4.5020    0.0000 C   0  0  0  0  0  0  0  0  0  0  0  0
    8.4254    3.8713    0.0000 O   0  0  0  0  0  0  0  0  0  0  0  0
    8.1451    3.0954    0.0000 C   0  0  0  0  0  0  0  0  0  0  0  0
    8.6769    2.4647    0.0000 C   0  0  0  0  0  0  0  0  0  0  0  0
    9.4890    2.6099    0.0000 O   0  0  0  0  0  0  0  0  0  0  0  0
    8.3966    1.6887    0.0000 C   0  0  0  0  0  0  0  0  0  0  0  0
    7.5845    1.5435    0.0000 C   0  0  0  0  0  0  0  0  0  0  0  0
    7.3042    0.7676    0.0000 O   0  0  0  0  0  0  0  0  0  0  0  0
    6.4920    0.6224    0.0000 C   0  0  0  0  0  0  0  0  0  0  0  0
    6.2117   -0.1535    0.0000 C   0  0  0  0  0  0  0  0  0  0  0  0
    5.3996   -0.2988    0.0000 C   0  0  0  0  0  0  0  0  0  0  0  0
    4.8678    0.3320    0.0000 C   0  0  0  0  0  0  0  0  0  0  0  0
    4.5875   -0.4440    0.0000 C   0  0  0  0  0  0  0  0  0  0  0  0
    5.1481    1.1079    0.0000 C   0  0  0  0  0  0  0  0  0  0  0  0
    4.6163    1.7386    0.0000 C   0  0  0  0  0  0  0  0  0  0  0  0
    3.8042    1.5934    0.0000 C   0  0  0  0  0  0  0  0  0  0  0  0
    3.5239    0.8174    0.0000 C   0  0  0  0  0  0  0  0  0  0  0  0
    4.0557    0.1867    0.0000 C   0  0  0  0  0  0  0  0  0  0  0  0
    3.7754   -0.5892    0.0000 C   0  0  0  0  0  0  0  0  0  0  0  0
    2.9633   -0.7344    0.0000 C   0  0  0  0  0  0  0  0  0  0  0  0
    2.6830   -1.5103    0.0000 O   0  0  0  0  0  0  0  0  0  0  0  0
    2.4314   -0.1037    0.0000 C   0  0  0  0  0  0  0  0  0  0  0  0
    2.0716   -0.8461    0.0000 C   0  0  0  0  0  0  0  0  0  0  0  0
    1.6069   -0.0769    0.0000 C   0  0  0  0  0  0  0  0  0  0  0  0
    1.3776    0.7156    0.0000 C   0  0  0  0  0  0  0  0  0  0  0  0
    2.0604    1.1786    0.0000 C   0  0  0  0  0  0  0  0  0  0  0  0
    2.7117    0.6722    0.0000 C   0  0  0  0  0  0  0  0  0  0  0  0
    2.9094    1.4732    0.0000 O   0  0  0  0  0  0  0  0  0  0  0  0
    1.1005   -0.7282    0.0000 C   0  0  0  0  0  0  0  0  0  0  0  0
    1.3298   -1.5207    0.0000 C   0  0  0  0  0  0  0  0  0  0  0  0
    0.6470   -1.9837    0.0000 C   0  0  0  0  0  0  0  0  0  0  0  0
    0.6202   -2.8083    0.0000 O   0  0  0  0  0  0  0  0  0  0  0  0
   -0.0043   -1.4773    0.0000 O   0  0  0  0  0  0  0  0  0  0  0  0
    0.2760   -0.7014    0.0000 C   0  0  0  0  0  0  0  0  0  0  0  0
    5.9602    1.2531    0.0000 C   0  0  0  0  0  0  0  0  0  0  0  0
    7.0526    2.1742    0.0000 O   0  0  0  0  0  0  0  0  0  0  0  0
    7.3329    2.9502    0.0000 C   0  0  0  0  0  0  0  0  0  0  0  0
    6.8011    3.5809    0.0000 C   0  0  0  0  0  0  0  0  0  0  0  0
    7.0814    4.3568    0.0000 O   0  0  0  0  0  0  0  0  0  0  0  0
    6.5496    4.9875    0.0000 C   0  0  0  0  0  0  0  0  0  0  0  0
    5.7375    4.8423    0.0000 C   0  0  0  0  0  0  0  0  0  0  0  0
    4.2409    7.8969    0.0000 H   0  0  0  0  0  0  0  0  0  0  0  0
    3.0784    7.9958    0.0000 H   0  0  0  0  0  0  0  0  0  0  0  0
    2.9795    6.8333    0.0000 H   0  0  0  0  0  0  0  0  0  0  0  0
    3.3299    6.5892    0.0000 H   0  0  0  0  0  0  0  0  0  0  0  0
    6.0178    5.6182    0.0000 H   0  0  0  0  0  0  0  0  0  0  0  0
    4.9254    4.6971    0.0000 H   0  0  0  0  0  0  0  0  0  0  0  0
    4.6738    6.1037    0.0000 H   0  0  0  0  0  0  0  0  0  0  0  0
    3.5814    5.1826    0.0000 H   0  0  0  0  0  0  0  0  0  0  0  0
    3.8329    3.7759    0.0000 H   0  0  0  0  0  0  0  0  0  0  0  0
    3.0858    6.2388    0.0000 H   0  0  0  0  0  0  0  0  0  0  0  0
    2.2634    5.5633    0.0000 H   0  0  0  0  0  0  0  0  0  0  0  0
    7.1102    6.5393    0.0000 H   0  0  0  0  0  0  0  0  0  0  0  0
    8.4541    6.0538    0.0000 H   0  0  0  0  0  0  0  0  0  0  0  0
    8.2026    7.4605    0.0000 H   0  0  0  0  0  0  0  0  0  0  0  0
    8.8071    4.7491    0.0000 H   0  0  0  0  0  0  0  0  0  0  0  0
    8.9988    5.2799    0.0000 H   0  0  0  0  0  0  0  0  0  0  0  0
    7.6132    3.7261    0.0000 H   0  0  0  0  0  0  0  0  0  0  0  0
    8.9572    3.2406    0.0000 H   0  0  0  0  0  0  0  0  0  0  0  0
    9.2087    1.8340    0.0000 H   0  0  0  0  0  0  0  0  0  0  0  0
   10.3011    2.7551    0.0000 H   0  0  0  0  0  0  0  0  0  0  0  0
    8.2553    0.8759    0.0000 H   0  0  0  0  0  0  0  0  0  0  0  0
    8.8108    0.9753    0.0000 H   0  0  0  0  0  0  0  0  0  0  0  0
    6.7723    1.3983    0.0000 H   0  0  0  0  0  0  0  0  0  0  0  0
    7.0239   -0.0083    0.0000 H   0  0  0  0  0  0  0  0  0  0  0  0
    6.0704   -0.9664    0.0000 H   0  0  0  0  0  0  0  0  0  0  0  0
    6.6260   -0.8670    0.0000 H   0  0  0  0  0  0  0  0  0  0  0  0
    5.1534   -1.0862    0.0000 H   0  0  0  0  0  0  0  0  0  0  0  0
    5.6799    0.4772    0.0000 H   0  0  0  0  0  0  0  0  0  0  0  0
    3.9597   -0.9792    0.0000 H   0  0  0  0  0  0  0  0  0  0  0  0
    4.3157   -1.2229    0.0000 H   0  0  0  0  0  0  0  0  0  0  0  0
    4.7460   -1.2536    0.0000 H   0  0  0  0  0  0  0  0  0  0  0  0
    5.4284    1.8838    0.0000 H   0  0  0  0  0  0  0  0  0  0  0  0
    4.7576    2.5514    0.0000 H   0  0  0  0  0  0  0  0  0  0  0  0
    4.2021    2.4521    0.0000 H   0  0  0  0  0  0  0  0  0  0  0  0
    3.3147    2.2575    0.0000 H   0  0  0  0  0  0  0  0  0  0  0  0
    4.3360    0.9627    0.0000 H   0  0  0  0  0  0  0  0  0  0  0  0
    3.2436    0.0415    0.0000 H   0  0  0  0  0  0  0  0  0  0  0  0
    4.2009   -0.6254    0.0000 H   0  0  0  0  0  0  0  0  0  0  0  0
    3.1940   -1.1745    0.0000 H   0  0  0  0  0  0  0  0  0  0  0  0
    3.6356   -1.4023    0.0000 H   0  0  0  0  0  0  0  0  0  0  0  0
    2.3188   -1.2495    0.0000 H   0  0  0  0  0  0  0  0  0  0  0  0
    2.4754   -2.3088    0.0000 H   0  0  0  0  0  0  0  0  0  0  0  0
    1.2703   -0.6497    0.0000 H   0  0  0  0  0  0  0  0  0  0  0  0
    1.3668   -1.2749    0.0000 H   0  0  0  0  0  0  0  0  0  0  0  0
    1.8778   -1.6480    0.0000 H   0  0  0  0  0  0  0  0  0  0  0  0
    0.7967    0.0786    0.0000 H   0  0  0  0  0  0  0  0  0  0  0  0
    1.1037    1.4938    0.0000 H   0  0  0  0  0  0  0  0  0  0  0  0
    0.6465    1.0980    0.0000 H   0  0  0  0  0  0  0  0  0  0  0  0
    1.9889    2.0005    0.0000 H   0  0  0  0  0  0  0  0  0  0  0  0
    1.4444    1.7273    0.0000 H   0  0  0  0  0  0  0  0  0  0  0  0
    2.3692    2.0967    0.0000 H   0  0  0  0  0  0  0  0  0  0  0  0
    1.4806   -2.3318    0.0000 H   0  0  0  0  0  0  0  0  0  0  0  0
   -0.2725   -0.0851    0.0000 H   0  0  0  0  0  0  0  0  0  0  0  0
   -0.5456   -0.6259    0.0000 H   0  0  0  0  0  0  0  0  0  0  0  0
    6.4890    1.8864    0.0000 H   0  0  0  0  0  0  0  0  0  0  0  0
    5.9582    2.0781    0.0000 H   0  0  0  0  0  0  0  0  0  0  0  0
    7.8648    2.3194    0.0000 H   0  0  0  0  0  0  0  0  0  0  0  0
    6.2693    4.2116    0.0000 H   0  0  0  0  0  0  0  0  0  0  0  0
    5.9890    3.4356    0.0000 H   0  0  0  0  0  0  0  0  0  0  0  0
    6.5208    2.8049    0.0000 H   0  0  0  0  0  0  0  0  0  0  0  0
    7.3617    5.1327    0.0000 H   0  0  0  0  0  0  0  0  0  0  0  0
    5.1068    4.3105    0.0000 H   0  0  0  0  0  0  0  0  0  0  0  0
    5.4572    4.0664    0.0000 H   0  0  0  0  0  0  0  0  0  0  0  0
    5.8827    4.0302    0.0000 H   0  0  0  0  0  0  0  0  0  0  0  0
  1  2  1  0  0  0  0
  2  3  1  0  0  0  0
  3  4  1  0  0  0  0
  4  5  1  0  0  0  0
  5  6  1  0  0  0  0
  6  7  1  0  0  0  0
  6  8  1  0  0  0  0
  2  8  1  0  0  0  0
  8  9  1  0  0  0  0
  4 10  1  0  0  0  0
 10 11  1  0  0  0  0
 11 12  1  0  0  0  0
 12 13  1  0  0  0  0
 12 14  1  0  0  0  0
 14 15  1  0  0  0  0
 15 16  1  0  0  0  0
 16 17  1  0  0  0  0
 17 18  1  0  0  0  0
 18 19  1  0  0  0  0
 18 20  1  0  0  0  0
 20 21  1  0  0  0  0
 21 22  1  0  0  0  0
 22 23  1  0  0  0  0
 23 24  1  0  0  0  0
 24 25  1  0  0  0  0
 25 26  1  0  0  0  0
 26 27  1  0  0  0  0
 26 28  1  0  0  0  0
 28 29  1  0  0  0  0
 29 30  1  0  0  0  0
 30 31  1  0  0  0  0
 31 32  1  0  0  0  0
 26 32  1  0  0  0  0
 32 33  1  0  0  0  0
 33 34  1  0  0  0  0
 34 35  1  0  0  0  0
 34 36  1  0  0  0  0
 36 37  1  0  0  0  0
 36 38  1  0  0  0  0
 38 39  1  0  0  0  0
 39 40  1  0  0  0  0
 40 41  1  0  0  0  0
 31 41  1  0  0  0  0
 36 41  1  0  0  0  0
 41 42  1  0  0  0  0
 38 43  1  0  0  0  0
 43 44  2  0  0  0  0
 44 45  1  0  0  0  0
 45 46  2  0  0  0  0
 45 47  1  0  0  0  0
 47 48  1  0  0  0  0
 43 48  1  0  0  0  0
 28 49  1  0  0  0  0
 23 49  1  0  0  0  0
 21 50  1  0  0  0  0
 50 51  1  0  0  0  0
 17 51  1  0  0  0  0
 51 52  1  0  0  0  0
 15 53  1  0  0  0  0
 53 54  1  0  0  0  0
 11 54  1  0  0  0  0
 54 55  1  0  0  0  0
  1 56  1  0  0  0  0
  1 57  1  0  0  0  0
  1 58  1  0  0  0  0
  2 59  1  0  0  0  0
  4 60  1  0  0  0  0
  5 61  1  0  0  0  0
  5 62  1  0  0  0  0
  6 63  1  0  0  0  0
  7 64  1  0  0  0  0
  8 65  1  0  0  0  0
  9 66  1  0  0  0  0
 11 67  1  0  0  0  0
 12 68  1  0  0  0  0
 13 69  1  0  0  0  0
 14 70  1  0  0  0  0
 14 71  1  0  0  0  0
 15 72  1  0  0  0  0
 17 73  1  0  0  0  0
 18 74  1  0  0  0  0
 19 75  1  0  0  0  0
 20 76  1  0  0  0  0
 20 77  1  0  0  0  0
 21 78  1  0  0  0  0
 23 79  1  0  0  0  0
 24 80  1  0  0  0  0
 24 81  1  0  0  0  0
 25 82  1  0  0  0  0
 25 83  1  0  0  0  0
 27 84  1  0  0  0  0
 27 85  1  0  0  0  0
 27 86  1  0  0  0  0
 28 87  1  0  0  0  0
 29 88  1  0  0  0  0
 29 89  1  0  0  0  0
 30 90  1  0  0  0  0
 30 91  1  0  0  0  0
 31 92  1  0  0  0  0
 32 93  1  0  0  0  0
 33 94  1  0  0  0  0
 33 95  1  0  0  0  0
 34 96  1  0  0  0  0
 35 97  1  0  0  0  0
 37 98  1  0  0  0  0
 37 99  1  0  0  0  0
 37100  1  0  0  0  0
 38101  1  0  0  0  0
 39102  1  0  0  0  0
 39103  1  0  0  0  0
 40104  1  0  0  0  0
 40105  1  0  0  0  0
 42106  1  0  0  0  0
 44107  1  0  0  0  0
 48108  1  0  0  0  0
 48109  1  0  0  0  0
 49110  1  0  0  0  0
 49111  1  0  0  0  0
 51112  1  0  0  0  0
 52113  1  0  0  0  0
 52114  1  0  0  0  0
 52115  1  0  0  0  0
 54116  1  0  0  0  0
 55117  1  0  0  0  0
 55118  1  0  0  0  0
 55119  1  0  0  0  0
M  END
>  <InChIKey>
InChI=1S/C41H64O14/c1-19-36(47)28(42)15-34(50-19)54-38-21(3)52-35(17-30(38)44)55-37-20(2)51-33(16-29(37)43)53-24-8-10-39(4)23(13-24)6-7-26-27(39)14-31(45)40(5)25(9-11-41(26,40)48)22-12-32(46)49-18-22/h12,19-21,23-31,33-38,42-45,47-48H,6-11,13-18H2,1-5H3

>  <CASRN>
20830-75-5

> <Outcome>
0

>  <Index>
2107

>  <StandardizerResult>
Clear Stereo (ID: ClearStereo)
Wedge Clean (ID: WedgeClean)
Mesomerize (ID: Mesomerize)
Tautomerize (ID: Tautomerize)
Add Explicit Hydrogens (ID: AddExplicitH)
Neutralize (ID: Neutralize)
Clean 2D (ID: Clean2D)

> <knn Distance>
4.35889911651611

> <CpId>
2107

$$$$
2166
  Mrv1532301301811342D          

 54 57  0  0  0  0            999 V2000
    3.5002   -3.2380    0.0000 C   0  0  0  0  0  0  0  0  0  0  0  0
    3.8601   -2.4957    0.0000 C   0  0  0  0  0  0  0  0  0  0  0  0
    4.3919   -3.1264    0.0000 C   0  0  0  0  0  0  0  0  0  0  0  0
    5.2040   -2.9811    0.0000 C   0  0  0  0  0  0  0  0  0  0  0  0
    5.7358   -3.6119    0.0000 O   0  0  0  0  0  0  0  0  0  0  0  0
    5.4843   -2.2052    0.0000 C   0  0  0  0  0  0  0  0  0  0  0  0
    4.9525   -1.5745    0.0000 C   0  0  0  0  0  0  0  0  0  0  0  0
    5.2328   -0.7986    0.0000 C   0  0  0  0  0  0  0  0  0  0  0  0
    6.0449   -0.6534    0.0000 C   0  0  0  0  0  0  0  0  0  0  0  0
    6.5767   -1.2841    0.0000 C   0  0  0  0  0  0  0  0  0  0  0  0
    7.3889   -1.1389    0.0000 C   0  0  0  0  0  0  0  0  0  0  0  0
    7.9207   -1.7696    0.0000 C   0  0  0  0  0  0  0  0  0  0  0  0
    8.7328   -1.6244    0.0000 O   0  0  0  0  0  0  0  0  0  0  0  0
    7.6404   -2.5455    0.0000 C   0  0  0  0  0  0  0  0  0  0  0  0
    6.8283   -2.6907    0.0000 C   0  0  0  0  0  0  0  0  0  0  0  0
    6.2964   -2.0600    0.0000 C   0  0  0  0  0  0  0  0  0  0  0  0
    6.0161   -2.8359    0.0000 C   0  0  0  0  0  0  0  0  0  0  0  0
    4.1404   -1.7197    0.0000 C   0  0  0  0  0  0  0  0  0  0  0  0
    3.4890   -1.2134    0.0000 C   0  0  0  0  0  0  0  0  0  0  0  0
    2.8062   -1.6764    0.0000 C   0  0  0  0  0  0  0  0  0  0  0  0
    3.0355   -2.4688    0.0000 C   0  0  0  0  0  0  0  0  0  0  0  0
    2.2746   -2.7877    0.0000 O   0  0  0  0  0  0  0  0  0  0  0  0
    2.9141   -3.2849    0.0000 C   0  0  0  0  0  0  0  0  0  0  0  0
    3.5601   -3.7980    0.0000 O   0  0  0  0  0  0  0  0  0  0  0  0
    2.1467   -3.5877    0.0000 C   0  0  0  0  0  0  0  0  0  0  0  0
    2.0253   -4.4038    0.0000 O   0  0  0  0  0  0  0  0  0  0  0  0
    3.8985   -3.9605    0.0000 H   0  0  0  0  0  0  0  0  0  0  0  0
    4.1469   -3.7502    0.0000 H   0  0  0  0  0  0  0  0  0  0  0  0
    4.2947   -3.4602    0.0000 H   0  0  0  0  0  0  0  0  0  0  0  0
    4.6722   -2.3504    0.0000 H   0  0  0  0  0  0  0  0  0  0  0  0
    4.9434   -3.7399    0.0000 H   0  0  0  0  0  0  0  0  0  0  0  0
    5.7646   -1.4293    0.0000 H   0  0  0  0  0  0  0  0  0  0  0  0
    4.4207   -0.9438    0.0000 H   0  0  0  0  0  0  0  0  0  0  0  0
    5.3741    0.0142    0.0000 H   0  0  0  0  0  0  0  0  0  0  0  0
    4.8186   -0.0851    0.0000 H   0  0  0  0  0  0  0  0  0  0  0  0
    6.8094   -0.3432    0.0000 H   0  0  0  0  0  0  0  0  0  0  0  0
    6.4170    0.0830    0.0000 H   0  0  0  0  0  0  0  0  0  0  0  0
    7.6692   -0.3629    0.0000 H   0  0  0  0  0  0  0  0  0  0  0  0
    7.8326   -3.3478    0.0000 H   0  0  0  0  0  0  0  0  0  0  0  0
    8.3987   -2.8704    0.0000 H   0  0  0  0  0  0  0  0  0  0  0  0
    6.6870   -3.5035    0.0000 H   0  0  0  0  0  0  0  0  0  0  0  0
    7.2425   -3.4042    0.0000 H   0  0  0  0  0  0  0  0  0  0  0  0
    6.0421   -3.6605    0.0000 H   0  0  0  0  0  0  0  0  0  0  0  0
    6.3447   -3.5927    0.0000 H   0  0  0  0  0  0  0  0  0  0  0  0
    5.3854   -3.3678    0.0000 H   0  0  0  0  0  0  0  0  0  0  0  0
    3.3479   -1.9490    0.0000 H   0  0  0  0  0  0  0  0  0  0  0  0
    3.4439   -0.3896    0.0000 H   0  0  0  0  0  0  0  0  0  0  0  0
    2.8843   -0.6522    0.0000 H   0  0  0  0  0  0  0  0  0  0  0  0
    2.2527   -1.0646    0.0000 H   0  0  0  0  0  0  0  0  0  0  0  0
    1.9895   -1.7931    0.0000 H   0  0  0  0  0  0  0  0  0  0  0  0
    1.6261   -2.2778    0.0000 H   0  0  0  0  0  0  0  0  0  0  0  0
    1.4241   -3.1898    0.0000 H   0  0  0  0  0  0  0  0  0  0  0  0
    1.3377   -3.7493    0.0000 H   0  0  0  0  0  0  0  0  0  0  0  0
    2.2936   -5.1839    0.0000 H   0  0  0  0  0  0  0  0  0  0  0  0
  1  2  1  0  0  0  0
  2  3  1  0  0  0  0
  3  4  1  0  0  0  0
  4  5  2  0  0  0  0
  4  6  1  0  0  0  0
  6  7  1  0  0  0  0
  7  8  1  0  0  0  0
  8  9  1  0  0  0  0
  9 10  1  0  0  0  0
 10 11  2  0  0  0  0
 11 12  1  0  0  0  0
 12 13  2  0  0  0  0
 12 14  1  0  0  0  0
 14 15  1  0  0  0  0
 15 16  1  0  0  0  0
  6 16  1  0  0  0  0
 10 16  1  0  0  0  0
 16 17  1  0  0  0  0
  7 18  1  0  0  0  0
  2 18  1  0  0  0  0
 18 19  1  0  0  0  0
 19 20  1  0  0  0  0
 20 21  1  0  0  0  0
  2 21  1  0  0  0  0
 21 22  1  0  0  0  0
 21 23  1  0  0  0  0
 23 24  2  0  0  0  0
 23 25  1  0  0  0  0
 25 26  1  0  0  0  0
  1 27  1  0  0  0  0
  1 28  1  0  0  0  0
  1 29  1  0  0  0  0
  3 30  1  0  0  0  0
  3 31  1  0  0  0  0
  6 32  1  0  0  0  0
  7 33  1  0  0  0  0
  8 34  1  0  0  0  0
  8 35  1  0  0  0  0
  9 36  1  0  0  0  0
  9 37  1  0  0  0  0
 11 38  1  0  0  0  0
 14 39  1  0  0  0  0
 14 40  1  0  0  0  0
 15 41  1  0  0  0  0
 15 42  1  0  0  0  0
 17 43  1  0  0  0  0
 17 44  1  0  0  0  0
 17 45  1  0  0  0  0
 18 46  1  0  0  0  0
 19 47  1  0  0  0  0
 19 48  1  0  0  0  0
 20 49  1  0  0  0  0
 20 50  1  0  0  0  0
 22 51  1  0  0  0  0
 25 52  1  0  0  0  0
 25 53  1  0  0  0  0
 26 54  1  0  0  0  0
M  END
>  <InChIKey>
InChI=1S/C21H28O5/c1-19-7-5-13(23)9-12(19)3-4-14-15-6-8-21(26,17(25)11-22)20(15,2)10-16(24)18(14)19/h9,14-15,18,22,26H,3-8,10-11H2,1-2H3

>  <CASRN>
53-06-5

> <Outcome>
0

>  <Index>
2166

>  <StandardizerResult>
Clear Stereo (ID: ClearStereo)
Wedge Clean (ID: WedgeClean)
Mesomerize (ID: Mesomerize)
Tautomerize (ID: Tautomerize)
Add Explicit Hydrogens (ID: AddExplicitH)
Neutralize (ID: Neutralize)
Clean 2D (ID: Clean2D)

> <knn Distance>
4.35889911651611

> <CpId>
2166

$$$$
2282
  Mrv1532301301811342D          

 20 20  0  0  0  0            999 V2000
    0.0191    1.7256    0.0000 N   0  0  0  0  0  0  0  0  0  0  0  0
    0.5711    1.1125    0.0000 C   0  0  0  0  0  0  0  0  0  0  0  0
    1.2386    0.6276    0.0000 C   0  0  0  0  0  0  0  0  0  0  0  0
    0.9836   -0.1570    0.0000 C   0  0  0  0  0  0  0  0  0  0  0  0
    0.1586   -0.1570    0.0000 C   0  0  0  0  0  0  0  0  0  0  0  0
   -0.0963    0.6276    0.0000 C   0  0  0  0  0  0  0  0  0  0  0  0
    1.1232    1.7256    0.0000 C   0  0  0  0  0  0  0  0  0  0  0  0
    0.8682    2.5103    0.0000 O   0  0  0  0  0  0  0  0  0  0  0  0
    1.9301    1.5541    0.0000 O   0  0  0  0  0  0  0  0  0  0  0  0
    0.2740    2.5103    0.0000 H   0  0  0  0  0  0  0  0  0  0  0  0
   -0.7879    1.5541    0.0000 H   0  0  0  0  0  0  0  0  0  0  0  0
    2.0510    0.4844    0.0000 H   0  0  0  0  0  0  0  0  0  0  0  0
    1.8117    1.2211    0.0000 H   0  0  0  0  0  0  0  0  0  0  0  0
    1.0984   -0.9740    0.0000 H   0  0  0  0  0  0  0  0  0  0  0  0
    1.7251   -0.5187    0.0000 H   0  0  0  0  0  0  0  0  0  0  0  0
   -0.5829   -0.5187    0.0000 H   0  0  0  0  0  0  0  0  0  0  0  0
    0.0438   -0.9740    0.0000 H   0  0  0  0  0  0  0  0  0  0  0  0
   -0.6694    1.2211    0.0000 H   0  0  0  0  0  0  0  0  0  0  0  0
   -0.9088    0.4844    0.0000 H   0  0  0  0  0  0  0  0  0  0  0  0
    1.3531    3.1777    0.0000 H   0  0  0  0  0  0  0  0  0  0  0  0
  1  2  1  0  0  0  0
  2  3  1  0  0  0  0
  3  4  1  0  0  0  0
  4  5  1  0  0  0  0
  5  6  1  0  0  0  0
  2  6  1  0  0  0  0
  2  7  1  0  0  0  0
  7  8  1  0  0  0  0
  7  9  2  0  0  0  0
  1 10  1  0  0  0  0
  1 11  1  0  0  0  0
  3 12  1  0  0  0  0
  3 13  1  0  0  0  0
  4 14  1  0  0  0  0
  4 15  1  0  0  0  0
  5 16  1  0  0  0  0
  5 17  1  0  0  0  0
  6 18  1  0  0  0  0
  6 19  1  0  0  0  0
  8 20  1  0  0  0  0
M  END
>  <InChIKey>
InChI=1S/C6H11NO2/c7-6(5(8)9)3-1-2-4-6/h1-4,7H2,(H,8,9)

>  <CASRN>
52-52-8

> <Outcome>
0

>  <Index>
2282

>  <StandardizerResult>
Clear Stereo (ID: ClearStereo)
Wedge Clean (ID: WedgeClean)
Mesomerize (ID: Mesomerize)
Tautomerize (ID: Tautomerize)
Add Explicit Hydrogens (ID: AddExplicitH)
Neutralize (ID: Neutralize)
Clean 2D (ID: Clean2D)

> <knn Distance>
4.35889911651611

> <CpId>
2282

$$$$
2287
  Mrv1532301301811342D          

 32 32  0  0  0  0            999 V2000
    2.8579    3.2894    0.0000 Br  0  0  0  0  0  0  0  0  0  0  0  0
    2.8579    2.4644    0.0000 C   0  0  0  0  0  0  0  0  0  0  0  0
    2.1434    2.0519    0.0000 C   0  0  0  0  0  0  0  0  0  0  0  0
    2.1434    1.2269    0.0000 C   0  0  0  0  0  0  0  0  0  0  0  0
    2.8579    0.8144    0.0000 O   0  0  0  0  0  0  0  0  0  0  0  0
    1.4289    0.8144    0.0000 N   0  0  0  0  0  0  0  0  0  0  0  0
    1.4289   -0.0106    0.0000 C   0  0  0  0  0  0  0  0  0  0  0  0
    0.7145   -0.4231    0.0000 C   0  0  0  0  0  0  0  0  0  0  0  0
   -0.0000   -0.0106    0.0000 N   0  0  0  0  0  0  0  0  0  0  0  0
   -0.0000    0.8144    0.0000 C   0  0  0  0  0  0  0  0  0  0  0  0
    0.7145    1.2269    0.0000 C   0  0  0  0  0  0  0  0  0  0  0  0
   -0.7145   -0.4231    0.0000 C   0  0  0  0  0  0  0  0  0  0  0  0
   -1.4290   -0.0106    0.0000 O   0  0  0  0  0  0  0  0  0  0  0  0
   -0.7145   -1.2481    0.0000 C   0  0  0  0  0  0  0  0  0  0  0  0
   -1.4290   -1.6606    0.0000 C   0  0  0  0  0  0  0  0  0  0  0  0
   -1.4290   -2.4856    0.0000 Br  0  0  0  0  0  0  0  0  0  0  0  0
    3.3112    1.7751    0.0000 H   0  0  0  0  0  0  0  0  0  0  0  0
    3.6815    2.4164    0.0000 H   0  0  0  0  0  0  0  0  0  0  0  0
    1.6901    2.7412    0.0000 H   0  0  0  0  0  0  0  0  0  0  0  0
    1.3198    2.0999    0.0000 H   0  0  0  0  0  0  0  0  0  0  0  0
    1.8823   -0.6999    0.0000 H   0  0  0  0  0  0  0  0  0  0  0  0
    2.2525   -0.0586    0.0000 H   0  0  0  0  0  0  0  0  0  0  0  0
    0.3442   -1.1603    0.0000 H   0  0  0  0  0  0  0  0  0  0  0  0
    1.0847   -1.1603    0.0000 H   0  0  0  0  0  0  0  0  0  0  0  0
   -0.4534    1.5037    0.0000 H   0  0  0  0  0  0  0  0  0  0  0  0
   -0.8236    0.8624    0.0000 H   0  0  0  0  0  0  0  0  0  0  0  0
    1.0847    1.9642    0.0000 H   0  0  0  0  0  0  0  0  0  0  0  0
    0.3442    1.9642    0.0000 H   0  0  0  0  0  0  0  0  0  0  0  0
   -0.2611   -1.9374    0.0000 H   0  0  0  0  0  0  0  0  0  0  0  0
    0.1091   -1.2961    0.0000 H   0  0  0  0  0  0  0  0  0  0  0  0
   -1.8823   -0.9713    0.0000 H   0  0  0  0  0  0  0  0  0  0  0  0
   -2.2526   -1.6126    0.0000 H   0  0  0  0  0  0  0  0  0  0  0  0
  1  2  1  0  0  0  0
  2  3  1  0  0  0  0
  3  4  1  0  0  0  0
  4  5  2  0  0  0  0
  4  6  1  0  0  0  0
  6  7  1  0  0  0  0
  7  8  1  0  0  0  0
  8  9  1  0  0  0  0
  9 10  1  0  0  0  0
 10 11  1  0  0  0  0
  6 11  1  0  0  0  0
  9 12  1  0  0  0  0
 12 13  2  0  0  0  0
 12 14  1  0  0  0  0
 14 15  1  0  0  0  0
 15 16  1  0  0  0  0
  2 17  1  0  0  0  0
  2 18  1  0  0  0  0
  3 19  1  0  0  0  0
  3 20  1  0  0  0  0
  7 21  1  0  0  0  0
  7 22  1  0  0  0  0
  8 23  1  0  0  0  0
  8 24  1  0  0  0  0
 10 25  1  0  0  0  0
 10 26  1  0  0  0  0
 11 27  1  0  0  0  0
 11 28  1  0  0  0  0
 14 29  1  0  0  0  0
 14 30  1  0  0  0  0
 15 31  1  0  0  0  0
 15 32  1  0  0  0  0
M  END
>  <InChIKey>
InChI=1S/C10H16Br2N2O2/c11-3-1-9(15)13-5-7-14(8-6-13)10(16)2-4-12/h1-8H2

>  <CASRN>
54-91-1

> <Outcome>
0

>  <Index>
2287

>  <StandardizerResult>
Clear Stereo (ID: ClearStereo)
Wedge Clean (ID: WedgeClean)
Mesomerize (ID: Mesomerize)
Tautomerize (ID: Tautomerize)
Add Explicit Hydrogens (ID: AddExplicitH)
Neutralize (ID: Neutralize)
Clean 2D (ID: Clean2D)

> <knn Distance>
4.35889911651611

> <CpId>
2287

$$$$
2318
  Mrv1532301301811342D          

124131  0  0  0  0            999 V2000
    9.4703    2.5507    0.0000 C   0  0  0  0  0  0  0  0  0  0  0  0
    8.6582    2.4055    0.0000 C   0  0  0  0  0  0  0  0  0  0  0  0
    8.3779    1.6295    0.0000 O   0  0  0  0  0  0  0  0  0  0  0  0
    7.5657    1.4843    0.0000 C   0  0  0  0  0  0  0  0  0  0  0  0
    7.0339    2.1150    0.0000 C   0  0  0  0  0  0  0  0  0  0  0  0
    7.3142    2.8910    0.0000 C   0  0  0  0  0  0  0  0  0  0  0  0
    6.7824    3.5217    0.0000 O   0  0  0  0  0  0  0  0  0  0  0  0
    8.1263    3.0362    0.0000 C   0  0  0  0  0  0  0  0  0  0  0  0
    8.4066    3.8121    0.0000 O   0  0  0  0  0  0  0  0  0  0  0  0
    7.8748    4.4428    0.0000 C   0  0  0  0  0  0  0  0  0  0  0  0
    7.0627    4.2976    0.0000 C   0  0  0  0  0  0  0  0  0  0  0  0
    6.5309    4.9283    0.0000 C   0  0  0  0  0  0  0  0  0  0  0  0
    5.7188    4.7831    0.0000 O   0  0  0  0  0  0  0  0  0  0  0  0
    6.8112    5.7042    0.0000 C   0  0  0  0  0  0  0  0  0  0  0  0
    6.2794    6.3349    0.0000 O   0  0  0  0  0  0  0  0  0  0  0  0
    6.5597    7.1108    0.0000 C   0  0  0  0  0  0  0  0  0  0  0  0
    6.0278    7.7416    0.0000 C   0  0  0  0  0  0  0  0  0  0  0  0
    6.3081    8.5175    0.0000 C   0  0  0  0  0  0  0  0  0  0  0  0
    5.7763    9.1482    0.0000 O   0  0  0  0  0  0  0  0  0  0  0  0
    7.1203    8.6627    0.0000 C   0  0  0  0  0  0  0  0  0  0  0  0
    7.4006    9.4386    0.0000 O   0  0  0  0  0  0  0  0  0  0  0  0
    8.2127    9.5838    0.0000 C   0  0  0  0  0  0  0  0  0  0  0  0
    8.4930   10.3598    0.0000 C   0  0  0  0  0  0  0  0  0  0  0  0
    8.7445    8.9531    0.0000 O   0  0  0  0  0  0  0  0  0  0  0  0
    7.6521    8.0320    0.0000 C   0  0  0  0  0  0  0  0  0  0  0  0
    8.4642    8.1772    0.0000 C   0  0  0  0  0  0  0  0  0  0  0  0
    7.3718    7.2561    0.0000 O   0  0  0  0  0  0  0  0  0  0  0  0
    7.6233    5.8494    0.0000 C   0  0  0  0  0  0  0  0  0  0  0  0
    7.9036    6.6254    0.0000 C   0  0  0  0  0  0  0  0  0  0  0  0
    8.1551    5.2187    0.0000 O   0  0  0  0  0  0  0  0  0  0  0  0
    7.2854    0.7084    0.0000 O   0  0  0  0  0  0  0  0  0  0  0  0
    6.4733    0.5632    0.0000 C   0  0  0  0  0  0  0  0  0  0  0  0
    6.1930   -0.2127    0.0000 C   0  0  0  0  0  0  0  0  0  0  0  0
    5.3809   -0.3580    0.0000 C   0  0  0  0  0  0  0  0  0  0  0  0
    4.8491    0.2728    0.0000 C   0  0  0  0  0  0  0  0  0  0  0  0
    4.5688   -0.5032    0.0000 C   0  0  0  0  0  0  0  0  0  0  0  0
    5.1294    1.0487    0.0000 C   0  0  0  0  0  0  0  0  0  0  0  0
    4.5976    1.6794    0.0000 C   0  0  0  0  0  0  0  0  0  0  0  0
    3.7855    1.5342    0.0000 C   0  0  0  0  0  0  0  0  0  0  0  0
    3.5052    0.7582    0.0000 C   0  0  0  0  0  0  0  0  0  0  0  0
    4.0370    0.1275    0.0000 C   0  0  0  0  0  0  0  0  0  0  0  0
    3.7567   -0.6484    0.0000 C   0  0  0  0  0  0  0  0  0  0  0  0
    2.9446   -0.7936    0.0000 C   0  0  0  0  0  0  0  0  0  0  0  0
    2.6643   -1.5695    0.0000 O   0  0  0  0  0  0  0  0  0  0  0  0
    2.4127   -0.1629    0.0000 C   0  0  0  0  0  0  0  0  0  0  0  0
    2.0529   -0.9053    0.0000 C   0  0  0  0  0  0  0  0  0  0  0  0
    1.5882   -0.1361    0.0000 C   0  0  0  0  0  0  0  0  0  0  0  0
    1.3589    0.6564    0.0000 C   0  0  0  0  0  0  0  0  0  0  0  0
    2.0417    1.1194    0.0000 C   0  0  0  0  0  0  0  0  0  0  0  0
    2.6930    0.6130    0.0000 C   0  0  0  0  0  0  0  0  0  0  0  0
    2.8907    1.4140    0.0000 O   0  0  0  0  0  0  0  0  0  0  0  0
    1.0818   -0.7874    0.0000 C   0  0  0  0  0  0  0  0  0  0  0  0
    1.3111   -1.5799    0.0000 C   0  0  0  0  0  0  0  0  0  0  0  0
    0.6283   -2.0429    0.0000 C   0  0  0  0  0  0  0  0  0  0  0  0
    0.6015   -2.8675    0.0000 O   0  0  0  0  0  0  0  0  0  0  0  0
   -0.0230   -1.5365    0.0000 O   0  0  0  0  0  0  0  0  0  0  0  0
    0.2573   -0.7606    0.0000 C   0  0  0  0  0  0  0  0  0  0  0  0
    5.9415    1.1939    0.0000 C   0  0  0  0  0  0  0  0  0  0  0  0
    9.6155    1.7386    0.0000 H   0  0  0  0  0  0  0  0  0  0  0  0
   10.2824    2.6959    0.0000 H   0  0  0  0  0  0  0  0  0  0  0  0
    9.3251    3.3628    0.0000 H   0  0  0  0  0  0  0  0  0  0  0  0
    8.9385    3.1814    0.0000 H   0  0  0  0  0  0  0  0  0  0  0  0
    6.7536    1.3391    0.0000 H   0  0  0  0  0  0  0  0  0  0  0  0
    6.4007    2.6438    0.0000 H   0  0  0  0  0  0  0  0  0  0  0  0
    6.2089    2.1130    0.0000 H   0  0  0  0  0  0  0  0  0  0  0  0
    7.5945    3.6669    0.0000 H   0  0  0  0  0  0  0  0  0  0  0  0
    6.0158    3.8265    0.0000 H   0  0  0  0  0  0  0  0  0  0  0  0
    7.8460    2.2602    0.0000 H   0  0  0  0  0  0  0  0  0  0  0  0
    8.6869    4.5880    0.0000 H   0  0  0  0  0  0  0  0  0  0  0  0
    6.2506    4.1524    0.0000 H   0  0  0  0  0  0  0  0  0  0  0  0
    7.3430    5.0735    0.0000 H   0  0  0  0  0  0  0  0  0  0  0  0
    5.9991    5.5590    0.0000 H   0  0  0  0  0  0  0  0  0  0  0  0
    4.9067    4.6379    0.0000 H   0  0  0  0  0  0  0  0  0  0  0  0
    7.0915    6.4801    0.0000 H   0  0  0  0  0  0  0  0  0  0  0  0
    5.7475    6.9656    0.0000 H   0  0  0  0  0  0  0  0  0  0  0  0
    5.3946    8.2703    0.0000 H   0  0  0  0  0  0  0  0  0  0  0  0
    5.2029    7.7396    0.0000 H   0  0  0  0  0  0  0  0  0  0  0  0
    6.5884    9.2934    0.0000 H   0  0  0  0  0  0  0  0  0  0  0  0
    5.2648    9.7955    0.0000 H   0  0  0  0  0  0  0  0  0  0  0  0
    7.9324    8.8079    0.0000 H   0  0  0  0  0  0  0  0  0  0  0  0
    9.2689   10.0795    0.0000 H   0  0  0  0  0  0  0  0  0  0  0  0
    8.7733   11.1357    0.0000 H   0  0  0  0  0  0  0  0  0  0  0  0
    7.7171   10.6401    0.0000 H   0  0  0  0  0  0  0  0  0  0  0  0
    8.1839    7.4013    0.0000 H   0  0  0  0  0  0  0  0  0  0  0  0
    8.8147    7.4303    0.0000 H   0  0  0  0  0  0  0  0  0  0  0  0
    9.2401    7.8969    0.0000 H   0  0  0  0  0  0  0  0  0  0  0  0
    9.2111    8.5277    0.0000 H   0  0  0  0  0  0  0  0  0  0  0  0
    8.4354    5.9946    0.0000 H   0  0  0  0  0  0  0  0  0  0  0  0
    8.7164    6.4841    0.0000 H   0  0  0  0  0  0  0  0  0  0  0  0
    8.6171    7.0396    0.0000 H   0  0  0  0  0  0  0  0  0  0  0  0
    7.7584    7.4375    0.0000 H   0  0  0  0  0  0  0  0  0  0  0  0
    7.0052   -0.0675    0.0000 H   0  0  0  0  0  0  0  0  0  0  0  0
    6.0517   -1.0255    0.0000 H   0  0  0  0  0  0  0  0  0  0  0  0
    6.6073   -0.9262    0.0000 H   0  0  0  0  0  0  0  0  0  0  0  0
    5.1347   -1.1454    0.0000 H   0  0  0  0  0  0  0  0  0  0  0  0
    5.6612    0.4180    0.0000 H   0  0  0  0  0  0  0  0  0  0  0  0
    3.9410   -1.0384    0.0000 H   0  0  0  0  0  0  0  0  0  0  0  0
    4.2970   -1.2821    0.0000 H   0  0  0  0  0  0  0  0  0  0  0  0
    4.7273   -1.3128    0.0000 H   0  0  0  0  0  0  0  0  0  0  0  0
    5.4097    1.8246    0.0000 H   0  0  0  0  0  0  0  0  0  0  0  0
    4.7389    2.4922    0.0000 H   0  0  0  0  0  0  0  0  0  0  0  0
    4.1834    2.3929    0.0000 H   0  0  0  0  0  0  0  0  0  0  0  0
    3.2960    2.1983    0.0000 H   0  0  0  0  0  0  0  0  0  0  0  0
    4.3173    0.9035    0.0000 H   0  0  0  0  0  0  0  0  0  0  0  0
    3.2249   -0.0177    0.0000 H   0  0  0  0  0  0  0  0  0  0  0  0
    4.1822   -0.6846    0.0000 H   0  0  0  0  0  0  0  0  0  0  0  0
    3.1752   -1.2337    0.0000 H   0  0  0  0  0  0  0  0  0  0  0  0
    3.6168   -1.4615    0.0000 H   0  0  0  0  0  0  0  0  0  0  0  0
    2.3001   -1.3087    0.0000 H   0  0  0  0  0  0  0  0  0  0  0  0
    2.4567   -2.3680    0.0000 H   0  0  0  0  0  0  0  0  0  0  0  0
    1.2516   -0.7089    0.0000 H   0  0  0  0  0  0  0  0  0  0  0  0
    1.3481   -1.3341    0.0000 H   0  0  0  0  0  0  0  0  0  0  0  0
    1.8590   -1.7072    0.0000 H   0  0  0  0  0  0  0  0  0  0  0  0
    0.7780    0.0194    0.0000 H   0  0  0  0  0  0  0  0  0  0  0  0
    1.0850    1.4346    0.0000 H   0  0  0  0  0  0  0  0  0  0  0  0
    0.6278    1.0388    0.0000 H   0  0  0  0  0  0  0  0  0  0  0  0
    1.9702    1.9413    0.0000 H   0  0  0  0  0  0  0  0  0  0  0  0
    1.4257    1.6681    0.0000 H   0  0  0  0  0  0  0  0  0  0  0  0
    2.3505    2.0375    0.0000 H   0  0  0  0  0  0  0  0  0  0  0  0
    1.4619   -2.3910    0.0000 H   0  0  0  0  0  0  0  0  0  0  0  0
   -0.2912   -0.1443    0.0000 H   0  0  0  0  0  0  0  0  0  0  0  0
   -0.5643   -0.6851    0.0000 H   0  0  0  0  0  0  0  0  0  0  0  0
    6.5550    1.7455    0.0000 H   0  0  0  0  0  0  0  0  0  0  0  0
    6.7174    0.9136    0.0000 H   0  0  0  0  0  0  0  0  0  0  0  0
  1  2  1  0  0  0  0
  2  3  1  0  0  0  0
  3  4  1  0  0  0  0
  4  5  1  0  0  0  0
  5  6  1  0  0  0  0
  6  7  1  0  0  0  0
  6  8  1  0  0  0  0
  2  8  1  0  0  0  0
  8  9  1  0  0  0  0
  9 10  1  0  0  0  0
 10 11  1  0  0  0  0
 11 12  1  0  0  0  0
 12 13  1  0  0  0  0
 12 14  1  0  0  0  0
 14 15  1  0  0  0  0
 15 16  1  0  0  0  0
 16 17  1  0  0  0  0
 17 18  1  0  0  0  0
 18 19  1  0  0  0  0
 18 20  1  0  0  0  0
 20 21  1  0  0  0  0
 21 22  1  0  0  0  0
 22 23  1  0  0  0  0
 22 24  2  0  0  0  0
 20 25  1  0  0  0  0
 25 26  1  0  0  0  0
 25 27  1  0  0  0  0
 16 27  1  0  0  0  0
 14 28  1  0  0  0  0
 28 29  1  0  0  0  0
 28 30  1  0  0  0  0
 10 30  1  0  0  0  0
  4 31  1  0  0  0  0
 31 32  1  0  0  0  0
 32 33  1  0  0  0  0
 33 34  1  0  0  0  0
 34 35  1  0  0  0  0
 35 36  1  0  0  0  0
 35 37  1  0  0  0  0
 37 38  1  0  0  0  0
 38 39  1  0  0  0  0
 39 40  1  0  0  0  0
 40 41  1  0  0  0  0
 35 41  1  0  0  0  0
 41 42  1  0  0  0  0
 42 43  1  0  0  0  0
 43 44  1  0  0  0  0
 43 45  1  0  0  0  0
 45 46  1  0  0  0  0
 45 47  1  0  0  0  0
 47 48  1  0  0  0  0
 48 49  1  0  0  0  0
 49 50  1  0  0  0  0
 40 50  1  0  0  0  0
 45 50  1  0  0  0  0
 50 51  1  0  0  0  0
 47 52  1  0  0  0  0
 52 53  2  0  0  0  0
 53 54  1  0  0  0  0
 54 55  2  0  0  0  0
 54 56  1  0  0  0  0
 56 57  1  0  0  0  0
 52 57  1  0  0  0  0
 37 58  1  0  0  0  0
 32 58  1  0  0  0  0
  1 59  1  0  0  0  0
  1 60  1  0  0  0  0
  1 61  1  0  0  0  0
  2 62  1  0  0  0  0
  4 63  1  0  0  0  0
  5 64  1  0  0  0  0
  5 65  1  0  0  0  0
  6 66  1  0  0  0  0
  7 67  1  0  0  0  0
  8 68  1  0  0  0  0
 10 69  1  0  0  0  0
 11 70  1  0  0  0  0
 11 71  1  0  0  0  0
 12 72  1  0  0  0  0
 13 73  1  0  0  0  0
 14 74  1  0  0  0  0
 16 75  1  0  0  0  0
 17 76  1  0  0  0  0
 17 77  1  0  0  0  0
 18 78  1  0  0  0  0
 19 79  1  0  0  0  0
 20 80  1  0  0  0  0
 23 81  1  0  0  0  0
 23 82  1  0  0  0  0
 23 83  1  0  0  0  0
 25 84  1  0  0  0  0
 26 85  1  0  0  0  0
 26 86  1  0  0  0  0
 26 87  1  0  0  0  0
 28 88  1  0  0  0  0
 29 89  1  0  0  0  0
 29 90  1  0  0  0  0
 29 91  1  0  0  0  0
 32 92  1  0  0  0  0
 33 93  1  0  0  0  0
 33 94  1  0  0  0  0
 34 95  1  0  0  0  0
 34 96  1  0  0  0  0
 36 97  1  0  0  0  0
 36 98  1  0  0  0  0
 36 99  1  0  0  0  0
 37100  1  0  0  0  0
 38101  1  0  0  0  0
 38102  1  0  0  0  0
 39103  1  0  0  0  0
 39104  1  0  0  0  0
 40105  1  0  0  0  0
 41106  1  0  0  0  0
 42107  1  0  0  0  0
 42108  1  0  0  0  0
 43109  1  0  0  0  0
 44110  1  0  0  0  0
 46111  1  0  0  0  0
 46112  1  0  0  0  0
 46113  1  0  0  0  0
 47114  1  0  0  0  0
 48115  1  0  0  0  0
 48116  1  0  0  0  0
 49117  1  0  0  0  0
 49118  1  0  0  0  0
 51119  1  0  0  0  0
 53120  1  0  0  0  0
 57121  1  0  0  0  0
 57122  1  0  0  0  0
 58123  1  0  0  0  0
 58124  1  0  0  0  0
M  END
>  <InChIKey>
InChI=1S/C43H66O15/c1-20-38(55-23(4)44)30(45)17-36(53-20)57-40-22(3)54-37(18-32(40)47)58-39-21(2)52-35(16-31(39)46)56-26-9-11-41(5)25(14-26)7-8-28-29(41)15-33(48)42(6)27(10-12-43(28,42)50)24-13-34(49)51-19-24/h13,20-22,25-33,35-40,45-48,50H,7-12,14-19H2,1-6H3

>  <CASRN>
5355-48-6

> <Outcome>
0

>  <Index>
2318

>  <StandardizerResult>
Clear Stereo (ID: ClearStereo)
Wedge Clean (ID: WedgeClean)
Mesomerize (ID: Mesomerize)
Tautomerize (ID: Tautomerize)
Add Explicit Hydrogens (ID: AddExplicitH)
Neutralize (ID: Neutralize)
Clean 2D (ID: Clean2D)

> <knn Distance>
4.35889911651611

> <CpId>
2318

$$$$
2355
  Mrv1532301301811342D          

 55 58  0  0  0  0            999 V2000
    4.9850   -0.4076    0.0000 C   0  0  0  0  0  0  0  0  0  0  0  0
    4.9850   -1.2326    0.0000 C   0  0  0  0  0  0  0  0  0  0  0  0
    5.6995   -1.6451    0.0000 C   0  0  0  0  0  0  0  0  0  0  0  0
    5.6995   -2.4701    0.0000 C   0  0  0  0  0  0  0  0  0  0  0  0
    4.9850   -2.8826    0.0000 C   0  0  0  0  0  0  0  0  0  0  0  0
    4.2706   -2.4701    0.0000 C   0  0  0  0  0  0  0  0  0  0  0  0
    3.5561   -2.8826    0.0000 C   0  0  0  0  0  0  0  0  0  0  0  0
    2.8416   -2.4701    0.0000 N   0  0  0  0  0  0  0  0  0  0  0  0
    2.1272   -2.8826    0.0000 C   0  0  0  0  0  0  0  0  0  0  0  0
    1.4127   -2.4701    0.0000 C   0  0  0  0  0  0  0  0  0  0  0  0
    1.4127   -1.6451    0.0000 N   0  0  0  0  0  0  0  0  0  0  0  0
    2.1272   -1.2326    0.0000 C   0  0  0  0  0  0  0  0  0  0  0  0
    2.8416   -1.6451    0.0000 C   0  0  0  0  0  0  0  0  0  0  0  0
    0.6982   -1.2326    0.0000 C   0  0  0  0  0  0  0  0  0  0  0  0
   -0.0163   -1.6451    0.0000 C   0  0  0  0  0  0  0  0  0  0  0  0
   -0.0163   -2.4701    0.0000 C   0  0  0  0  0  0  0  0  0  0  0  0
   -0.7307   -2.8826    0.0000 C   0  0  0  0  0  0  0  0  0  0  0  0
   -1.4452   -2.4701    0.0000 C   0  0  0  0  0  0  0  0  0  0  0  0
   -1.4452   -1.6451    0.0000 C   0  0  0  0  0  0  0  0  0  0  0  0
   -0.7307   -1.2326    0.0000 C   0  0  0  0  0  0  0  0  0  0  0  0
    0.6982   -0.4076    0.0000 C   0  0  0  0  0  0  0  0  0  0  0  0
   -0.0163    0.0049    0.0000 C   0  0  0  0  0  0  0  0  0  0  0  0
   -0.0163    0.8299    0.0000 C   0  0  0  0  0  0  0  0  0  0  0  0
    0.6982    1.2424    0.0000 C   0  0  0  0  0  0  0  0  0  0  0  0
    0.6982    2.0674    0.0000 Cl  0  0  0  0  0  0  0  0  0  0  0  0
    1.4127    0.8299    0.0000 C   0  0  0  0  0  0  0  0  0  0  0  0
    1.4127    0.0049    0.0000 C   0  0  0  0  0  0  0  0  0  0  0  0
    4.2706   -1.6451    0.0000 C   0  0  0  0  0  0  0  0  0  0  0  0
    5.8100   -0.4076    0.0000 H   0  0  0  0  0  0  0  0  0  0  0  0
    4.9850    0.4174    0.0000 H   0  0  0  0  0  0  0  0  0  0  0  0
    4.1600   -0.4076    0.0000 H   0  0  0  0  0  0  0  0  0  0  0  0
    6.4140   -1.2326    0.0000 H   0  0  0  0  0  0  0  0  0  0  0  0
    6.4140   -2.8826    0.0000 H   0  0  0  0  0  0  0  0  0  0  0  0
    4.9850   -3.7076    0.0000 H   0  0  0  0  0  0  0  0  0  0  0  0
    3.1858   -3.6198    0.0000 H   0  0  0  0  0  0  0  0  0  0  0  0
    3.9264   -3.6198    0.0000 H   0  0  0  0  0  0  0  0  0  0  0  0
    1.7569   -3.6198    0.0000 H   0  0  0  0  0  0  0  0  0  0  0  0
    2.4974   -3.6198    0.0000 H   0  0  0  0  0  0  0  0  0  0  0  0
    0.5891   -2.5180    0.0000 H   0  0  0  0  0  0  0  0  0  0  0  0
    0.9593   -3.1593    0.0000 H   0  0  0  0  0  0  0  0  0  0  0  0
    2.4974   -0.4953    0.0000 H   0  0  0  0  0  0  0  0  0  0  0  0
    1.7569   -0.4953    0.0000 H   0  0  0  0  0  0  0  0  0  0  0  0
    3.6652   -1.5971    0.0000 H   0  0  0  0  0  0  0  0  0  0  0  0
    3.2950   -0.9558    0.0000 H   0  0  0  0  0  0  0  0  0  0  0  0
    0.6982   -2.0576    0.0000 H   0  0  0  0  0  0  0  0  0  0  0  0
    0.1656   -3.2748    0.0000 H   0  0  0  0  0  0  0  0  0  0  0  0
   -0.7307   -3.7076    0.0000 H   0  0  0  0  0  0  0  0  0  0  0  0
   -2.1597   -2.8826    0.0000 H   0  0  0  0  0  0  0  0  0  0  0  0
   -2.1597   -1.2326    0.0000 H   0  0  0  0  0  0  0  0  0  0  0  0
   -0.7307   -0.4076    0.0000 H   0  0  0  0  0  0  0  0  0  0  0  0
   -0.0163   -0.8201    0.0000 H   0  0  0  0  0  0  0  0  0  0  0  0
   -0.7307    1.2424    0.0000 H   0  0  0  0  0  0  0  0  0  0  0  0
    2.1272    1.2424    0.0000 H   0  0  0  0  0  0  0  0  0  0  0  0
    2.2005    0.2498    0.0000 H   0  0  0  0  0  0  0  0  0  0  0  0
    4.0887   -0.8404    0.0000 H   0  0  0  0  0  0  0  0  0  0  0  0
  1  2  1  0  0  0  0
  2  3  4  0  0  0  0
  3  4  4  0  0  0  0
  4  5  4  0  0  0  0
  5  6  4  0  0  0  0
  6  7  1  0  0  0  0
  7  8  1  0  0  0  0
  8  9  1  0  0  0  0
  9 10  1  0  0  0  0
 10 11  1  0  0  0  0
 11 12  1  0  0  0  0
 12 13  1  0  0  0  0
  8 13  1  0  0  0  0
 11 14  1  0  0  0  0
 14 15  1  0  0  0  0
 15 16  4  0  0  0  0
 16 17  4  0  0  0  0
 17 18  4  0  0  0  0
 18 19  4  0  0  0  0
 19 20  4  0  0  0  0
 15 20  4  0  0  0  0
 14 21  1  0  0  0  0
 21 22  4  0  0  0  0
 22 23  4  0  0  0  0
 23 24  4  0  0  0  0
 24 25  1  0  0  0  0
 24 26  4  0  0  0  0
 26 27  4  0  0  0  0
 21 27  4  0  0  0  0
  6 28  4  0  0  0  0
  2 28  4  0  0  0  0
  1 29  1  0  0  0  0
  1 30  1  0  0  0  0
  1 31  1  0  0  0  0
  3 32  1  0  0  0  0
  4 33  1  0  0  0  0
  5 34  1  0  0  0  0
  7 35  1  0  0  0  0
  7 36  1  0  0  0  0
  9 37  1  0  0  0  0
  9 38  1  0  0  0  0
 10 39  1  0  0  0  0
 10 40  1  0  0  0  0
 12 41  1  0  0  0  0
 12 42  1  0  0  0  0
 13 43  1  0  0  0  0
 13 44  1  0  0  0  0
 14 45  1  0  0  0  0
 16 46  1  0  0  0  0
 17 47  1  0  0  0  0
 18 48  1  0  0  0  0
 19 49  1  0  0  0  0
 20 50  1  0  0  0  0
 22 51  1  0  0  0  0
 23 52  1  0  0  0  0
 26 53  1  0  0  0  0
 27 54  1  0  0  0  0
 28 55  1  0  0  0  0
M  END
>  <InChIKey>
InChI=1S/C25H27ClN2/c1-20-6-5-7-21(18-20)19-27-14-16-28(17-15-27)25(22-8-3-2-4-9-22)23-10-12-24(26)13-11-23/h2-13,18,25H,14-17,19H2,1H3

>  <CASRN>
569-65-3

> <Outcome>
0

>  <Index>
2355

>  <StandardizerResult>
Dearomatize (ID: Dearomatize)
Clear Stereo (ID: ClearStereo)
Wedge Clean (ID: WedgeClean)
Mesomerize (ID: Mesomerize)
Tautomerize (ID: Tautomerize)
Aromatize (ID: Aromatize)
Add Explicit Hydrogens (ID: AddExplicitH)
Neutralize (ID: Neutralize)
Clean 2D (ID: Clean2D)

> <knn Distance>
4.35889911651611

> <CpId>
2355

$$$$
2374
  Mrv1532301301811342D          

 50 52  0  0  0  0            999 V2000
    6.6005    4.1085    0.0000 O   0  0  0  0  0  0  0  0  0  0  0  0
    6.1880    3.3941    0.0000 C   0  0  0  0  0  0  0  0  0  0  0  0
    5.4735    3.8066    0.0000 C   0  0  0  0  0  0  0  0  0  0  0  0
    4.7590    3.3941    0.0000 C   0  0  0  0  0  0  0  0  0  0  0  0
    4.0446    3.8066    0.0000 C   0  0  0  0  0  0  0  0  0  0  0  0
    3.3301    3.3941    0.0000 N   0  0  0  0  0  0  0  0  0  0  0  0
    3.3301    2.5691    0.0000 C   0  0  0  0  0  0  0  0  0  0  0  0
    2.6156    2.1566    0.0000 C   0  0  0  0  0  0  0  0  0  0  0  0
    1.9012    2.5691    0.0000 C   0  0  0  0  0  0  0  0  0  0  0  0
    1.9012    3.3941    0.0000 C   0  0  0  0  0  0  0  0  0  0  0  0
    2.6156    3.8066    0.0000 C   0  0  0  0  0  0  0  0  0  0  0  0
    6.9025    2.9816    0.0000 C   0  0  0  0  0  0  0  0  0  0  0  0
    7.6169    3.3941    0.0000 C   0  0  0  0  0  0  0  0  0  0  0  0
    8.3314    2.9816    0.0000 C   0  0  0  0  0  0  0  0  0  0  0  0
    8.3314    2.1566    0.0000 C   0  0  0  0  0  0  0  0  0  0  0  0
    7.6169    1.7441    0.0000 C   0  0  0  0  0  0  0  0  0  0  0  0
    6.9025    2.1566    0.0000 C   0  0  0  0  0  0  0  0  0  0  0  0
    5.7755    2.6796    0.0000 C   0  0  0  0  0  0  0  0  0  0  0  0
    6.1880    1.9651    0.0000 C   0  0  0  0  0  0  0  0  0  0  0  0
    5.7755    1.2507    0.0000 C   0  0  0  0  0  0  0  0  0  0  0  0
    4.9505    1.2507    0.0000 C   0  0  0  0  0  0  0  0  0  0  0  0
    4.5380    1.9651    0.0000 C   0  0  0  0  0  0  0  0  0  0  0  0
    4.9505    2.6796    0.0000 C   0  0  0  0  0  0  0  0  0  0  0  0
    7.4255    4.1085    0.0000 H   0  0  0  0  0  0  0  0  0  0  0  0
    5.8438    4.5438    0.0000 H   0  0  0  0  0  0  0  0  0  0  0  0
    5.1033    4.5438    0.0000 H   0  0  0  0  0  0  0  0  0  0  0  0
    4.1045    2.8918    0.0000 H   0  0  0  0  0  0  0  0  0  0  0  0
    5.5212    3.0784    0.0000 H   0  0  0  0  0  0  0  0  0  0  0  0
    4.4148    4.5438    0.0000 H   0  0  0  0  0  0  0  0  0  0  0  0
    3.6743    4.5438    0.0000 H   0  0  0  0  0  0  0  0  0  0  0  0
    3.2947    1.7448    0.0000 H   0  0  0  0  0  0  0  0  0  0  0  0
    4.0066    2.0969    0.0000 H   0  0  0  0  0  0  0  0  0  0  0  0
    1.8982    1.7492    0.0000 H   0  0  0  0  0  0  0  0  0  0  0  0
    2.6038    1.3316    0.0000 H   0  0  0  0  0  0  0  0  0  0  0  0
    1.1872    2.9824    0.0000 H   0  0  0  0  0  0  0  0  0  0  0  0
    1.1857    2.1583    0.0000 H   0  0  0  0  0  0  0  0  0  0  0  0
    1.9013    4.2191    0.0000 H   0  0  0  0  0  0  0  0  0  0  0  0
    1.1868    3.8068    0.0000 H   0  0  0  0  0  0  0  0  0  0  0  0
    3.2476    4.3368    0.0000 H   0  0  0  0  0  0  0  0  0  0  0  0
    2.7589    4.6190    0.0000 H   0  0  0  0  0  0  0  0  0  0  0  0
    8.2714    3.8963    0.0000 H   0  0  0  0  0  0  0  0  0  0  0  0
    9.1560    3.0086    0.0000 H   0  0  0  0  0  0  0  0  0  0  0  0
    9.0459    1.7441    0.0000 H   0  0  0  0  0  0  0  0  0  0  0  0
    7.6169    0.9191    0.0000 H   0  0  0  0  0  0  0  0  0  0  0  0
    6.7948    1.3386    0.0000 H   0  0  0  0  0  0  0  0  0  0  0  0
    5.3630    1.9651    0.0000 H   0  0  0  0  0  0  0  0  0  0  0  0
    6.1880    0.5362    0.0000 H   0  0  0  0  0  0  0  0  0  0  0  0
    4.5380    0.5362    0.0000 H   0  0  0  0  0  0  0  0  0  0  0  0
    4.0419    1.3059    0.0000 H   0  0  0  0  0  0  0  0  0  0  0  0
    4.1908    2.3578    0.0000 H   0  0  0  0  0  0  0  0  0  0  0  0
  1  2  1  0  0  0  0
  2  3  1  0  0  0  0
  3  4  1  0  0  0  0
  4  5  1  0  0  0  0
  5  6  1  0  0  0  0
  6  7  1  0  0  0  0
  7  8  1  0  0  0  0
  8  9  1  0  0  0  0
  9 10  1  0  0  0  0
 10 11  1  0  0  0  0
  6 11  1  0  0  0  0
  2 12  1  0  0  0  0
 12 13  4  0  0  0  0
 13 14  4  0  0  0  0
 14 15  4  0  0  0  0
 15 16  4  0  0  0  0
 16 17  4  0  0  0  0
 12 17  4  0  0  0  0
  2 18  1  0  0  0  0
 18 19  4  0  0  0  0
 19 20  4  0  0  0  0
 20 21  4  0  0  0  0
 21 22  4  0  0  0  0
 22 23  4  0  0  0  0
 18 23  4  0  0  0  0
  1 24  1  0  0  0  0
  3 25  1  0  0  0  0
  3 26  1  0  0  0  0
  4 27  1  0  0  0  0
  4 28  1  0  0  0  0
  5 29  1  0  0  0  0
  5 30  1  0  0  0  0
  7 31  1  0  0  0  0
  7 32  1  0  0  0  0
  8 33  1  0  0  0  0
  8 34  1  0  0  0  0
  9 35  1  0  0  0  0
  9 36  1  0  0  0  0
 10 37  1  0  0  0  0
 10 38  1  0  0  0  0
 11 39  1  0  0  0  0
 11 40  1  0  0  0  0
 13 41  1  0  0  0  0
 14 42  1  0  0  0  0
 15 43  1  0  0  0  0
 16 44  1  0  0  0  0
 17 45  1  0  0  0  0
 19 46  1  0  0  0  0
 20 47  1  0  0  0  0
 21 48  1  0  0  0  0
 22 49  1  0  0  0  0
 23 50  1  0  0  0  0
M  END
>  <InChIKey>
InChI=1S/C21H27NO/c23-21(19-11-4-1-5-12-19,20-13-6-2-7-14-20)15-10-18-22-16-8-3-9-17-22/h1-2,4-7,11-14,23H,3,8-10,15-18H2

>  <CASRN>
972-02-1

> <Outcome>
0

>  <Index>
2374

>  <StandardizerResult>
Dearomatize (ID: Dearomatize)
Clear Stereo (ID: ClearStereo)
Wedge Clean (ID: WedgeClean)
Mesomerize (ID: Mesomerize)
Tautomerize (ID: Tautomerize)
Aromatize (ID: Aromatize)
Add Explicit Hydrogens (ID: AddExplicitH)
Neutralize (ID: Neutralize)
Clean 2D (ID: Clean2D)

> <knn Distance>
4.35889911651611

> <CpId>
2374

$$$$
2403
  Mrv1532301301811342D          

 27 26  0  0  0  0            999 V2000
    4.1557   -2.8935    0.0000 C   0  0  0  0  0  0  0  0  0  0  0  0
    3.7432   -2.1790    0.0000 C   0  0  0  0  0  0  0  0  0  0  0  0
    4.1557   -1.4645    0.0000 O   0  0  0  0  0  0  0  0  0  0  0  0
    2.9182   -2.1790    0.0000 C   0  0  0  0  0  0  0  0  0  0  0  0
    2.5057   -1.4645    0.0000 C   0  0  0  0  0  0  0  0  0  0  0  0
    3.2201   -1.0520    0.0000 C   0  0  0  0  0  0  0  0  0  0  0  0
    1.7912   -1.8770    0.0000 C   0  0  0  0  0  0  0  0  0  0  0  0
    2.0932   -0.7501    0.0000 N   0  0  0  0  0  0  0  0  0  0  0  0
    1.2682   -0.7501    0.0000 C   0  0  0  0  0  0  0  0  0  0  0  0
    0.8557   -1.4645    0.0000 O   0  0  0  0  0  0  0  0  0  0  0  0
    0.8557   -0.0356    0.0000 C   0  0  0  0  0  0  0  0  0  0  0  0
    0.0307   -0.0356    0.0000 C   0  0  0  0  0  0  0  0  0  0  0  0
    3.4412   -3.3060    0.0000 H   0  0  0  0  0  0  0  0  0  0  0  0
    4.5682   -3.6079    0.0000 H   0  0  0  0  0  0  0  0  0  0  0  0
    4.8701   -2.4810    0.0000 H   0  0  0  0  0  0  0  0  0  0  0  0
    2.2289   -2.6323    0.0000 H   0  0  0  0  0  0  0  0  0  0  0  0
    2.8702   -3.0026    0.0000 H   0  0  0  0  0  0  0  0  0  0  0  0
    3.6326   -1.7665    0.0000 H   0  0  0  0  0  0  0  0  0  0  0  0
    3.9346   -0.6395    0.0000 H   0  0  0  0  0  0  0  0  0  0  0  0
    2.8076   -0.3376    0.0000 H   0  0  0  0  0  0  0  0  0  0  0  0
    1.6832   -1.0591    0.0000 H   0  0  0  0  0  0  0  0  0  0  0  0
    0.9941   -1.6641    0.0000 H   0  0  0  0  0  0  0  0  0  0  0  0
    1.2898   -2.5322    0.0000 H   0  0  0  0  0  0  0  0  0  0  0  0
    1.8796    0.0468    0.0000 H   0  0  0  0  0  0  0  0  0  0  0  0
    1.2682    0.6789    0.0000 H   0  0  0  0  0  0  0  0  0  0  0  0
   -0.3818    0.6789    0.0000 H   0  0  0  0  0  0  0  0  0  0  0  0
   -0.3818   -0.7501    0.0000 H   0  0  0  0  0  0  0  0  0  0  0  0
  1  2  1  0  0  0  0
  2  3  2  0  0  0  0
  2  4  1  0  0  0  0
  4  5  1  0  0  0  0
  5  6  1  0  0  0  0
  5  7  1  0  0  0  0
  5  8  1  0  0  0  0
  8  9  1  0  0  0  0
  9 10  2  0  0  0  0
  9 11  1  0  0  0  0
 11 12  2  0  0  0  0
  1 13  1  0  0  0  0
  1 14  1  0  0  0  0
  1 15  1  0  0  0  0
  4 16  1  0  0  0  0
  4 17  1  0  0  0  0
  6 18  1  0  0  0  0
  6 19  1  0  0  0  0
  6 20  1  0  0  0  0
  7 21  1  0  0  0  0
  7 22  1  0  0  0  0
  7 23  1  0  0  0  0
  8 24  1  0  0  0  0
 11 25  1  0  0  0  0
 12 26  1  0  0  0  0
 12 27  1  0  0  0  0
M  END
>  <InChIKey>
InChI=1S/C9H15NO2/c1-5-8(12)10-9(3,4)6-7(2)11/h5H,1,6H2,2-4H3,(H,10,12)

>  <CASRN>
2873-97-4

> <Outcome>
0

>  <Index>
2403

>  <StandardizerResult>
Clear Stereo (ID: ClearStereo)
Wedge Clean (ID: WedgeClean)
Mesomerize (ID: Mesomerize)
Tautomerize (ID: Tautomerize)
Add Explicit Hydrogens (ID: AddExplicitH)
Neutralize (ID: Neutralize)
Clean 2D (ID: Clean2D)

> <knn Distance>
4.35889911651611

> <CpId>
2403

$$$$
2473
  Mrv1532301301811342D          

 22 22  0  0  0  0            999 V2000
   -0.7476    3.7683    0.0000 N   0  0  0  0  0  0  0  0  0  0  0  0
   -0.0332    3.3558    0.0000 C   0  0  0  0  0  0  0  0  0  0  0  0
    0.6813    3.7683    0.0000 N   0  0  0  0  0  0  0  0  0  0  0  0
   -0.0332    2.5308    0.0000 N   0  0  0  0  0  0  0  0  0  0  0  0
    0.6813    2.1183    0.0000 C   0  0  0  0  0  0  0  0  0  0  0  0
    0.6813    1.2933    0.0000 C   0  0  0  0  0  0  0  0  0  0  0  0
    1.3958    0.8808    0.0000 C   0  0  0  0  0  0  0  0  0  0  0  0
    1.3958    0.0558    0.0000 C   0  0  0  0  0  0  0  0  0  0  0  0
    0.6813   -0.3567    0.0000 C   0  0  0  0  0  0  0  0  0  0  0  0
   -0.0332    0.0558    0.0000 C   0  0  0  0  0  0  0  0  0  0  0  0
   -0.7476   -0.3567    0.0000 I   0  0  0  0  0  0  0  0  0  0  0  0
   -0.0332    0.8808    0.0000 C   0  0  0  0  0  0  0  0  0  0  0  0
   -0.7476    4.5933    0.0000 H   0  0  0  0  0  0  0  0  0  0  0  0
   -1.4621    3.3558    0.0000 H   0  0  0  0  0  0  0  0  0  0  0  0
    1.3958    3.3558    0.0000 H   0  0  0  0  0  0  0  0  0  0  0  0
   -0.7476    2.1183    0.0000 H   0  0  0  0  0  0  0  0  0  0  0  0
    1.5049    2.1663    0.0000 H   0  0  0  0  0  0  0  0  0  0  0  0
    1.1346    2.8076    0.0000 H   0  0  0  0  0  0  0  0  0  0  0  0
    2.1102    1.2933    0.0000 H   0  0  0  0  0  0  0  0  0  0  0  0
    2.1102   -0.3567    0.0000 H   0  0  0  0  0  0  0  0  0  0  0  0
    0.6813   -1.1817    0.0000 H   0  0  0  0  0  0  0  0  0  0  0  0
   -0.7476    1.2933    0.0000 H   0  0  0  0  0  0  0  0  0  0  0  0
  1  2  1  0  0  0  0
  2  3  2  0  0  0  0
  2  4  1  0  0  0  0
  4  5  1  0  0  0  0
  5  6  1  0  0  0  0
  6  7  4  0  0  0  0
  7  8  4  0  0  0  0
  8  9  4  0  0  0  0
  9 10  4  0  0  0  0
 10 11  1  0  0  0  0
 10 12  4  0  0  0  0
  6 12  4  0  0  0  0
  1 13  1  0  0  0  0
  1 14  1  0  0  0  0
  3 15  1  0  0  0  0
  4 16  1  0  0  0  0
  5 17  1  0  0  0  0
  5 18  1  0  0  0  0
  7 19  1  0  0  0  0
  8 20  1  0  0  0  0
  9 21  1  0  0  0  0
 12 22  1  0  0  0  0
M  END
>  <InChIKey>
InChI=1S/C8H10IN3/c9-7-3-1-2-6(4-7)5-12-8(10)11/h1-4H,5H2,(H4,10,11,12)

>  <CASRN>
80663-95-2

> <Outcome>
0

>  <Index>
2473

>  <StandardizerResult>
Dearomatize (ID: Dearomatize)
Clear Stereo (ID: ClearStereo)
Wedge Clean (ID: WedgeClean)
Mesomerize (ID: Mesomerize)
Tautomerize (ID: Tautomerize)
Aromatize (ID: Aromatize)
Add Explicit Hydrogens (ID: AddExplicitH)
Neutralize (ID: Neutralize)
Clean 2D (ID: Clean2D)

> <knn Distance>
4.35889911651611

> <CpId>
2473

$$$$
2501
  Mrv1532301301811342D          

 53 55  0  0  0  0            999 V2000
    0.6565   -1.2478    0.0000 C   0  0  0  0  0  0  0  0  0  0  0  0
    0.6565   -0.4228    0.0000 C   0  0  0  0  0  0  0  0  0  0  0  0
    1.3710   -0.0103    0.0000 C   0  0  0  0  0  0  0  0  0  0  0  0
    1.3710    0.8147    0.0000 O   0  0  0  0  0  0  0  0  0  0  0  0
    2.0854   -0.4228    0.0000 N   0  0  0  0  0  0  0  0  0  0  0  0
    2.0854   -1.2478    0.0000 C   0  0  0  0  0  0  0  0  0  0  0  0
    2.7999   -1.6603    0.0000 C   0  0  0  0  0  0  0  0  0  0  0  0
    2.7999   -2.4853    0.0000 C   0  0  0  0  0  0  0  0  0  0  0  0
    2.0854   -2.8978    0.0000 N   0  0  0  0  0  0  0  0  0  0  0  0
    2.0854   -3.7228    0.0000 C   0  0  0  0  0  0  0  0  0  0  0  0
    1.3710   -4.1353    0.0000 C   0  0  0  0  0  0  0  0  0  0  0  0
    1.3710   -4.9603    0.0000 C   0  0  0  0  0  0  0  0  0  0  0  0
    2.0854   -5.3728    0.0000 C   0  0  0  0  0  0  0  0  0  0  0  0
    2.0854   -6.1978    0.0000 C   0  0  0  0  0  0  0  0  0  0  0  0
    1.3710   -6.6103    0.0000 C   0  0  0  0  0  0  0  0  0  0  0  0
    0.6565   -6.1978    0.0000 C   0  0  0  0  0  0  0  0  0  0  0  0
    0.6565   -5.3728    0.0000 C   0  0  0  0  0  0  0  0  0  0  0  0
    1.3710   -2.4853    0.0000 C   0  0  0  0  0  0  0  0  0  0  0  0
    1.3710   -1.6603    0.0000 C   0  0  0  0  0  0  0  0  0  0  0  0
    2.7999   -0.0103    0.0000 C   0  0  0  0  0  0  0  0  0  0  0  0
    2.7999    0.8147    0.0000 C   0  0  0  0  0  0  0  0  0  0  0  0
    3.5144    1.2272    0.0000 C   0  0  0  0  0  0  0  0  0  0  0  0
    4.2289    0.8147    0.0000 C   0  0  0  0  0  0  0  0  0  0  0  0
    4.2289   -0.0103    0.0000 C   0  0  0  0  0  0  0  0  0  0  0  0
    3.5144   -0.4228    0.0000 C   0  0  0  0  0  0  0  0  0  0  0  0
   -0.0580   -0.8353    0.0000 H   0  0  0  0  0  0  0  0  0  0  0  0
   -0.0580   -1.6603    0.0000 H   0  0  0  0  0  0  0  0  0  0  0  0
    0.6565   -2.0728    0.0000 H   0  0  0  0  0  0  0  0  0  0  0  0
    0.5132    0.3896    0.0000 H   0  0  0  0  0  0  0  0  0  0  0  0
    0.0245    0.1075    0.0000 H   0  0  0  0  0  0  0  0  0  0  0  0
    1.3710   -0.8353    0.0000 H   0  0  0  0  0  0  0  0  0  0  0  0
    3.6235   -1.6124    0.0000 H   0  0  0  0  0  0  0  0  0  0  0  0
    3.2533   -0.9710    0.0000 H   0  0  0  0  0  0  0  0  0  0  0  0
    3.2533   -3.1746    0.0000 H   0  0  0  0  0  0  0  0  0  0  0  0
    3.6235   -2.5333    0.0000 H   0  0  0  0  0  0  0  0  0  0  0  0
    2.5388   -4.4121    0.0000 H   0  0  0  0  0  0  0  0  0  0  0  0
    2.9090   -3.7708    0.0000 H   0  0  0  0  0  0  0  0  0  0  0  0
    0.9176   -3.4460    0.0000 H   0  0  0  0  0  0  0  0  0  0  0  0
    0.5474   -4.0874    0.0000 H   0  0  0  0  0  0  0  0  0  0  0  0
    2.7999   -4.9603    0.0000 H   0  0  0  0  0  0  0  0  0  0  0  0
    2.7999   -6.6103    0.0000 H   0  0  0  0  0  0  0  0  0  0  0  0
    1.3710   -7.4353    0.0000 H   0  0  0  0  0  0  0  0  0  0  0  0
   -0.0580   -6.6103    0.0000 H   0  0  0  0  0  0  0  0  0  0  0  0
   -0.0580   -4.9603    0.0000 H   0  0  0  0  0  0  0  0  0  0  0  0
    0.7390   -3.0156    0.0000 H   0  0  0  0  0  0  0  0  0  0  0  0
    1.2277   -3.2978    0.0000 H   0  0  0  0  0  0  0  0  0  0  0  0
    1.9013   -2.2923    0.0000 H   0  0  0  0  0  0  0  0  0  0  0  0
    2.1834   -1.8036    0.0000 H   0  0  0  0  0  0  0  0  0  0  0  0
    2.0854    1.2272    0.0000 H   0  0  0  0  0  0  0  0  0  0  0  0
    3.5144    2.0522    0.0000 H   0  0  0  0  0  0  0  0  0  0  0  0
    4.9433    1.2272    0.0000 H   0  0  0  0  0  0  0  0  0  0  0  0
    4.9433   -0.4228    0.0000 H   0  0  0  0  0  0  0  0  0  0  0  0
    4.1203   -0.9827    0.0000 H   0  0  0  0  0  0  0  0  0  0  0  0
  1  2  1  0  0  0  0
  2  3  1  0  0  0  0
  3  4  2  0  0  0  0
  3  5  1  0  0  0  0
  5  6  1  0  0  0  0
  6  7  1  0  0  0  0
  7  8  1  0  0  0  0
  8  9  1  0  0  0  0
  9 10  1  0  0  0  0
 10 11  1  0  0  0  0
 11 12  1  0  0  0  0
 12 13  4  0  0  0  0
 13 14  4  0  0  0  0
 14 15  4  0  0  0  0
 15 16  4  0  0  0  0
 16 17  4  0  0  0  0
 12 17  4  0  0  0  0
  9 18  1  0  0  0  0
 18 19  1  0  0  0  0
  6 19  1  0  0  0  0
  5 20  1  0  0  0  0
 20 21  4  0  0  0  0
 21 22  4  0  0  0  0
 22 23  4  0  0  0  0
 23 24  4  0  0  0  0
 24 25  4  0  0  0  0
 20 25  4  0  0  0  0
  1 26  1  0  0  0  0
  1 27  1  0  0  0  0
  1 28  1  0  0  0  0
  2 29  1  0  0  0  0
  2 30  1  0  0  0  0
  6 31  1  0  0  0  0
  7 32  1  0  0  0  0
  7 33  1  0  0  0  0
  8 34  1  0  0  0  0
  8 35  1  0  0  0  0
 10 36  1  0  0  0  0
 10 37  1  0  0  0  0
 11 38  1  0  0  0  0
 11 39  1  0  0  0  0
 13 40  1  0  0  0  0
 14 41  1  0  0  0  0
 15 42  1  0  0  0  0
 16 43  1  0  0  0  0
 17 44  1  0  0  0  0
 18 45  1  0  0  0  0
 18 46  1  0  0  0  0
 19 47  1  0  0  0  0
 19 48  1  0  0  0  0
 21 49  1  0  0  0  0
 22 50  1  0  0  0  0
 23 51  1  0  0  0  0
 24 52  1  0  0  0  0
 25 53  1  0  0  0  0
M  END
>  <InChIKey>
InChI=1S/C22H28N2O/c1-2-22(25)24(20-11-7-4-8-12-20)21-14-17-23(18-15-21)16-13-19-9-5-3-6-10-19/h3-12,21H,2,13-18H2,1H3

>  <CASRN>
437-38-7

> <Outcome>
0

>  <Index>
2501

>  <StandardizerResult>
Dearomatize (ID: Dearomatize)
Clear Stereo (ID: ClearStereo)
Wedge Clean (ID: WedgeClean)
Mesomerize (ID: Mesomerize)
Tautomerize (ID: Tautomerize)
Aromatize (ID: Aromatize)
Add Explicit Hydrogens (ID: AddExplicitH)
Neutralize (ID: Neutralize)
Clean 2D (ID: Clean2D)

> <knn Distance>
4.35889911651611

> <CpId>
2501

$$$$
2519
  Mrv1532301301811342D          

 47 48  0  0  0  0            999 V2000
   -2.0675    1.3914    0.0000 C   0  0  0  0  0  0  0  0  0  0  0  0
   -1.3531    0.9789    0.0000 O   0  0  0  0  0  0  0  0  0  0  0  0
   -1.3531    0.1539    0.0000 C   0  0  0  0  0  0  0  0  0  0  0  0
   -0.6386   -0.2586    0.0000 C   0  0  0  0  0  0  0  0  0  0  0  0
   -0.6386   -1.0836    0.0000 C   0  0  0  0  0  0  0  0  0  0  0  0
   -1.3531   -1.4961    0.0000 C   0  0  0  0  0  0  0  0  0  0  0  0
   -2.0675   -1.0836    0.0000 C   0  0  0  0  0  0  0  0  0  0  0  0
   -2.0675   -0.2586    0.0000 C   0  0  0  0  0  0  0  0  0  0  0  0
   -1.3531   -2.3211    0.0000 C   0  0  0  0  0  0  0  0  0  0  0  0
   -2.0675   -2.7336    0.0000 C   0  0  0  0  0  0  0  0  0  0  0  0
   -2.0675   -3.5586    0.0000 N   0  0  0  0  0  0  0  0  0  0  0  0
   -1.3531   -3.9711    0.0000 C   0  0  0  0  0  0  0  0  0  0  0  0
   -2.7820   -3.9711    0.0000 C   0  0  0  0  0  0  0  0  0  0  0  0
   -0.6386   -2.7336    0.0000 C   0  0  0  0  0  0  0  0  0  0  0  0
   -1.1689   -3.3655    0.0000 O   0  0  0  0  0  0  0  0  0  0  0  0
   -0.3564   -1.9583    0.0000 C   0  0  0  0  0  0  0  0  0  0  0  0
    0.4560   -1.8151    0.0000 C   0  0  0  0  0  0  0  0  0  0  0  0
    0.9863   -2.4470    0.0000 C   0  0  0  0  0  0  0  0  0  0  0  0
    0.7042   -3.2223    0.0000 C   0  0  0  0  0  0  0  0  0  0  0  0
   -0.1083   -3.3655    0.0000 C   0  0  0  0  0  0  0  0  0  0  0  0
   -1.6550    2.1059    0.0000 H   0  0  0  0  0  0  0  0  0  0  0  0
   -2.7820    1.8039    0.0000 H   0  0  0  0  0  0  0  0  0  0  0  0
   -2.4800    0.6770    0.0000 H   0  0  0  0  0  0  0  0  0  0  0  0
    0.0759    0.1539    0.0000 H   0  0  0  0  0  0  0  0  0  0  0  0
    0.1764   -0.9554    0.0000 H   0  0  0  0  0  0  0  0  0  0  0  0
   -2.7820   -1.4961    0.0000 H   0  0  0  0  0  0  0  0  0  0  0  0
   -2.7820    0.1539    0.0000 H   0  0  0  0  0  0  0  0  0  0  0  0
   -2.0675   -1.9086    0.0000 H   0  0  0  0  0  0  0  0  0  0  0  0
   -2.8428   -2.4514    0.0000 H   0  0  0  0  0  0  0  0  0  0  0  0
   -2.8428   -3.0157    0.0000 H   0  0  0  0  0  0  0  0  0  0  0  0
   -1.9779   -4.5098    0.0000 H   0  0  0  0  0  0  0  0  0  0  0  0
   -1.0501   -4.7384    0.0000 H   0  0  0  0  0  0  0  0  0  0  0  0
   -0.5287   -3.9378    0.0000 H   0  0  0  0  0  0  0  0  0  0  0  0
   -3.5089   -3.5809    0.0000 H   0  0  0  0  0  0  0  0  0  0  0  0
   -3.4971   -4.3824    0.0000 H   0  0  0  0  0  0  0  0  0  0  0  0
   -2.8102   -4.7956    0.0000 H   0  0  0  0  0  0  0  0  0  0  0  0
   -1.5946   -2.6588    0.0000 H   0  0  0  0  0  0  0  0  0  0  0  0
   -1.1813   -1.9430    0.0000 H   0  0  0  0  0  0  0  0  0  0  0  0
    0.1739   -2.5903    0.0000 H   0  0  0  0  0  0  0  0  0  0  0  0
    1.2801   -1.7766    0.0000 H   0  0  0  0  0  0  0  0  0  0  0  0
    0.9251   -1.1364    0.0000 H   0  0  0  0  0  0  0  0  0  0  0  0
    1.5031   -3.0902    0.0000 H   0  0  0  0  0  0  0  0  0  0  0  0
    1.8042   -2.3385    0.0000 H   0  0  0  0  0  0  0  0  0  0  0  0
    0.4193   -3.9965    0.0000 H   0  0  0  0  0  0  0  0  0  0  0  0
    1.2300   -3.8580    0.0000 H   0  0  0  0  0  0  0  0  0  0  0  0
   -0.9329   -3.3921    0.0000 H   0  0  0  0  0  0  0  0  0  0  0  0
   -0.0824   -4.1901    0.0000 H   0  0  0  0  0  0  0  0  0  0  0  0
  1  2  1  0  0  0  0
  2  3  1  0  0  0  0
  3  4  4  0  0  0  0
  4  5  4  0  0  0  0
  5  6  4  0  0  0  0
  6  7  4  0  0  0  0
  7  8  4  0  0  0  0
  3  8  4  0  0  0  0
  6  9  1  0  0  0  0
  9 10  1  0  0  0  0
 10 11  1  0  0  0  0
 11 12  1  0  0  0  0
 11 13  1  0  0  0  0
  9 14  1  0  0  0  0
 14 15  1  0  0  0  0
 14 16  1  0  0  0  0
 16 17  1  0  0  0  0
 17 18  1  0  0  0  0
 18 19  1  0  0  0  0
 19 20  1  0  0  0  0
 14 20  1  0  0  0  0
  1 21  1  0  0  0  0
  1 22  1  0  0  0  0
  1 23  1  0  0  0  0
  4 24  1  0  0  0  0
  5 25  1  0  0  0  0
  7 26  1  0  0  0  0
  8 27  1  0  0  0  0
  9 28  1  0  0  0  0
 10 29  1  0  0  0  0
 10 30  1  0  0  0  0
 12 31  1  0  0  0  0
 12 32  1  0  0  0  0
 12 33  1  0  0  0  0
 13 34  1  0  0  0  0
 13 35  1  0  0  0  0
 13 36  1  0  0  0  0
 15 37  1  0  0  0  0
 16 38  1  0  0  0  0
 16 39  1  0  0  0  0
 17 40  1  0  0  0  0
 17 41  1  0  0  0  0
 18 42  1  0  0  0  0
 18 43  1  0  0  0  0
 19 44  1  0  0  0  0
 19 45  1  0  0  0  0
 20 46  1  0  0  0  0
 20 47  1  0  0  0  0
M  END
>  <InChIKey>
InChI=1S/C17H27NO2/c1-18(2)13-16(17(19)11-5-4-6-12-17)14-7-9-15(20-3)10-8-14/h7-10,16,19H,4-6,11-13H2,1-3H3

>  <CASRN>
93413-69-5

> <Outcome>
0

>  <Index>
2519

>  <StandardizerResult>
Dearomatize (ID: Dearomatize)
Clear Stereo (ID: ClearStereo)
Wedge Clean (ID: WedgeClean)
Mesomerize (ID: Mesomerize)
Tautomerize (ID: Tautomerize)
Aromatize (ID: Aromatize)
Add Explicit Hydrogens (ID: AddExplicitH)
Neutralize (ID: Neutralize)
Clean 2D (ID: Clean2D)

> <knn Distance>
4.35889911651611

> <CpId>
2519

$$$$
2541
  Mrv1532301301811342D          

 47 48  0  0  0  0            999 V2000
    2.8720   -4.9316    0.0000 C   0  0  0  0  0  0  0  0  0  0  0  0
    2.8720   -4.1066    0.0000 C   0  0  0  0  0  0  0  0  0  0  0  0
    2.1575   -3.6941    0.0000 C   0  0  0  0  0  0  0  0  0  0  0  0
    1.4430   -4.1066    0.0000 C   0  0  0  0  0  0  0  0  0  0  0  0
    0.7285   -3.6941    0.0000 C   0  0  0  0  0  0  0  0  0  0  0  0
    0.0141   -4.1066    0.0000 C   0  0  0  0  0  0  0  0  0  0  0  0
   -0.7004   -3.6941    0.0000 C   0  0  0  0  0  0  0  0  0  0  0  0
   -0.7004   -2.8691    0.0000 C   0  0  0  0  0  0  0  0  0  0  0  0
    0.0141   -2.4566    0.0000 C   0  0  0  0  0  0  0  0  0  0  0  0
    0.7285   -2.8691    0.0000 C   0  0  0  0  0  0  0  0  0  0  0  0
    3.5864   -3.6941    0.0000 N   0  0  0  0  0  0  0  0  0  0  0  0
    4.3009   -4.1066    0.0000 C   0  0  0  0  0  0  0  0  0  0  0  0
    4.3009   -4.9316    0.0000 C   0  0  0  0  0  0  0  0  0  0  0  0
    5.0154   -3.6941    0.0000 C   0  0  0  0  0  0  0  0  0  0  0  0
    5.0154   -2.8691    0.0000 O   0  0  0  0  0  0  0  0  0  0  0  0
    5.7298   -4.1066    0.0000 C   0  0  0  0  0  0  0  0  0  0  0  0
    6.4443   -3.6941    0.0000 C   0  0  0  0  0  0  0  0  0  0  0  0
    7.1588   -4.1066    0.0000 C   0  0  0  0  0  0  0  0  0  0  0  0
    7.1588   -4.9316    0.0000 C   0  0  0  0  0  0  0  0  0  0  0  0
    7.8733   -5.3441    0.0000 O   0  0  0  0  0  0  0  0  0  0  0  0
    6.4443   -5.3441    0.0000 C   0  0  0  0  0  0  0  0  0  0  0  0
    5.7298   -4.9316    0.0000 C   0  0  0  0  0  0  0  0  0  0  0  0
    2.0470   -4.9316    0.0000 H   0  0  0  0  0  0  0  0  0  0  0  0
    2.8720   -5.7566    0.0000 H   0  0  0  0  0  0  0  0  0  0  0  0
    3.6970   -4.9316    0.0000 H   0  0  0  0  0  0  0  0  0  0  0  0
    2.1575   -4.5191    0.0000 H   0  0  0  0  0  0  0  0  0  0  0  0
    2.5277   -2.9569    0.0000 H   0  0  0  0  0  0  0  0  0  0  0  0
    1.7872   -2.9569    0.0000 H   0  0  0  0  0  0  0  0  0  0  0  0
    0.8110   -4.6369    0.0000 H   0  0  0  0  0  0  0  0  0  0  0  0
    1.2998   -4.9191    0.0000 H   0  0  0  0  0  0  0  0  0  0  0  0
   -0.4209   -4.8076    0.0000 H   0  0  0  0  0  0  0  0  0  0  0  0
   -1.4149   -4.1066    0.0000 H   0  0  0  0  0  0  0  0  0  0  0  0
   -1.4149   -2.4566    0.0000 H   0  0  0  0  0  0  0  0  0  0  0  0
    0.0141   -1.6316    0.0000 H   0  0  0  0  0  0  0  0  0  0  0  0
    1.4430   -2.4566    0.0000 H   0  0  0  0  0  0  0  0  0  0  0  0
    3.5864   -2.8691    0.0000 H   0  0  0  0  0  0  0  0  0  0  0  0
    3.5864   -4.5191    0.0000 H   0  0  0  0  0  0  0  0  0  0  0  0
    3.9852   -5.6938    0.0000 H   0  0  0  0  0  0  0  0  0  0  0  0
    4.8843   -5.5150    0.0000 H   0  0  0  0  0  0  0  0  0  0  0  0
    5.0631   -4.6159    0.0000 H   0  0  0  0  0  0  0  0  0  0  0  0
    4.3009   -3.2816    0.0000 H   0  0  0  0  0  0  0  0  0  0  0  0
    5.4279   -2.1546    0.0000 H   0  0  0  0  0  0  0  0  0  0  0  0
    6.4443   -2.8691    0.0000 H   0  0  0  0  0  0  0  0  0  0  0  0
    7.8733   -3.6941    0.0000 H   0  0  0  0  0  0  0  0  0  0  0  0
    7.8733   -6.1691    0.0000 H   0  0  0  0  0  0  0  0  0  0  0  0
    6.4443   -6.1691    0.0000 H   0  0  0  0  0  0  0  0  0  0  0  0
    5.3467   -5.6623    0.0000 H   0  0  0  0  0  0  0  0  0  0  0  0
  1  2  1  0  0  0  0
  2  3  1  0  0  0  0
  3  4  1  0  0  0  0
  4  5  1  0  0  0  0
  5  6  4  0  0  0  0
  6  7  4  0  0  0  0
  7  8  4  0  0  0  0
  8  9  4  0  0  0  0
  9 10  4  0  0  0  0
  5 10  4  0  0  0  0
  2 11  1  0  0  0  0
 11 12  1  0  0  0  0
 12 13  1  0  0  0  0
 12 14  1  0  0  0  0
 14 15  1  0  0  0  0
 14 16  1  0  0  0  0
 16 17  4  0  0  0  0
 17 18  4  0  0  0  0
 18 19  4  0  0  0  0
 19 20  1  0  0  0  0
 19 21  4  0  0  0  0
 21 22  4  0  0  0  0
 16 22  4  0  0  0  0
  1 23  1  0  0  0  0
  1 24  1  0  0  0  0
  1 25  1  0  0  0  0
  2 26  1  0  0  0  0
  3 27  1  0  0  0  0
  3 28  1  0  0  0  0
  4 29  1  0  0  0  0
  4 30  1  0  0  0  0
  6 31  1  0  0  0  0
  7 32  1  0  0  0  0
  8 33  1  0  0  0  0
  9 34  1  0  0  0  0
 10 35  1  0  0  0  0
 11 36  1  0  0  0  0
 12 37  1  0  0  0  0
 13 38  1  0  0  0  0
 13 39  1  0  0  0  0
 13 40  1  0  0  0  0
 14 41  1  0  0  0  0
 15 42  1  0  0  0  0
 17 43  1  0  0  0  0
 18 44  1  0  0  0  0
 20 45  1  0  0  0  0
 21 46  1  0  0  0  0
 22 47  1  0  0  0  0
M  END
>  <InChIKey>
InChI=1S/C19H25NO2/c1-14(8-9-16-6-4-3-5-7-16)20-15(2)19(22)17-10-12-18(21)13-11-17/h3-7,10-15,19-22H,8-9H2,1-2H3

>  <CASRN>
447-41-6

> <Outcome>
0

>  <Index>
2541

>  <StandardizerResult>
Dearomatize (ID: Dearomatize)
Clear Stereo (ID: ClearStereo)
Wedge Clean (ID: WedgeClean)
Mesomerize (ID: Mesomerize)
Tautomerize (ID: Tautomerize)
Aromatize (ID: Aromatize)
Add Explicit Hydrogens (ID: AddExplicitH)
Neutralize (ID: Neutralize)
Clean 2D (ID: Clean2D)

> <knn Distance>
4.35889911651611

> <CpId>
2541

$$$$
2617
  Mrv1532301301811342D          

 17 17  0  0  0  0            999 V2000
   -0.0000    3.3000    0.0000 N   0  0  0  0  0  0  0  0  0  0  0  0
   -0.0000    2.4750    0.0000 N   0  0  0  0  0  0  0  0  0  0  0  0
    0.7145    2.0625    0.0000 C   0  0  0  0  0  0  0  0  0  0  0  0
    1.4289    2.4750    0.0000 O   0  0  0  0  0  0  0  0  0  0  0  0
    0.7145    1.2375    0.0000 C   0  0  0  0  0  0  0  0  0  0  0  0
    1.4289    0.8250    0.0000 C   0  0  0  0  0  0  0  0  0  0  0  0
    1.4289   -0.0000    0.0000 C   0  0  0  0  0  0  0  0  0  0  0  0
    0.7145   -0.4125    0.0000 N   0  0  0  0  0  0  0  0  0  0  0  0
   -0.0000   -0.0000    0.0000 C   0  0  0  0  0  0  0  0  0  0  0  0
   -0.0000    0.8250    0.0000 C   0  0  0  0  0  0  0  0  0  0  0  0
    0.7145    3.7125    0.0000 H   0  0  0  0  0  0  0  0  0  0  0  0
   -0.7145    3.7125    0.0000 H   0  0  0  0  0  0  0  0  0  0  0  0
   -0.7145    2.0625    0.0000 H   0  0  0  0  0  0  0  0  0  0  0  0
    2.1434    1.2375    0.0000 H   0  0  0  0  0  0  0  0  0  0  0  0
    2.1434   -0.4125    0.0000 H   0  0  0  0  0  0  0  0  0  0  0  0
   -0.7145   -0.4125    0.0000 H   0  0  0  0  0  0  0  0  0  0  0  0
   -0.7145    1.2375    0.0000 H   0  0  0  0  0  0  0  0  0  0  0  0
  1  2  1  0  0  0  0
  2  3  1  0  0  0  0
  3  4  2  0  0  0  0
  3  5  1  0  0  0  0
  5  6  4  0  0  0  0
  6  7  4  0  0  0  0
  7  8  4  0  0  0  0
  8  9  4  0  0  0  0
  9 10  4  0  0  0  0
  5 10  4  0  0  0  0
  1 11  1  0  0  0  0
  1 12  1  0  0  0  0
  2 13  1  0  0  0  0
  6 14  1  0  0  0  0
  7 15  1  0  0  0  0
  9 16  1  0  0  0  0
 10 17  1  0  0  0  0
M  END
>  <InChIKey>
InChI=1S/C6H7N3O/c7-9-6(10)5-1-3-8-4-2-5/h1-4H,7H2,(H,9,10)

>  <CASRN>
54-85-3

> <Outcome>
0

>  <Index>
2617

>  <StandardizerResult>
Dearomatize (ID: Dearomatize)
Clear Stereo (ID: ClearStereo)
Wedge Clean (ID: WedgeClean)
Mesomerize (ID: Mesomerize)
Tautomerize (ID: Tautomerize)
Aromatize (ID: Aromatize)
Add Explicit Hydrogens (ID: AddExplicitH)
Neutralize (ID: Neutralize)
Clean 2D (ID: Clean2D)

> <knn Distance>
4.35889911651611

> <CpId>
2617

$$$$
2697
  Mrv1532301301811342D          

 29 30  0  0  0  0            999 V2000
    1.4289   -1.6500    0.0000 O   0  0  0  0  0  0  0  0  0  0  0  0
    1.4289   -2.4750    0.0000 C   0  0  0  0  0  0  0  0  0  0  0  0
    2.1434   -2.8875    0.0000 C   0  0  0  0  0  0  0  0  0  0  0  0
    2.1434   -3.7125    0.0000 C   0  0  0  0  0  0  0  0  0  0  0  0
    1.4289   -4.1250    0.0000 C   0  0  0  0  0  0  0  0  0  0  0  0
    1.4289   -4.9500    0.0000 Cl  0  0  0  0  0  0  0  0  0  0  0  0
    0.7145   -3.7125    0.0000 C   0  0  0  0  0  0  0  0  0  0  0  0
    0.7145   -2.8875    0.0000 C   0  0  0  0  0  0  0  0  0  0  0  0
   -0.0000   -2.4750    0.0000 C   0  0  0  0  0  0  0  0  0  0  0  0
   -0.0000   -1.6500    0.0000 O   0  0  0  0  0  0  0  0  0  0  0  0
   -0.7145   -2.8875    0.0000 N   0  0  0  0  0  0  0  0  0  0  0  0
   -1.4290   -2.4750    0.0000 C   0  0  0  0  0  0  0  0  0  0  0  0
   -2.1434   -2.8875    0.0000 C   0  0  0  0  0  0  0  0  0  0  0  0
   -2.8579   -2.4750    0.0000 C   0  0  0  0  0  0  0  0  0  0  0  0
   -2.8579   -1.6500    0.0000 C   0  0  0  0  0  0  0  0  0  0  0  0
   -2.1434   -1.2375    0.0000 C   0  0  0  0  0  0  0  0  0  0  0  0
   -1.4290   -1.6500    0.0000 C   0  0  0  0  0  0  0  0  0  0  0  0
   -0.7145   -1.2375    0.0000 Cl  0  0  0  0  0  0  0  0  0  0  0  0
   -3.5724   -1.2375    0.0000 N   0  0  0  0  0  0  0  0  0  0  0  0
   -4.2868   -1.6500    0.0000 O   0  0  0  0  0  0  0  0  0  0  0  0
   -3.5724   -0.4125    0.0000 O   0  0  0  0  0  0  0  0  0  0  0  0
    2.1434   -1.2375    0.0000 H   0  0  0  0  0  0  0  0  0  0  0  0
    2.8579   -2.4750    0.0000 H   0  0  0  0  0  0  0  0  0  0  0  0
    2.8579   -4.1250    0.0000 H   0  0  0  0  0  0  0  0  0  0  0  0
   -0.0000   -4.1250    0.0000 H   0  0  0  0  0  0  0  0  0  0  0  0
   -0.7145   -3.7125    0.0000 H   0  0  0  0  0  0  0  0  0  0  0  0
   -2.1434   -3.7125    0.0000 H   0  0  0  0  0  0  0  0  0  0  0  0
   -3.5724   -2.8875    0.0000 H   0  0  0  0  0  0  0  0  0  0  0  0
   -2.1434   -0.4125    0.0000 H   0  0  0  0  0  0  0  0  0  0  0  0
  1  2  1  0  0  0  0
  2  3  4  0  0  0  0
  3  4  4  0  0  0  0
  4  5  4  0  0  0  0
  5  6  1  0  0  0  0
  5  7  4  0  0  0  0
  7  8  4  0  0  0  0
  2  8  4  0  0  0  0
  8  9  1  0  0  0  0
  9 10  2  0  0  0  0
  9 11  1  0  0  0  0
 11 12  1  0  0  0  0
 12 13  4  0  0  0  0
 13 14  4  0  0  0  0
 14 15  4  0  0  0  0
 15 16  4  0  0  0  0
 16 17  4  0  0  0  0
 12 17  4  0  0  0  0
 17 18  1  0  0  0  0
 15 19  1  0  0  0  0
 19 20  2  0  0  0  0
 19 21  2  0  0  0  0
  1 22  1  0  0  0  0
  3 23  1  0  0  0  0
  4 24  1  0  0  0  0
  7 25  1  0  0  0  0
 11 26  1  0  0  0  0
 13 27  1  0  0  0  0
 14 28  1  0  0  0  0
 16 29  1  0  0  0  0
M  END
>  <InChIKey>
InChI=1S/C13H8Cl2N2O4/c14-7-1-4-12(18)9(5-7)13(19)16-11-3-2-8(17(20)21)6-10(11)15/h1-6,18H,(H,16,19)

>  <CASRN>
50-65-7

> <Outcome>
0

>  <Index>
2697

>  <StandardizerResult>
Dearomatize (ID: Dearomatize)
Clear Stereo (ID: ClearStereo)
Wedge Clean (ID: WedgeClean)
Mesomerize (ID: Mesomerize)
Tautomerize (ID: Tautomerize)
Aromatize (ID: Aromatize)
Add Explicit Hydrogens (ID: AddExplicitH)
Neutralize (ID: Neutralize)
Clean 2D (ID: Clean2D)

> <knn Distance>
4.35889911651611

> <CpId>
2697

$$$$
2737
  Mrv1532301301811342D          

 10  9  0  0  0  0            999 V2000
    2.0625   -0.7145    0.0000 C   0  0  0  0  0  0  0  0  0  0  0  0
    1.2375   -0.7145    0.0000 C   0  0  0  0  0  0  0  0  0  0  0  0
    0.8250   -1.4290    0.0000 O   0  0  0  0  0  0  0  0  0  0  0  0
    0.8250   -0.0000    0.0000 N   0  0  0  0  0  0  0  0  0  0  0  0
    0.0000   -0.0000    0.0000 O   0  0  0  0  0  0  0  0  0  0  0  0
    2.0625   -1.5395    0.0000 H   0  0  0  0  0  0  0  0  0  0  0  0
    2.8875   -0.7145    0.0000 H   0  0  0  0  0  0  0  0  0  0  0  0
    2.0625    0.1105    0.0000 H   0  0  0  0  0  0  0  0  0  0  0  0
    1.2375    0.7145    0.0000 H   0  0  0  0  0  0  0  0  0  0  0  0
   -0.4125    0.7145    0.0000 H   0  0  0  0  0  0  0  0  0  0  0  0
  1  2  1  0  0  0  0
  2  3  2  0  0  0  0
  2  4  1  0  0  0  0
  4  5  1  0  0  0  0
  1  6  1  0  0  0  0
  1  7  1  0  0  0  0
  1  8  1  0  0  0  0
  4  9  1  0  0  0  0
  5 10  1  0  0  0  0
M  END
>  <InChIKey>
InChI=1S/C2H5NO2/c1-2(4)3-5/h5H,1H3,(H,3,4)

>  <CASRN>
546-88-3

> <Outcome>
0

>  <Index>
2737

>  <StandardizerResult>
Clear Stereo (ID: ClearStereo)
Wedge Clean (ID: WedgeClean)
Mesomerize (ID: Mesomerize)
Tautomerize (ID: Tautomerize)
Add Explicit Hydrogens (ID: AddExplicitH)
Neutralize (ID: Neutralize)
Clean 2D (ID: Clean2D)

> <knn Distance>
4.35889911651611

> <CpId>
2737

$$$$
2762
  Mrv1532301301811342D          

 68 70  0  0  0  0            999 V2000
   -0.0541   -4.9861    0.0000 C   0  0  0  0  0  0  0  0  0  0  0  0
    0.6603   -4.5736    0.0000 C   0  0  0  0  0  0  0  0  0  0  0  0
    0.6603   -3.7486    0.0000 C   0  0  0  0  0  0  0  0  0  0  0  0
    1.4853   -3.7486    0.0000 C   0  0  0  0  0  0  0  0  0  0  0  0
   -0.1647   -3.7486    0.0000 C   0  0  0  0  0  0  0  0  0  0  0  0
    0.6603   -2.9236    0.0000 C   0  0  0  0  0  0  0  0  0  0  0  0
   -0.0541   -2.5111    0.0000 O   0  0  0  0  0  0  0  0  0  0  0  0
    1.3748   -2.5111    0.0000 O   0  0  0  0  0  0  0  0  0  0  0  0
    1.3748   -1.6861    0.0000 C   0  0  0  0  0  0  0  0  0  0  0  0
    0.6603   -1.2736    0.0000 C   0  0  0  0  0  0  0  0  0  0  0  0
    0.6603   -0.4486    0.0000 C   0  0  0  0  0  0  0  0  0  0  0  0
   -0.0541   -0.0361    0.0000 C   0  0  0  0  0  0  0  0  0  0  0  0
    1.3748   -0.0361    0.0000 C   0  0  0  0  0  0  0  0  0  0  0  0
    2.0893   -0.4486    0.0000 C   0  0  0  0  0  0  0  0  0  0  0  0
    2.8038   -0.0361    0.0000 C   0  0  0  0  0  0  0  0  0  0  0  0
    3.5182   -0.4486    0.0000 C   0  0  0  0  0  0  0  0  0  0  0  0
    3.5182   -1.2736    0.0000 C   0  0  0  0  0  0  0  0  0  0  0  0
    4.2327   -1.6861    0.0000 C   0  0  0  0  0  0  0  0  0  0  0  0
    2.8038   -1.6861    0.0000 C   0  0  0  0  0  0  0  0  0  0  0  0
    2.8038   -2.5111    0.0000 C   0  0  0  0  0  0  0  0  0  0  0  0
    3.5182   -2.9236    0.0000 C   0  0  0  0  0  0  0  0  0  0  0  0
    3.5182   -3.7486    0.0000 C   0  0  0  0  0  0  0  0  0  0  0  0
    2.8038   -4.1611    0.0000 C   0  0  0  0  0  0  0  0  0  0  0  0
    2.8038   -4.9861    0.0000 C   0  0  0  0  0  0  0  0  0  0  0  0
    2.0893   -5.3986    0.0000 O   0  0  0  0  0  0  0  0  0  0  0  0
    3.5182   -5.3986    0.0000 C   0  0  0  0  0  0  0  0  0  0  0  0
    4.2327   -4.9861    0.0000 C   0  0  0  0  0  0  0  0  0  0  0  0
    4.9472   -5.3986    0.0000 O   0  0  0  0  0  0  0  0  0  0  0  0
    4.2327   -4.1611    0.0000 O   0  0  0  0  0  0  0  0  0  0  0  0
    2.0893   -1.2736    0.0000 C   0  0  0  0  0  0  0  0  0  0  0  0
   -0.4666   -4.2716    0.0000 H   0  0  0  0  0  0  0  0  0  0  0  0
   -0.7686   -5.3986    0.0000 H   0  0  0  0  0  0  0  0  0  0  0  0
    0.3584   -5.7005    0.0000 H   0  0  0  0  0  0  0  0  0  0  0  0
    1.1137   -5.2628    0.0000 H   0  0  0  0  0  0  0  0  0  0  0  0
    1.4839   -4.6215    0.0000 H   0  0  0  0  0  0  0  0  0  0  0  0
    2.2472   -4.0652    0.0000 H   0  0  0  0  0  0  0  0  0  0  0  0
    2.0692   -3.1657    0.0000 H   0  0  0  0  0  0  0  0  0  0  0  0
    1.1699   -2.9862    0.0000 H   0  0  0  0  0  0  0  0  0  0  0  0
    0.2478   -3.0341    0.0000 H   0  0  0  0  0  0  0  0  0  0  0  0
   -0.5772   -3.0341    0.0000 H   0  0  0  0  0  0  0  0  0  0  0  0
   -0.9897   -3.7486    0.0000 H   0  0  0  0  0  0  0  0  0  0  0  0
    2.0893   -2.0986    0.0000 H   0  0  0  0  0  0  0  0  0  0  0  0
   -0.1633   -1.3215    0.0000 H   0  0  0  0  0  0  0  0  0  0  0  0
    0.2070   -1.9628    0.0000 H   0  0  0  0  0  0  0  0  0  0  0  0
    0.6603    0.3764    0.0000 H   0  0  0  0  0  0  0  0  0  0  0  0
   -0.2677    0.7608    0.0000 H   0  0  0  0  0  0  0  0  0  0  0  0
   -0.8791   -0.0361    0.0000 H   0  0  0  0  0  0  0  0  0  0  0  0
   -0.2677   -0.8329    0.0000 H   0  0  0  0  0  0  0  0  0  0  0  0
    1.7873    0.6784    0.0000 H   0  0  0  0  0  0  0  0  0  0  0  0
    2.8038    0.7889    0.0000 H   0  0  0  0  0  0  0  0  0  0  0  0
    4.2327   -0.0361    0.0000 H   0  0  0  0  0  0  0  0  0  0  0  0
    3.5182   -2.0986    0.0000 H   0  0  0  0  0  0  0  0  0  0  0  0
    4.4462   -2.4829    0.0000 H   0  0  0  0  0  0  0  0  0  0  0  0
    5.0577   -1.6861    0.0000 H   0  0  0  0  0  0  0  0  0  0  0  0
    4.4462   -0.8892    0.0000 H   0  0  0  0  0  0  0  0  0  0  0  0
    2.8038   -0.8611    0.0000 H   0  0  0  0  0  0  0  0  0  0  0  0
    2.1718   -3.0414    0.0000 H   0  0  0  0  0  0  0  0  0  0  0  0
    2.6605   -3.3235    0.0000 H   0  0  0  0  0  0  0  0  0  0  0  0
    4.2935   -3.2057    0.0000 H   0  0  0  0  0  0  0  0  0  0  0  0
    4.2935   -2.6414    0.0000 H   0  0  0  0  0  0  0  0  0  0  0  0
    3.5182   -4.5736    0.0000 H   0  0  0  0  0  0  0  0  0  0  0  0
    2.1728   -4.6926    0.0000 H   0  0  0  0  0  0  0  0  0  0  0  0
    2.2207   -3.5774    0.0000 H   0  0  0  0  0  0  0  0  0  0  0  0
    2.8038   -5.8111    0.0000 H   0  0  0  0  0  0  0  0  0  0  0  0
    1.3518   -5.7683    0.0000 H   0  0  0  0  0  0  0  0  0  0  0  0
    3.6615   -6.2110    0.0000 H   0  0  0  0  0  0  0  0  0  0  0  0
    4.1502   -5.9289    0.0000 H   0  0  0  0  0  0  0  0  0  0  0  0
    1.3748   -0.8611    0.0000 H   0  0  0  0  0  0  0  0  0  0  0  0
  1  2  1  0  0  0  0
  2  3  1  0  0  0  0
  3  4  1  0  0  0  0
  3  5  1  0  0  0  0
  3  6  1  0  0  0  0
  6  7  2  0  0  0  0
  6  8  1  0  0  0  0
  8  9  1  0  0  0  0
  9 10  1  0  0  0  0
 10 11  1  0  0  0  0
 11 12  1  0  0  0  0
 11 13  1  0  0  0  0
 13 14  2  0  0  0  0
 14 15  1  0  0  0  0
 15 16  2  0  0  0  0
 16 17  1  0  0  0  0
 17 18  1  0  0  0  0
 17 19  1  0  0  0  0
 19 20  1  0  0  0  0
 20 21  1  0  0  0  0
 21 22  1  0  0  0  0
 22 23  1  0  0  0  0
 23 24  1  0  0  0  0
 24 25  1  0  0  0  0
 24 26  1  0  0  0  0
 26 27  1  0  0  0  0
 27 28  2  0  0  0  0
 27 29  1  0  0  0  0
 22 29  1  0  0  0  0
 19 30  1  0  0  0  0
  9 30  1  0  0  0  0
 14 30  1  0  0  0  0
  1 31  1  0  0  0  0
  1 32  1  0  0  0  0
  1 33  1  0  0  0  0
  2 34  1  0  0  0  0
  2 35  1  0  0  0  0
  4 36  1  0  0  0  0
  4 37  1  0  0  0  0
  4 38  1  0  0  0  0
  5 39  1  0  0  0  0
  5 40  1  0  0  0  0
  5 41  1  0  0  0  0
  9 42  1  0  0  0  0
 10 43  1  0  0  0  0
 10 44  1  0  0  0  0
 11 45  1  0  0  0  0
 12 46  1  0  0  0  0
 12 47  1  0  0  0  0
 12 48  1  0  0  0  0
 13 49  1  0  0  0  0
 15 50  1  0  0  0  0
 16 51  1  0  0  0  0
 17 52  1  0  0  0  0
 18 53  1  0  0  0  0
 18 54  1  0  0  0  0
 18 55  1  0  0  0  0
 19 56  1  0  0  0  0
 20 57  1  0  0  0  0
 20 58  1  0  0  0  0
 21 59  1  0  0  0  0
 21 60  1  0  0  0  0
 22 61  1  0  0  0  0
 23 62  1  0  0  0  0
 23 63  1  0  0  0  0
 24 64  1  0  0  0  0
 25 65  1  0  0  0  0
 26 66  1  0  0  0  0
 26 67  1  0  0  0  0
 30 68  1  0  0  0  0
M  END
>  <InChIKey>
InChI=1S/C25H38O5/c1-6-25(4,5)24(28)30-21-12-15(2)11-17-8-7-16(3)20(23(17)21)10-9-19-13-18(26)14-22(27)29-19/h7-8,11,15-16,18-21,23,26H,6,9-10,12-14H2,1-5H3

>  <CASRN>
79902-63-9

> <Outcome>
0

>  <Index>
2762

>  <StandardizerResult>
Clear Stereo (ID: ClearStereo)
Wedge Clean (ID: WedgeClean)
Mesomerize (ID: Mesomerize)
Tautomerize (ID: Tautomerize)
Add Explicit Hydrogens (ID: AddExplicitH)
Neutralize (ID: Neutralize)
Clean 2D (ID: Clean2D)

> <knn Distance>
4.35889911651611

> <CpId>
2762

$$$$
2931
  Mrv1532301301811342D          

 40 41  0  0  0  0            999 V2000
    2.1531   -2.0498    0.0000 C   0  0  0  0  0  0  0  0  0  0  0  0
    2.8675   -1.6373    0.0000 N   0  0  0  0  0  0  0  0  0  0  0  0
    2.8675   -0.8123    0.0000 C   0  0  0  0  0  0  0  0  0  0  0  0
    3.5820   -2.0498    0.0000 C   0  0  0  0  0  0  0  0  0  0  0  0
    4.2965   -1.6373    0.0000 C   0  0  0  0  0  0  0  0  0  0  0  0
    5.0110   -2.0498    0.0000 N   0  0  0  0  0  0  0  0  0  0  0  0
    5.7254   -1.6373    0.0000 C   0  0  0  0  0  0  0  0  0  0  0  0
    6.4399   -2.0498    0.0000 C   0  0  0  0  0  0  0  0  0  0  0  0
    7.1544   -1.6373    0.0000 C   0  0  0  0  0  0  0  0  0  0  0  0
    7.8688   -2.0498    0.0000 C   0  0  0  0  0  0  0  0  0  0  0  0
    7.8688   -2.8748    0.0000 C   0  0  0  0  0  0  0  0  0  0  0  0
    7.1544   -3.2873    0.0000 C   0  0  0  0  0  0  0  0  0  0  0  0
    6.4399   -2.8748    0.0000 C   0  0  0  0  0  0  0  0  0  0  0  0
    5.0110   -2.8748    0.0000 C   0  0  0  0  0  0  0  0  0  0  0  0
    5.7254   -3.2873    0.0000 C   0  0  0  0  0  0  0  0  0  0  0  0
    5.7254   -4.1123    0.0000 C   0  0  0  0  0  0  0  0  0  0  0  0
    5.0110   -4.5248    0.0000 C   0  0  0  0  0  0  0  0  0  0  0  0
    4.2965   -4.1123    0.0000 C   0  0  0  0  0  0  0  0  0  0  0  0
    4.2965   -3.2873    0.0000 N   0  0  0  0  0  0  0  0  0  0  0  0
    1.7406   -1.3354    0.0000 H   0  0  0  0  0  0  0  0  0  0  0  0
    1.4386   -2.4623    0.0000 H   0  0  0  0  0  0  0  0  0  0  0  0
    2.5656   -2.7643    0.0000 H   0  0  0  0  0  0  0  0  0  0  0  0
    3.6925   -0.8123    0.0000 H   0  0  0  0  0  0  0  0  0  0  0  0
    2.8675    0.0127    0.0000 H   0  0  0  0  0  0  0  0  0  0  0  0
    2.0425   -0.8123    0.0000 H   0  0  0  0  0  0  0  0  0  0  0  0
    3.2118   -2.7871    0.0000 H   0  0  0  0  0  0  0  0  0  0  0  0
    3.9523   -2.7871    0.0000 H   0  0  0  0  0  0  0  0  0  0  0  0
    4.6667   -0.9001    0.0000 H   0  0  0  0  0  0  0  0  0  0  0  0
    3.9262   -0.9001    0.0000 H   0  0  0  0  0  0  0  0  0  0  0  0
    6.0957   -0.9001    0.0000 H   0  0  0  0  0  0  0  0  0  0  0  0
    5.3552   -0.9001    0.0000 H   0  0  0  0  0  0  0  0  0  0  0  0
    7.1544   -0.8123    0.0000 H   0  0  0  0  0  0  0  0  0  0  0  0
    8.5833   -1.6373    0.0000 H   0  0  0  0  0  0  0  0  0  0  0  0
    8.5833   -3.2873    0.0000 H   0  0  0  0  0  0  0  0  0  0  0  0
    7.1544   -4.1123    0.0000 H   0  0  0  0  0  0  0  0  0  0  0  0
    5.7254   -2.4623    0.0000 H   0  0  0  0  0  0  0  0  0  0  0  0
    6.4399   -3.6998    0.0000 H   0  0  0  0  0  0  0  0  0  0  0  0
    6.1379   -4.8268    0.0000 H   0  0  0  0  0  0  0  0  0  0  0  0
    5.0110   -5.3498    0.0000 H   0  0  0  0  0  0  0  0  0  0  0  0
    3.5820   -4.5248    0.0000 H   0  0  0  0  0  0  0  0  0  0  0  0
  1  2  1  0  0  0  0
  2  3  1  0  0  0  0
  2  4  1  0  0  0  0
  4  5  1  0  0  0  0
  5  6  1  0  0  0  0
  6  7  1  0  0  0  0
  7  8  1  0  0  0  0
  8  9  4  0  0  0  0
  9 10  4  0  0  0  0
 10 11  4  0  0  0  0
 11 12  4  0  0  0  0
 12 13  4  0  0  0  0
  8 13  4  0  0  0  0
  6 14  1  0  0  0  0
 14 15  4  0  0  0  0
 15 16  4  0  0  0  0
 16 17  4  0  0  0  0
 17 18  4  0  0  0  0
 18 19  4  0  0  0  0
 14 19  4  0  0  0  0
  1 20  1  0  0  0  0
  1 21  1  0  0  0  0
  1 22  1  0  0  0  0
  3 23  1  0  0  0  0
  3 24  1  0  0  0  0
  3 25  1  0  0  0  0
  4 26  1  0  0  0  0
  4 27  1  0  0  0  0
  5 28  1  0  0  0  0
  5 29  1  0  0  0  0
  7 30  1  0  0  0  0
  7 31  1  0  0  0  0
  9 32  1  0  0  0  0
 10 33  1  0  0  0  0
 11 34  1  0  0  0  0
 12 35  1  0  0  0  0
 13 36  1  0  0  0  0
 15 37  1  0  0  0  0
 16 38  1  0  0  0  0
 17 39  1  0  0  0  0
 18 40  1  0  0  0  0
M  END
>  <InChIKey>
InChI=1S/C16H21N3/c1-18(2)12-13-19(16-10-6-7-11-17-16)14-15-8-4-3-5-9-15/h3-11H,12-14H2,1-2H3

>  <CASRN>
91-81-6

> <Outcome>
0

>  <Index>
2931

>  <StandardizerResult>
Dearomatize (ID: Dearomatize)
Clear Stereo (ID: ClearStereo)
Wedge Clean (ID: WedgeClean)
Mesomerize (ID: Mesomerize)
Tautomerize (ID: Tautomerize)
Aromatize (ID: Aromatize)
Add Explicit Hydrogens (ID: AddExplicitH)
Neutralize (ID: Neutralize)
Clean 2D (ID: Clean2D)

> <knn Distance>
4.35889911651611

> <CpId>
2931

$$$$
2960
  Mrv1532301301811342D          

 14 13  0  0  0  0            999 V2000
   -0.1914    0.7145    0.0000 N   0  0  0  0  0  0  0  0  0  0  0  0
    0.5230    1.1270    0.0000 C   0  0  0  0  0  0  0  0  0  0  0  0
    0.5230    1.9520    0.0000 O   0  0  0  0  0  0  0  0  0  0  0  0
    1.2375    0.7145    0.0000 N   0  0  0  0  0  0  0  0  0  0  0  0
    1.9520    1.1270    0.0000 N   0  0  0  0  0  0  0  0  0  0  0  0
    2.6664    0.7145    0.0000 C   0  0  0  0  0  0  0  0  0  0  0  0
    3.3809    1.1270    0.0000 N   0  0  0  0  0  0  0  0  0  0  0  0
    2.6664   -0.1105    0.0000 O   0  0  0  0  0  0  0  0  0  0  0  0
   -0.9059    1.1270    0.0000 H   0  0  0  0  0  0  0  0  0  0  0  0
   -0.1914   -0.1105    0.0000 H   0  0  0  0  0  0  0  0  0  0  0  0
    1.2375   -0.1105    0.0000 H   0  0  0  0  0  0  0  0  0  0  0  0
    1.9520    1.9520    0.0000 H   0  0  0  0  0  0  0  0  0  0  0  0
    4.0954    0.7145    0.0000 H   0  0  0  0  0  0  0  0  0  0  0  0
    3.3809    1.9520    0.0000 H   0  0  0  0  0  0  0  0  0  0  0  0
  1  2  1  0  0  0  0
  2  3  2  0  0  0  0
  2  4  1  0  0  0  0
  4  5  1  0  0  0  0
  5  6  1  0  0  0  0
  6  7  1  0  0  0  0
  6  8  2  0  0  0  0
  1  9  1  0  0  0  0
  1 10  1  0  0  0  0
  4 11  1  0  0  0  0
  5 12  1  0  0  0  0
  7 13  1  0  0  0  0
  7 14  1  0  0  0  0
M  END
>  <InChIKey>
InChI=1S/C2H6N4O2/c3-1(7)5-6-2(4)8/h(H3,3,5,7)(H3,4,6,8)

>  <CASRN>
110-21-4

> <Outcome>
0

>  <Index>
2960

>  <StandardizerResult>
Clear Stereo (ID: ClearStereo)
Wedge Clean (ID: WedgeClean)
Mesomerize (ID: Mesomerize)
Tautomerize (ID: Tautomerize)
Add Explicit Hydrogens (ID: AddExplicitH)
Neutralize (ID: Neutralize)
Clean 2D (ID: Clean2D)

> <knn Distance>
4.35889911651611

> <CpId>
2960

$$$$
3029
  Mrv1532301301811342D          

 51 53  0  0  0  0            999 V2000
    1.7416   -2.4883    0.0000 C   0  0  0  0  0  0  0  0  0  0  0  0
    1.7416   -3.3133    0.0000 C   0  0  0  0  0  0  0  0  0  0  0  0
    1.0271   -3.7258    0.0000 C   0  0  0  0  0  0  0  0  0  0  0  0
    2.4560   -3.7258    0.0000 C   0  0  0  0  0  0  0  0  0  0  0  0
    2.4560   -4.5508    0.0000 C   0  0  0  0  0  0  0  0  0  0  0  0
    2.8685   -5.2653    0.0000 C   0  0  0  0  0  0  0  0  0  0  0  0
    3.5830   -5.6778    0.0000 C   0  0  0  0  0  0  0  0  0  0  0  0
    3.5830   -6.5028    0.0000 O   0  0  0  0  0  0  0  0  0  0  0  0
    4.2975   -5.2653    0.0000 O   0  0  0  0  0  0  0  0  0  0  0  0
    5.0120   -5.6778    0.0000 C   0  0  0  0  0  0  0  0  0  0  0  0
    5.7264   -5.2653    0.0000 C   0  0  0  0  0  0  0  0  0  0  0  0
    5.8127   -4.4448    0.0000 C   0  0  0  0  0  0  0  0  0  0  0  0
    6.6196   -4.2733    0.0000 O   0  0  0  0  0  0  0  0  0  0  0  0
    7.0321   -4.9878    0.0000 C   0  0  0  0  0  0  0  0  0  0  0  0
    7.8526   -5.0740    0.0000 C   0  0  0  0  0  0  0  0  0  0  0  0
    8.1882   -5.8277    0.0000 C   0  0  0  0  0  0  0  0  0  0  0  0
    9.0087   -5.9139    0.0000 C   0  0  0  0  0  0  0  0  0  0  0  0
    9.3442   -6.6676    0.0000 C   0  0  0  0  0  0  0  0  0  0  0  0
    8.8593   -7.3350    0.0000 C   0  0  0  0  0  0  0  0  0  0  0  0
    8.0388   -7.2488    0.0000 C   0  0  0  0  0  0  0  0  0  0  0  0
    7.7033   -6.4951    0.0000 C   0  0  0  0  0  0  0  0  0  0  0  0
    6.4801   -5.6009    0.0000 C   0  0  0  0  0  0  0  0  0  0  0  0
    2.0435   -5.2653    0.0000 C   0  0  0  0  0  0  0  0  0  0  0  0
    1.6949   -6.0130    0.0000 C   0  0  0  0  0  0  0  0  0  0  0  0
    1.2217   -5.1934    0.0000 C   0  0  0  0  0  0  0  0  0  0  0  0
    2.5666   -2.4883    0.0000 H   0  0  0  0  0  0  0  0  0  0  0  0
    1.7416   -1.6633    0.0000 H   0  0  0  0  0  0  0  0  0  0  0  0
    0.9166   -2.4883    0.0000 H   0  0  0  0  0  0  0  0  0  0  0  0
    0.6146   -3.0114    0.0000 H   0  0  0  0  0  0  0  0  0  0  0  0
    0.3126   -4.1383    0.0000 H   0  0  0  0  0  0  0  0  0  0  0  0
    1.4396   -4.4403    0.0000 H   0  0  0  0  0  0  0  0  0  0  0  0
    3.1705   -3.3133    0.0000 H   0  0  0  0  0  0  0  0  0  0  0  0
    1.6592   -4.3373    0.0000 H   0  0  0  0  0  0  0  0  0  0  0  0
    3.4519   -4.6819    0.0000 H   0  0  0  0  0  0  0  0  0  0  0  0
    4.6417   -6.4151    0.0000 H   0  0  0  0  0  0  0  0  0  0  0  0
    5.3822   -6.4151    0.0000 H   0  0  0  0  0  0  0  0  0  0  0  0
    5.1996   -3.8928    0.0000 H   0  0  0  0  0  0  0  0  0  0  0  0
    8.5855   -4.6952    0.0000 H   0  0  0  0  0  0  0  0  0  0  0  0
    7.9864   -4.2599    0.0000 H   0  0  0  0  0  0  0  0  0  0  0  0
    9.4936   -5.2465    0.0000 H   0  0  0  0  0  0  0  0  0  0  0  0
   10.1647   -6.7538    0.0000 H   0  0  0  0  0  0  0  0  0  0  0  0
    9.1948   -8.0887    0.0000 H   0  0  0  0  0  0  0  0  0  0  0  0
    7.5539   -7.9162    0.0000 H   0  0  0  0  0  0  0  0  0  0  0  0
    6.8828   -6.4089    0.0000 H   0  0  0  0  0  0  0  0  0  0  0  0
    5.9095   -6.1968    0.0000 H   0  0  0  0  0  0  0  0  0  0  0  0
    0.9028   -6.2439    0.0000 H   0  0  0  0  0  0  0  0  0  0  0  0
    1.7309   -6.8372    0.0000 H   0  0  0  0  0  0  0  0  0  0  0  0
    2.5040   -6.1740    0.0000 H   0  0  0  0  0  0  0  0  0  0  0  0
    0.6870   -4.5651    0.0000 H   0  0  0  0  0  0  0  0  0  0  0  0
    0.4027   -5.2930    0.0000 H   0  0  0  0  0  0  0  0  0  0  0  0
    0.8531   -5.9315    0.0000 H   0  0  0  0  0  0  0  0  0  0  0  0
  1  2  1  0  0  0  0
  2  3  1  0  0  0  0
  2  4  2  0  0  0  0
  4  5  1  0  0  0  0
  5  6  1  0  0  0  0
  6  7  1  0  0  0  0
  7  8  2  0  0  0  0
  7  9  1  0  0  0  0
  9 10  1  0  0  0  0
 10 11  1  0  0  0  0
 11 12  4  0  0  0  0
 12 13  4  0  0  0  0
 13 14  4  0  0  0  0
 14 15  1  0  0  0  0
 15 16  1  0  0  0  0
 16 17  4  0  0  0  0
 17 18  4  0  0  0  0
 18 19  4  0  0  0  0
 19 20  4  0  0  0  0
 20 21  4  0  0  0  0
 16 21  4  0  0  0  0
 14 22  4  0  0  0  0
 11 22  4  0  0  0  0
  6 23  1  0  0  0  0
  5 23  1  0  0  0  0
 23 24  1  0  0  0  0
 23 25  1  0  0  0  0
  1 26  1  0  0  0  0
  1 27  1  0  0  0  0
  1 28  1  0  0  0  0
  3 29  1  0  0  0  0
  3 30  1  0  0  0  0
  3 31  1  0  0  0  0
  4 32  1  0  0  0  0
  5 33  1  0  0  0  0
  6 34  1  0  0  0  0
 10 35  1  0  0  0  0
 10 36  1  0  0  0  0
 12 37  1  0  0  0  0
 15 38  1  0  0  0  0
 15 39  1  0  0  0  0
 17 40  1  0  0  0  0
 18 41  1  0  0  0  0
 19 42  1  0  0  0  0
 20 43  1  0  0  0  0
 21 44  1  0  0  0  0
 22 45  1  0  0  0  0
 24 46  1  0  0  0  0
 24 47  1  0  0  0  0
 24 48  1  0  0  0  0
 25 49  1  0  0  0  0
 25 50  1  0  0  0  0
 25 51  1  0  0  0  0
M  END
>  <InChIKey>
InChI=1S/C22H26O3/c1-15(2)10-19-20(22(19,3)4)21(23)25-14-17-12-18(24-13-17)11-16-8-6-5-7-9-16/h5-10,12-13,19-20H,11,14H2,1-4H3

>  <CASRN>
10453-86-8

> <Outcome>
0

>  <Index>
3029

>  <StandardizerResult>
Dearomatize (ID: Dearomatize)
Clear Stereo (ID: ClearStereo)
Wedge Clean (ID: WedgeClean)
Mesomerize (ID: Mesomerize)
Tautomerize (ID: Tautomerize)
Aromatize (ID: Aromatize)
Add Explicit Hydrogens (ID: AddExplicitH)
Neutralize (ID: Neutralize)
Clean 2D (ID: Clean2D)

> <knn Distance>
4.35889911651611

> <CpId>
3029

$$$$
3080
  Mrv1532301301811342D          

103105  0  0  0  0            999 V2000
   -0.3482   -9.0382    0.0000 C   0  0  0  0  0  0  0  0  0  0  0  0
    0.3663   -8.6257    0.0000 C   0  0  0  0  0  0  0  0  0  0  0  0
    0.3663   -7.8007    0.0000 C   0  0  0  0  0  0  0  0  0  0  0  0
    1.0808   -9.0382    0.0000 C   0  0  0  0  0  0  0  0  0  0  0  0
    1.7952   -8.6257    0.0000 C   0  0  0  0  0  0  0  0  0  0  0  0
    2.5097   -9.0382    0.0000 C   0  0  0  0  0  0  0  0  0  0  0  0
    3.2242   -8.6257    0.0000 C   0  0  0  0  0  0  0  0  0  0  0  0
    3.2242   -7.8007    0.0000 C   0  0  0  0  0  0  0  0  0  0  0  0
    3.9387   -9.0382    0.0000 C   0  0  0  0  0  0  0  0  0  0  0  0
    4.6531   -8.6257    0.0000 C   0  0  0  0  0  0  0  0  0  0  0  0
    5.3676   -9.0382    0.0000 C   0  0  0  0  0  0  0  0  0  0  0  0
    6.0821   -8.6257    0.0000 C   0  0  0  0  0  0  0  0  0  0  0  0
    6.0821   -7.8007    0.0000 C   0  0  0  0  0  0  0  0  0  0  0  0
    6.7965   -9.0382    0.0000 C   0  0  0  0  0  0  0  0  0  0  0  0
    7.5110   -8.6257    0.0000 C   0  0  0  0  0  0  0  0  0  0  0  0
    8.2255   -9.0382    0.0000 C   0  0  0  0  0  0  0  0  0  0  0  0
    8.9400   -8.6257    0.0000 C   0  0  0  0  0  0  0  0  0  0  0  0
    9.2221   -9.4010    0.0000 C   0  0  0  0  0  0  0  0  0  0  0  0
    8.4097   -7.9937    0.0000 C   0  0  0  0  0  0  0  0  0  0  0  0
    8.6918   -7.2185    0.0000 C   0  0  0  0  0  0  0  0  0  0  0  0
    9.5043   -7.0752    0.0000 C   0  0  0  0  0  0  0  0  0  0  0  0
    9.7865   -6.3000    0.0000 C   0  0  0  0  0  0  0  0  0  0  0  0
    9.2562   -5.6680    0.0000 C   0  0  0  0  0  0  0  0  0  0  0  0
   10.5989   -6.1567    0.0000 C   0  0  0  0  0  0  0  0  0  0  0  0
   10.8811   -5.3815    0.0000 O   0  0  0  0  0  0  0  0  0  0  0  0
   11.6936   -5.2382    0.0000 C   0  0  0  0  0  0  0  0  0  0  0  0
   12.2239   -5.8702    0.0000 O   0  0  0  0  0  0  0  0  0  0  0  0
   11.9757   -4.4630    0.0000 C   0  0  0  0  0  0  0  0  0  0  0  0
   12.7510   -4.7451    0.0000 C   0  0  0  0  0  0  0  0  0  0  0  0
   11.2005   -4.1808    0.0000 C   0  0  0  0  0  0  0  0  0  0  0  0
   12.2579   -3.6877    0.0000 O   0  0  0  0  0  0  0  0  0  0  0  0
   13.0703   -3.5445    0.0000 C   0  0  0  0  0  0  0  0  0  0  0  0
   13.3525   -2.7692    0.0000 C   0  0  0  0  0  0  0  0  0  0  0  0
   14.1650   -2.6260    0.0000 C   0  0  0  0  0  0  0  0  0  0  0  0
   14.6953   -3.2580    0.0000 C   0  0  0  0  0  0  0  0  0  0  0  0
   15.5077   -3.1147    0.0000 Cl  0  0  0  0  0  0  0  0  0  0  0  0
   14.4131   -4.0332    0.0000 C   0  0  0  0  0  0  0  0  0  0  0  0
   13.6006   -4.1765    0.0000 C   0  0  0  0  0  0  0  0  0  0  0  0
   11.1292   -6.7887    0.0000 C   0  0  0  0  0  0  0  0  0  0  0  0
   11.9417   -6.6455    0.0000 C   0  0  0  0  0  0  0  0  0  0  0  0
   10.8471   -7.5640    0.0000 C   0  0  0  0  0  0  0  0  0  0  0  0
   11.3774   -8.1959    0.0000 C   0  0  0  0  0  0  0  0  0  0  0  0
   10.0346   -7.7072    0.0000 C   0  0  0  0  0  0  0  0  0  0  0  0
    9.7524   -8.4825    0.0000 O   0  0  0  0  0  0  0  0  0  0  0  0
   -0.7607   -8.3238    0.0000 H   0  0  0  0  0  0  0  0  0  0  0  0
   -1.0626   -9.4507    0.0000 H   0  0  0  0  0  0  0  0  0  0  0  0
    0.0643   -9.7527    0.0000 H   0  0  0  0  0  0  0  0  0  0  0  0
   -0.3482   -8.2132    0.0000 H   0  0  0  0  0  0  0  0  0  0  0  0
    1.1632   -8.0143    0.0000 H   0  0  0  0  0  0  0  0  0  0  0  0
    0.7788   -7.0863    0.0000 H   0  0  0  0  0  0  0  0  0  0  0  0
   -0.2171   -7.2174    0.0000 H   0  0  0  0  0  0  0  0  0  0  0  0
    0.7105   -9.7755    0.0000 H   0  0  0  0  0  0  0  0  0  0  0  0
    1.4510   -9.7755    0.0000 H   0  0  0  0  0  0  0  0  0  0  0  0
    2.2920   -7.9671    0.0000 H   0  0  0  0  0  0  0  0  0  0  0  0
    1.7952   -9.4507    0.0000 H   0  0  0  0  0  0  0  0  0  0  0  0
    2.6530   -9.8507    0.0000 H   0  0  0  0  0  0  0  0  0  0  0  0
    3.1417   -9.5685    0.0000 H   0  0  0  0  0  0  0  0  0  0  0  0
    2.5097   -8.2132    0.0000 H   0  0  0  0  0  0  0  0  0  0  0  0
    3.9996   -8.0825    0.0000 H   0  0  0  0  0  0  0  0  0  0  0  0
    3.7538   -7.1682    0.0000 H   0  0  0  0  0  0  0  0  0  0  0  0
    2.8106   -7.0869    0.0000 H   0  0  0  0  0  0  0  0  0  0  0  0
    3.9736   -9.8625    0.0000 H   0  0  0  0  0  0  0  0  0  0  0  0
    4.6617   -9.4355    0.0000 H   0  0  0  0  0  0  0  0  0  0  0  0
    5.3898   -8.2543    0.0000 H   0  0  0  0  0  0  0  0  0  0  0  0
    4.7464   -7.8060    0.0000 H   0  0  0  0  0  0  0  0  0  0  0  0
    5.5054   -9.8516    0.0000 H   0  0  0  0  0  0  0  0  0  0  0  0
    5.9973   -9.5712    0.0000 H   0  0  0  0  0  0  0  0  0  0  0  0
    6.7965   -8.2132    0.0000 H   0  0  0  0  0  0  0  0  0  0  0  0
    6.7906   -7.3782    0.0000 H   0  0  0  0  0  0  0  0  0  0  0  0
    6.0588   -6.9761    0.0000 H   0  0  0  0  0  0  0  0  0  0  0  0
    5.3508   -7.4188    0.0000 H   0  0  0  0  0  0  0  0  0  0  0  0
    6.8320   -9.8625    0.0000 H   0  0  0  0  0  0  0  0  0  0  0  0
    7.5197   -9.4353    0.0000 H   0  0  0  0  0  0  0  0  0  0  0  0
    8.1430   -8.0954    0.0000 H   0  0  0  0  0  0  0  0  0  0  0  0
    7.6543   -7.8133    0.0000 H   0  0  0  0  0  0  0  0  0  0  0  0
    8.3632   -9.8517    0.0000 H   0  0  0  0  0  0  0  0  0  0  0  0
    8.8552   -9.5713    0.0000 H   0  0  0  0  0  0  0  0  0  0  0  0
    9.2691  -10.2246    0.0000 H   0  0  0  0  0  0  0  0  0  0  0  0
    9.9915   -9.6987    0.0000 H   0  0  0  0  0  0  0  0  0  0  0  0
    9.8113   -8.8235    0.0000 H   0  0  0  0  0  0  0  0  0  0  0  0
    8.2022   -8.7922    0.0000 H   0  0  0  0  0  0  0  0  0  0  0  0
    9.2221   -7.8505    0.0000 H   0  0  0  0  0  0  0  0  0  0  0  0
    8.5016   -6.4157    0.0000 H   0  0  0  0  0  0  0  0  0  0  0  0
    7.9343   -6.8917    0.0000 H   0  0  0  0  0  0  0  0  0  0  0  0
    9.8881   -5.1377    0.0000 H   0  0  0  0  0  0  0  0  0  0  0  0
    8.7259   -5.0360    0.0000 H   0  0  0  0  0  0  0  0  0  0  0  0
    8.6242   -6.1983    0.0000 H   0  0  0  0  0  0  0  0  0  0  0  0
   12.4688   -5.5204    0.0000 H   0  0  0  0  0  0  0  0  0  0  0  0
   13.5262   -5.0273    0.0000 H   0  0  0  0  0  0  0  0  0  0  0  0
   13.0331   -3.9699    0.0000 H   0  0  0  0  0  0  0  0  0  0  0  0
   11.4826   -3.4056    0.0000 H   0  0  0  0  0  0  0  0  0  0  0  0
   10.4252   -3.8986    0.0000 H   0  0  0  0  0  0  0  0  0  0  0  0
   10.9183   -4.9561    0.0000 H   0  0  0  0  0  0  0  0  0  0  0  0
   12.8222   -2.1372    0.0000 H   0  0  0  0  0  0  0  0  0  0  0  0
   14.4471   -1.8507    0.0000 H   0  0  0  0  0  0  0  0  0  0  0  0
   14.9434   -4.6652    0.0000 H   0  0  0  0  0  0  0  0  0  0  0  0
   13.8828   -3.4012    0.0000 H   0  0  0  0  0  0  0  0  0  0  0  0
   11.6595   -7.4207    0.0000 H   0  0  0  0  0  0  0  0  0  0  0  0
   12.4720   -7.2774    0.0000 H   0  0  0  0  0  0  0  0  0  0  0  0
   12.7541   -6.5022    0.0000 H   0  0  0  0  0  0  0  0  0  0  0  0
   10.6296   -8.5446    0.0000 H   0  0  0  0  0  0  0  0  0  0  0  0
   11.5206   -9.0084    0.0000 H   0  0  0  0  0  0  0  0  0  0  0  0
   12.1992   -8.2679    0.0000 H   0  0  0  0  0  0  0  0  0  0  0  0
  1  2  1  0  0  0  0
  2  3  1  0  0  0  0
  2  4  1  0  0  0  0
  4  5  1  0  0  0  0
  5  6  1  0  0  0  0
  6  7  1  0  0  0  0
  7  8  1  0  0  0  0
  7  9  1  0  0  0  0
  9 10  1  0  0  0  0
 10 11  1  0  0  0  0
 11 12  1  0  0  0  0
 12 13  1  0  0  0  0
 12 14  1  0  0  0  0
 14 15  1  0  0  0  0
 15 16  1  0  0  0  0
 16 17  1  0  0  0  0
 17 18  1  0  0  0  0
 17 19  1  0  0  0  0
 19 20  1  0  0  0  0
 20 21  1  0  0  0  0
 21 22  4  0  0  0  0
 22 23  1  0  0  0  0
 22 24  4  0  0  0  0
 24 25  1  0  0  0  0
 25 26  1  0  0  0  0
 26 27  2  0  0  0  0
 26 28  1  0  0  0  0
 28 29  1  0  0  0  0
 28 30  1  0  0  0  0
 28 31  1  0  0  0  0
 31 32  1  0  0  0  0
 32 33  4  0  0  0  0
 33 34  4  0  0  0  0
 34 35  4  0  0  0  0
 35 36  1  0  0  0  0
 35 37  4  0  0  0  0
 37 38  4  0  0  0  0
 32 38  4  0  0  0  0
 24 39  4  0  0  0  0
 39 40  1  0  0  0  0
 39 41  4  0  0  0  0
 41 42  1  0  0  0  0
 41 43  4  0  0  0  0
 21 43  4  0  0  0  0
 43 44  1  0  0  0  0
 17 44  1  0  0  0  0
  1 45  1  0  0  0  0
  1 46  1  0  0  0  0
  1 47  1  0  0  0  0
  2 48  1  0  0  0  0
  3 49  1  0  0  0  0
  3 50  1  0  0  0  0
  3 51  1  0  0  0  0
  4 52  1  0  0  0  0
  4 53  1  0  0  0  0
  5 54  1  0  0  0  0
  5 55  1  0  0  0  0
  6 56  1  0  0  0  0
  6 57  1  0  0  0  0
  7 58  1  0  0  0  0
  8 59  1  0  0  0  0
  8 60  1  0  0  0  0
  8 61  1  0  0  0  0
  9 62  1  0  0  0  0
  9 63  1  0  0  0  0
 10 64  1  0  0  0  0
 10 65  1  0  0  0  0
 11 66  1  0  0  0  0
 11 67  1  0  0  0  0
 12 68  1  0  0  0  0
 13 69  1  0  0  0  0
 13 70  1  0  0  0  0
 13 71  1  0  0  0  0
 14 72  1  0  0  0  0
 14 73  1  0  0  0  0
 15 74  1  0  0  0  0
 15 75  1  0  0  0  0
 16 76  1  0  0  0  0
 16 77  1  0  0  0  0
 18 78  1  0  0  0  0
 18 79  1  0  0  0  0
 18 80  1  0  0  0  0
 19 81  1  0  0  0  0
 19 82  1  0  0  0  0
 20 83  1  0  0  0  0
 20 84  1  0  0  0  0
 23 85  1  0  0  0  0
 23 86  1  0  0  0  0
 23 87  1  0  0  0  0
 29 88  1  0  0  0  0
 29 89  1  0  0  0  0
 29 90  1  0  0  0  0
 30 91  1  0  0  0  0
 30 92  1  0  0  0  0
 30 93  1  0  0  0  0
 33 94  1  0  0  0  0
 34 95  1  0  0  0  0
 37 96  1  0  0  0  0
 38 97  1  0  0  0  0
 40 98  1  0  0  0  0
 40 99  1  0  0  0  0
 40100  1  0  0  0  0
 42101  1  0  0  0  0
 42102  1  0  0  0  0
 42103  1  0  0  0  0
M  END
>  <InChIKey>
InChI=1S/C39H59ClO4/c1-26(2)14-11-15-27(3)16-12-17-28(4)18-13-24-39(10)25-23-34-31(7)35(29(5)30(6)36(34)44-39)42-37(41)38(8,9)43-33-21-19-32(40)20-22-33/h19-22,26-28H,11-18,23-25H2,1-10H3

>  <CASRN>
50465-39-9

> <Outcome>
0

>  <Index>
3080

>  <StandardizerResult>
Dearomatize (ID: Dearomatize)
Clear Stereo (ID: ClearStereo)
Wedge Clean (ID: WedgeClean)
Mesomerize (ID: Mesomerize)
Tautomerize (ID: Tautomerize)
Aromatize (ID: Aromatize)
Add Explicit Hydrogens (ID: AddExplicitH)
Neutralize (ID: Neutralize)
Clean 2D (ID: Clean2D)

> <knn Distance>
4.35889911651611

> <CpId>
3080

$$$$
3087
  Mrv1532301301811342D          

 24 24  0  0  0  0            999 V2000
    0.0000    3.3000    0.0000 C   0  0  0  0  0  0  0  0  0  0  0  0
    0.0000    2.4750    0.0000 C   0  0  0  0  0  0  0  0  0  0  0  0
    0.7145    2.0625    0.0000 C   0  0  0  0  0  0  0  0  0  0  0  0
    0.7145    1.2375    0.0000 C   0  0  0  0  0  0  0  0  0  0  0  0
    1.4289    0.8250    0.0000 C   0  0  0  0  0  0  0  0  0  0  0  0
    1.4289   -0.0000    0.0000 C   0  0  0  0  0  0  0  0  0  0  0  0
    0.7145   -0.4125    0.0000 C   0  0  0  0  0  0  0  0  0  0  0  0
    0.0000   -0.0000    0.0000 C   0  0  0  0  0  0  0  0  0  0  0  0
    0.0000    0.8250    0.0000 N   0  0  0  0  0  0  0  0  0  0  0  0
    2.1434   -0.4125    0.0000 C   0  0  0  0  0  0  0  0  0  0  0  0
    2.8579   -0.0000    0.0000 N   0  0  0  0  0  0  0  0  0  0  0  0
    2.1434   -1.2375    0.0000 S   0  0  0  0  0  0  0  0  0  0  0  0
    0.8250    3.3000    0.0000 H   0  0  0  0  0  0  0  0  0  0  0  0
    0.0000    4.1250    0.0000 H   0  0  0  0  0  0  0  0  0  0  0  0
   -0.8250    3.3000    0.0000 H   0  0  0  0  0  0  0  0  0  0  0  0
   -0.8236    2.4270    0.0000 H   0  0  0  0  0  0  0  0  0  0  0  0
   -0.4533    1.7857    0.0000 H   0  0  0  0  0  0  0  0  0  0  0  0
    1.5381    2.1105    0.0000 H   0  0  0  0  0  0  0  0  0  0  0  0
    1.1678    2.7518    0.0000 H   0  0  0  0  0  0  0  0  0  0  0  0
    2.1434    1.2375    0.0000 H   0  0  0  0  0  0  0  0  0  0  0  0
    0.7145   -1.2375    0.0000 H   0  0  0  0  0  0  0  0  0  0  0  0
   -0.7145   -0.4125    0.0000 H   0  0  0  0  0  0  0  0  0  0  0  0
    3.5724   -0.4125    0.0000 H   0  0  0  0  0  0  0  0  0  0  0  0
    2.8579    0.8250    0.0000 H   0  0  0  0  0  0  0  0  0  0  0  0
  1  2  1  0  0  0  0
  2  3  1  0  0  0  0
  3  4  1  0  0  0  0
  4  5  4  0  0  0  0
  5  6  4  0  0  0  0
  6  7  4  0  0  0  0
  7  8  4  0  0  0  0
  8  9  4  0  0  0  0
  4  9  4  0  0  0  0
  6 10  1  0  0  0  0
 10 11  1  0  0  0  0
 10 12  2  0  0  0  0
  1 13  1  0  0  0  0
  1 14  1  0  0  0  0
  1 15  1  0  0  0  0
  2 16  1  0  0  0  0
  2 17  1  0  0  0  0
  3 18  1  0  0  0  0
  3 19  1  0  0  0  0
  5 20  1  0  0  0  0
  7 21  1  0  0  0  0
  8 22  1  0  0  0  0
 11 23  1  0  0  0  0
 11 24  1  0  0  0  0
M  END
>  <InChIKey>
InChI=1S/C9H12N2S/c1-2-3-8-6-7(9(10)12)4-5-11-8/h4-6H,2-3H2,1H3,(H2,10,12)

>  <CASRN>
14222-60-7

> <Outcome>
0

>  <Index>
3087

>  <StandardizerResult>
Dearomatize (ID: Dearomatize)
Clear Stereo (ID: ClearStereo)
Wedge Clean (ID: WedgeClean)
Mesomerize (ID: Mesomerize)
Tautomerize (ID: Tautomerize)
Aromatize (ID: Aromatize)
Add Explicit Hydrogens (ID: AddExplicitH)
Neutralize (ID: Neutralize)
Clean 2D (ID: Clean2D)

> <knn Distance>
4.35889911651611

> <CpId>
3087

$$$$
3089
  Mrv1532301301811342D          

 45 45  0  0  0  0            999 V2000
    2.0512   -2.0734    0.0000 C   0  0  0  0  0  0  0  0  0  0  0  0
    1.3367   -2.4859    0.0000 C   0  0  0  0  0  0  0  0  0  0  0  0
    1.3367   -3.3109    0.0000 C   0  0  0  0  0  0  0  0  0  0  0  0
    0.6223   -2.0734    0.0000 C   0  0  0  0  0  0  0  0  0  0  0  0
   -0.0922   -2.4859    0.0000 C   0  0  0  0  0  0  0  0  0  0  0  0
   -0.8067   -2.0734    0.0000 C   0  0  0  0  0  0  0  0  0  0  0  0
   -1.5211   -2.4859    0.0000 O   0  0  0  0  0  0  0  0  0  0  0  0
   -2.2356   -2.0734    0.0000 C   0  0  0  0  0  0  0  0  0  0  0  0
   -2.9501   -2.4859    0.0000 C   0  0  0  0  0  0  0  0  0  0  0  0
   -2.2356   -1.2484    0.0000 O   0  0  0  0  0  0  0  0  0  0  0  0
   -0.8067   -1.2484    0.0000 C   0  0  0  0  0  0  0  0  0  0  0  0
   -1.5211   -0.8359    0.0000 C   0  0  0  0  0  0  0  0  0  0  0  0
   -0.0922   -0.8359    0.0000 C   0  0  0  0  0  0  0  0  0  0  0  0
    0.6223   -1.2484    0.0000 C   0  0  0  0  0  0  0  0  0  0  0  0
    1.3367   -0.8359    0.0000 O   0  0  0  0  0  0  0  0  0  0  0  0
    2.0512   -1.2484    0.0000 C   0  0  0  0  0  0  0  0  0  0  0  0
    2.7657   -0.8359    0.0000 C   0  0  0  0  0  0  0  0  0  0  0  0
    3.4802   -1.2484    0.0000 N   0  0  0  0  0  0  0  0  0  0  0  0
    4.1946   -0.8359    0.0000 C   0  0  0  0  0  0  0  0  0  0  0  0
    3.4802   -2.0734    0.0000 C   0  0  0  0  0  0  0  0  0  0  0  0
    2.0512   -2.8984    0.0000 H   0  0  0  0  0  0  0  0  0  0  0  0
    2.7657   -2.4859    0.0000 H   0  0  0  0  0  0  0  0  0  0  0  0
    2.7657   -1.6609    0.0000 H   0  0  0  0  0  0  0  0  0  0  0  0
    0.6223   -2.8984    0.0000 H   0  0  0  0  0  0  0  0  0  0  0  0
    0.6223   -3.7234    0.0000 H   0  0  0  0  0  0  0  0  0  0  0  0
    1.3367   -4.1359    0.0000 H   0  0  0  0  0  0  0  0  0  0  0  0
    2.0512   -3.7234    0.0000 H   0  0  0  0  0  0  0  0  0  0  0  0
   -0.5047   -3.2004    0.0000 H   0  0  0  0  0  0  0  0  0  0  0  0
   -3.3626   -1.7714    0.0000 H   0  0  0  0  0  0  0  0  0  0  0  0
   -3.6646   -2.8984    0.0000 H   0  0  0  0  0  0  0  0  0  0  0  0
   -2.5376   -3.2004    0.0000 H   0  0  0  0  0  0  0  0  0  0  0  0
   -0.8067   -0.4234    0.0000 H   0  0  0  0  0  0  0  0  0  0  0  0
   -1.5211   -0.0109    0.0000 H   0  0  0  0  0  0  0  0  0  0  0  0
   -2.2356   -0.4234    0.0000 H   0  0  0  0  0  0  0  0  0  0  0  0
    0.3203   -0.1214    0.0000 H   0  0  0  0  0  0  0  0  0  0  0  0
    1.3367   -1.6609    0.0000 H   0  0  0  0  0  0  0  0  0  0  0  0
    2.0512   -0.4234    0.0000 H   0  0  0  0  0  0  0  0  0  0  0  0
    3.3977   -0.3056    0.0000 H   0  0  0  0  0  0  0  0  0  0  0  0
    2.9089   -0.0234    0.0000 H   0  0  0  0  0  0  0  0  0  0  0  0
    4.3955   -1.6361    0.0000 H   0  0  0  0  0  0  0  0  0  0  0  0
    5.0192   -0.8621    0.0000 H   0  0  0  0  0  0  0  0  0  0  0  0
    4.4459   -0.0501    0.0000 H   0  0  0  0  0  0  0  0  0  0  0  0
    3.4802   -2.8984    0.0000 H   0  0  0  0  0  0  0  0  0  0  0  0
    4.1946   -2.4859    0.0000 H   0  0  0  0  0  0  0  0  0  0  0  0
    4.1946   -1.6609    0.0000 H   0  0  0  0  0  0  0  0  0  0  0  0
  1  2  1  0  0  0  0
  2  3  1  0  0  0  0
  2  4  1  0  0  0  0
  4  5  4  0  0  0  0
  5  6  4  0  0  0  0
  6  7  1  0  0  0  0
  7  8  1  0  0  0  0
  8  9  1  0  0  0  0
  8 10  2  0  0  0  0
  6 11  4  0  0  0  0
 11 12  1  0  0  0  0
 11 13  4  0  0  0  0
 13 14  4  0  0  0  0
  4 14  4  0  0  0  0
 14 15  1  0  0  0  0
 15 16  1  0  0  0  0
 16 17  1  0  0  0  0
 17 18  1  0  0  0  0
 18 19  1  0  0  0  0
 18 20  1  0  0  0  0
  1 21  1  0  0  0  0
  1 22  1  0  0  0  0
  1 23  1  0  0  0  0
  2 24  1  0  0  0  0
  3 25  1  0  0  0  0
  3 26  1  0  0  0  0
  3 27  1  0  0  0  0
  5 28  1  0  0  0  0
  9 29  1  0  0  0  0
  9 30  1  0  0  0  0
  9 31  1  0  0  0  0
 12 32  1  0  0  0  0
 12 33  1  0  0  0  0
 12 34  1  0  0  0  0
 13 35  1  0  0  0  0
 16 36  1  0  0  0  0
 16 37  1  0  0  0  0
 17 38  1  0  0  0  0
 17 39  1  0  0  0  0
 19 40  1  0  0  0  0
 19 41  1  0  0  0  0
 19 42  1  0  0  0  0
 20 43  1  0  0  0  0
 20 44  1  0  0  0  0
 20 45  1  0  0  0  0
M  END
>  <InChIKey>
InChI=1S/C16H25NO3/c1-11(2)14-10-15(20-13(4)18)12(3)9-16(14)19-8-7-17(5)6/h9-11H,7-8H2,1-6H3

>  <CASRN>
54-32-0

> <Outcome>
0

>  <Index>
3089

>  <StandardizerResult>
Dearomatize (ID: Dearomatize)
Clear Stereo (ID: ClearStereo)
Wedge Clean (ID: WedgeClean)
Mesomerize (ID: Mesomerize)
Tautomerize (ID: Tautomerize)
Aromatize (ID: Aromatize)
Add Explicit Hydrogens (ID: AddExplicitH)
Neutralize (ID: Neutralize)
Clean 2D (ID: Clean2D)

> <knn Distance>
4.35889911651611

> <CpId>
3089

$$$$
3099
  Mrv1532301301811342D          

 48 48  0  0  0  0            999 V2000
    0.6486   -3.6770    0.0000 C   0  0  0  0  0  0  0  0  0  0  0  0
    1.3631   -4.0895    0.0000 C   0  0  0  0  0  0  0  0  0  0  0  0
    2.0775   -3.6770    0.0000 C   0  0  0  0  0  0  0  0  0  0  0  0
    2.7920   -4.0895    0.0000 N   0  0  0  0  0  0  0  0  0  0  0  0
    2.7920   -4.9145    0.0000 C   0  0  0  0  0  0  0  0  0  0  0  0
    3.5065   -5.3270    0.0000 C   0  0  0  0  0  0  0  0  0  0  0  0
    3.5065   -3.6770    0.0000 C   0  0  0  0  0  0  0  0  0  0  0  0
    3.5065   -2.8520    0.0000 C   0  0  0  0  0  0  0  0  0  0  0  0
    4.2210   -2.4395    0.0000 C   0  0  0  0  0  0  0  0  0  0  0  0
    4.2210   -4.0895    0.0000 C   0  0  0  0  0  0  0  0  0  0  0  0
    4.2210   -4.9145    0.0000 O   0  0  0  0  0  0  0  0  0  0  0  0
    4.9354   -3.6770    0.0000 N   0  0  0  0  0  0  0  0  0  0  0  0
    5.6499   -4.0895    0.0000 C   0  0  0  0  0  0  0  0  0  0  0  0
    6.3644   -3.6770    0.0000 C   0  0  0  0  0  0  0  0  0  0  0  0
    6.3644   -2.8520    0.0000 C   0  0  0  0  0  0  0  0  0  0  0  0
    7.0788   -4.0895    0.0000 C   0  0  0  0  0  0  0  0  0  0  0  0
    7.0788   -4.9145    0.0000 C   0  0  0  0  0  0  0  0  0  0  0  0
    6.3644   -5.3270    0.0000 C   0  0  0  0  0  0  0  0  0  0  0  0
    5.6499   -4.9145    0.0000 C   0  0  0  0  0  0  0  0  0  0  0  0
    4.9354   -5.3270    0.0000 C   0  0  0  0  0  0  0  0  0  0  0  0
    1.0611   -2.9625    0.0000 H   0  0  0  0  0  0  0  0  0  0  0  0
   -0.0659   -3.2645    0.0000 H   0  0  0  0  0  0  0  0  0  0  0  0
    0.2361   -4.3915    0.0000 H   0  0  0  0  0  0  0  0  0  0  0  0
    0.9928   -4.8267    0.0000 H   0  0  0  0  0  0  0  0  0  0  0  0
    1.7333   -4.8267    0.0000 H   0  0  0  0  0  0  0  0  0  0  0  0
    2.4478   -2.9397    0.0000 H   0  0  0  0  0  0  0  0  0  0  0  0
    1.7073   -2.9397    0.0000 H   0  0  0  0  0  0  0  0  0  0  0  0
    1.9684   -4.9625    0.0000 H   0  0  0  0  0  0  0  0  0  0  0  0
    2.3387   -5.6038    0.0000 H   0  0  0  0  0  0  0  0  0  0  0  0
    2.7920   -5.7395    0.0000 H   0  0  0  0  0  0  0  0  0  0  0  0
    3.5065   -6.1520    0.0000 H   0  0  0  0  0  0  0  0  0  0  0  0
    4.2210   -5.7395    0.0000 H   0  0  0  0  0  0  0  0  0  0  0  0
    2.7920   -3.2645    0.0000 H   0  0  0  0  0  0  0  0  0  0  0  0
    3.3632   -2.0395    0.0000 H   0  0  0  0  0  0  0  0  0  0  0  0
    2.8745   -2.3217    0.0000 H   0  0  0  0  0  0  0  0  0  0  0  0
    4.4518   -3.2315    0.0000 H   0  0  0  0  0  0  0  0  0  0  0  0
    5.0452   -2.4035    0.0000 H   0  0  0  0  0  0  0  0  0  0  0  0
    4.3819   -1.6303    0.0000 H   0  0  0  0  0  0  0  0  0  0  0  0
    5.4241   -3.0123    0.0000 H   0  0  0  0  0  0  0  0  0  0  0  0
    7.1392   -3.1352    0.0000 H   0  0  0  0  0  0  0  0  0  0  0  0
    6.8965   -2.2215    0.0000 H   0  0  0  0  0  0  0  0  0  0  0  0
    5.9549   -2.1358    0.0000 H   0  0  0  0  0  0  0  0  0  0  0  0
    7.9034   -4.1155    0.0000 H   0  0  0  0  0  0  0  0  0  0  0  0
    7.7933   -5.3270    0.0000 H   0  0  0  0  0  0  0  0  0  0  0  0
    6.3644   -6.1520    0.0000 H   0  0  0  0  0  0  0  0  0  0  0  0
    5.0787   -6.1395    0.0000 H   0  0  0  0  0  0  0  0  0  0  0  0
    5.5674   -5.8573    0.0000 H   0  0  0  0  0  0  0  0  0  0  0  0
    4.9354   -4.5020    0.0000 H   0  0  0  0  0  0  0  0  0  0  0  0
  1  2  1  0  0  0  0
  2  3  1  0  0  0  0
  3  4  1  0  0  0  0
  4  5  1  0  0  0  0
  5  6  1  0  0  0  0
  4  7  1  0  0  0  0
  7  8  1  0  0  0  0
  8  9  1  0  0  0  0
  7 10  1  0  0  0  0
 10 11  2  0  0  0  0
 10 12  1  0  0  0  0
 12 13  1  0  0  0  0
 13 14  4  0  0  0  0
 14 15  1  0  0  0  0
 14 16  4  0  0  0  0
 16 17  4  0  0  0  0
 17 18  4  0  0  0  0
 18 19  4  0  0  0  0
 13 19  4  0  0  0  0
 19 20  1  0  0  0  0
  1 21  1  0  0  0  0
  1 22  1  0  0  0  0
  1 23  1  0  0  0  0
  2 24  1  0  0  0  0
  2 25  1  0  0  0  0
  3 26  1  0  0  0  0
  3 27  1  0  0  0  0
  5 28  1  0  0  0  0
  5 29  1  0  0  0  0
  6 30  1  0  0  0  0
  6 31  1  0  0  0  0
  6 32  1  0  0  0  0
  7 33  1  0  0  0  0
  8 34  1  0  0  0  0
  8 35  1  0  0  0  0
  9 36  1  0  0  0  0
  9 37  1  0  0  0  0
  9 38  1  0  0  0  0
 12 39  1  0  0  0  0
 15 40  1  0  0  0  0
 15 41  1  0  0  0  0
 15 42  1  0  0  0  0
 16 43  1  0  0  0  0
 17 44  1  0  0  0  0
 18 45  1  0  0  0  0
 20 46  1  0  0  0  0
 20 47  1  0  0  0  0
 20 48  1  0  0  0  0
M  END
>  <InChIKey>
InChI=1S/C17H28N2O/c1-6-12-19(8-3)15(7-2)17(20)18-16-13(4)10-9-11-14(16)5/h9-11,15H,6-8,12H2,1-5H3,(H,18,20)

>  <CASRN>
36637-18-0

> <Outcome>
0

>  <Index>
3099

>  <StandardizerResult>
Dearomatize (ID: Dearomatize)
Clear Stereo (ID: ClearStereo)
Wedge Clean (ID: WedgeClean)
Mesomerize (ID: Mesomerize)
Tautomerize (ID: Tautomerize)
Aromatize (ID: Aromatize)
Add Explicit Hydrogens (ID: AddExplicitH)
Neutralize (ID: Neutralize)
Clean 2D (ID: Clean2D)

> <knn Distance>
4.35889911651611

> <CpId>
3099

$$$$
3130
  Mrv1532301301811342D          

 62 66  0  0  0  0            999 V2000
    3.3884   -3.2520    0.0000 C   0  0  0  0  0  0  0  0  0  0  0  0
    3.8695   -2.5819    0.0000 C   0  0  0  0  0  0  0  0  0  0  0  0
    3.1528   -2.1734    0.0000 C   0  0  0  0  0  0  0  0  0  0  0  0
    4.2009   -1.8263    0.0000 O   0  0  0  0  0  0  0  0  0  0  0  0
    5.0218   -1.9079    0.0000 C   0  0  0  0  0  0  0  0  0  0  0  0
    5.7339   -1.4914    0.0000 C   0  0  0  0  0  0  0  0  0  0  0  0
    6.3501   -2.0400    0.0000 C   0  0  0  0  0  0  0  0  0  0  0  0
    7.1701   -1.9491    0.0000 C   0  0  0  0  0  0  0  0  0  0  0  0
    7.5014   -1.1936    0.0000 C   0  0  0  0  0  0  0  0  0  0  0  0
    8.3214   -1.1027    0.0000 C   0  0  0  0  0  0  0  0  0  0  0  0
    8.8101   -1.7674    0.0000 C   0  0  0  0  0  0  0  0  0  0  0  0
    9.6301   -1.6765    0.0000 C   0  0  0  0  0  0  0  0  0  0  0  0
   10.1187   -2.3412    0.0000 C   0  0  0  0  0  0  0  0  0  0  0  0
   10.9387   -2.2504    0.0000 O   0  0  0  0  0  0  0  0  0  0  0  0
    9.7874   -3.0968    0.0000 C   0  0  0  0  0  0  0  0  0  0  0  0
    8.9675   -3.1876    0.0000 C   0  0  0  0  0  0  0  0  0  0  0  0
    8.4788   -2.5229    0.0000 C   0  0  0  0  0  0  0  0  0  0  0  0
    8.1475   -3.2785    0.0000 C   0  0  0  0  0  0  0  0  0  0  0  0
    7.6588   -2.6138    0.0000 C   0  0  0  0  0  0  0  0  0  0  0  0
    7.3275   -3.3694    0.0000 C   0  0  0  0  0  0  0  0  0  0  0  0
    7.8162   -4.0341    0.0000 O   0  0  0  0  0  0  0  0  0  0  0  0
    6.5075   -3.4602    0.0000 C   0  0  0  0  0  0  0  0  0  0  0  0
    6.0188   -2.7955    0.0000 C   0  0  0  0  0  0  0  0  0  0  0  0
    5.8519   -3.6034    0.0000 C   0  0  0  0  0  0  0  0  0  0  0  0
    5.1979   -2.7139    0.0000 C   0  0  0  0  0  0  0  0  0  0  0  0
    4.4857   -3.1304    0.0000 O   0  0  0  0  0  0  0  0  0  0  0  0
    5.3740   -3.5199    0.0000 C   0  0  0  0  0  0  0  0  0  0  0  0
    6.0441   -4.0011    0.0000 O   0  0  0  0  0  0  0  0  0  0  0  0
    4.7640   -4.0754    0.0000 C   0  0  0  0  0  0  0  0  0  0  0  0
    3.9779   -3.8249    0.0000 O   0  0  0  0  0  0  0  0  0  0  0  0
    2.9797   -2.5354    0.0000 H   0  0  0  0  0  0  0  0  0  0  0  0
    2.5666   -3.3250    0.0000 H   0  0  0  0  0  0  0  0  0  0  0  0
    3.1123   -4.0295    0.0000 H   0  0  0  0  0  0  0  0  0  0  0  0
    3.7952   -1.6559    0.0000 H   0  0  0  0  0  0  0  0  0  0  0  0
    2.9063   -1.3861    0.0000 H   0  0  0  0  0  0  0  0  0  0  0  0
    2.3299   -2.1146    0.0000 H   0  0  0  0  0  0  0  0  0  0  0  0
    4.8457   -1.1019    0.0000 H   0  0  0  0  0  0  0  0  0  0  0  0
    6.4071   -1.0144    0.0000 H   0  0  0  0  0  0  0  0  0  0  0  0
    5.8868   -0.6807    0.0000 H   0  0  0  0  0  0  0  0  0  0  0  0
    6.8388   -2.7047    0.0000 H   0  0  0  0  0  0  0  0  0  0  0  0
    6.6814   -1.2844    0.0000 H   0  0  0  0  0  0  0  0  0  0  0  0
    7.6965   -0.3920    0.0000 H   0  0  0  0  0  0  0  0  0  0  0  0
    7.1356   -0.4541    0.0000 H   0  0  0  0  0  0  0  0  0  0  0  0
    9.1048   -0.8441    0.0000 H   0  0  0  0  0  0  0  0  0  0  0  0
    8.7416   -0.3927    0.0000 H   0  0  0  0  0  0  0  0  0  0  0  0
    9.9614   -0.9210    0.0000 H   0  0  0  0  0  0  0  0  0  0  0  0
   10.2761   -3.7615    0.0000 H   0  0  0  0  0  0  0  0  0  0  0  0
    9.0583   -4.0076    0.0000 H   0  0  0  0  0  0  0  0  0  0  0  0
    8.2383   -4.0985    0.0000 H   0  0  0  0  0  0  0  0  0  0  0  0
    8.6361   -3.9432    0.0000 H   0  0  0  0  0  0  0  0  0  0  0  0
    8.9030   -3.6098    0.0000 H   0  0  0  0  0  0  0  0  0  0  0  0
    7.9901   -1.8583    0.0000 H   0  0  0  0  0  0  0  0  0  0  0  0
    6.9962   -4.1249    0.0000 H   0  0  0  0  0  0  0  0  0  0  0  0
    7.7992   -4.8589    0.0000 H   0  0  0  0  0  0  0  0  0  0  0  0
    6.4768   -4.2846    0.0000 H   0  0  0  0  0  0  0  0  0  0  0  0
    6.4166   -2.6402    0.0000 H   0  0  0  0  0  0  0  0  0  0  0  0
    5.5845   -2.8230    0.0000 H   0  0  0  0  0  0  0  0  0  0  0  0
    5.2245   -3.0676    0.0000 H   0  0  0  0  0  0  0  0  0  0  0  0
    5.3547   -4.2618    0.0000 H   0  0  0  0  0  0  0  0  0  0  0  0
    4.2604   -4.7289    0.0000 H   0  0  0  0  0  0  0  0  0  0  0  0
    4.7988   -4.8996    0.0000 H   0  0  0  0  0  0  0  0  0  0  0  0
    3.5695   -4.5417    0.0000 H   0  0  0  0  0  0  0  0  0  0  0  0
  1  2  1  0  0  0  0
  2  3  1  0  0  0  0
  2  4  1  0  0  0  0
  4  5  1  0  0  0  0
  5  6  1  0  0  0  0
  6  7  1  0  0  0  0
  7  8  1  0  0  0  0
  8  9  1  0  0  0  0
  9 10  1  0  0  0  0
 10 11  1  0  0  0  0
 11 12  2  0  0  0  0
 12 13  1  0  0  0  0
 13 14  2  0  0  0  0
 13 15  1  0  0  0  0
 15 16  2  0  0  0  0
 16 17  1  0  0  0  0
 11 17  1  0  0  0  0
 17 18  1  0  0  0  0
 17 19  1  0  0  0  0
  8 19  1  0  0  0  0
 19 20  1  0  0  0  0
 20 21  1  0  0  0  0
 20 22  1  0  0  0  0
 22 23  1  0  0  0  0
  7 23  1  0  0  0  0
 23 24  1  0  0  0  0
 23 25  1  0  0  0  0
  5 25  1  0  0  0  0
 25 26  1  0  0  0  0
  2 26  1  0  0  0  0
 25 27  1  0  0  0  0
 27 28  2  0  0  0  0
 27 29  1  0  0  0  0
 29 30  1  0  0  0  0
  1 31  1  0  0  0  0
  1 32  1  0  0  0  0
  1 33  1  0  0  0  0
  3 34  1  0  0  0  0
  3 35  1  0  0  0  0
  3 36  1  0  0  0  0
  5 37  1  0  0  0  0
  6 38  1  0  0  0  0
  6 39  1  0  0  0  0
  7 40  1  0  0  0  0
  8 41  1  0  0  0  0
  9 42  1  0  0  0  0
  9 43  1  0  0  0  0
 10 44  1  0  0  0  0
 10 45  1  0  0  0  0
 12 46  1  0  0  0  0
 15 47  1  0  0  0  0
 16 48  1  0  0  0  0
 18 49  1  0  0  0  0
 18 50  1  0  0  0  0
 18 51  1  0  0  0  0
 19 52  1  0  0  0  0
 20 53  1  0  0  0  0
 21 54  1  0  0  0  0
 22 55  1  0  0  0  0
 22 56  1  0  0  0  0
 24 57  1  0  0  0  0
 24 58  1  0  0  0  0
 24 59  1  0  0  0  0
 29 60  1  0  0  0  0
 29 61  1  0  0  0  0
 30 62  1  0  0  0  0
M  END
>  <InChIKey>
InChI=1S/C24H32O6/c1-21(2)29-19-10-16-15-6-5-13-9-14(26)7-8-22(13,3)20(15)17(27)11-23(16,4)24(19,30-21)18(28)12-25/h7-9,15-17,19-20,25,27H,5-6,10-12H2,1-4H3

>  <CASRN>
638-94-8

> <Outcome>
0

>  <Index>
3130

>  <StandardizerResult>
Clear Stereo (ID: ClearStereo)
Wedge Clean (ID: WedgeClean)
Mesomerize (ID: Mesomerize)
Tautomerize (ID: Tautomerize)
Add Explicit Hydrogens (ID: AddExplicitH)
Neutralize (ID: Neutralize)
Clean 2D (ID: Clean2D)

> <knn Distance>
4.35889911651611

> <CpId>
3130

$$$$
3138
  Mrv1532301301811342D          

118125  0  0  0  0            999 V2000
    3.6450    7.3829    0.0000 C   0  0  0  0  0  0  0  0  0  0  0  0
    4.1768    6.7522    0.0000 C   0  0  0  0  0  0  0  0  0  0  0  0
    4.9889    6.8974    0.0000 O   0  0  0  0  0  0  0  0  0  0  0  0
    5.5208    6.2667    0.0000 C   0  0  0  0  0  0  0  0  0  0  0  0
    5.2405    5.4908    0.0000 C   0  0  0  0  0  0  0  0  0  0  0  0
    4.4284    5.3456    0.0000 C   0  0  0  0  0  0  0  0  0  0  0  0
    4.1481    4.5697    0.0000 O   0  0  0  0  0  0  0  0  0  0  0  0
    3.8965    5.9763    0.0000 C   0  0  0  0  0  0  0  0  0  0  0  0
    3.0844    5.8311    0.0000 O   0  0  0  0  0  0  0  0  0  0  0  0
    6.3329    6.4119    0.0000 O   0  0  0  0  0  0  0  0  0  0  0  0
    6.8647    5.7812    0.0000 C   0  0  0  0  0  0  0  0  0  0  0  0
    7.6768    5.9264    0.0000 C   0  0  0  0  0  0  0  0  0  0  0  0
    7.9571    6.7024    0.0000 O   0  0  0  0  0  0  0  0  0  0  0  0
    8.2086    5.2957    0.0000 C   0  0  0  0  0  0  0  0  0  0  0  0
    7.9283    4.5198    0.0000 C   0  0  0  0  0  0  0  0  0  0  0  0
    8.4602    3.8891    0.0000 O   0  0  0  0  0  0  0  0  0  0  0  0
    8.1799    3.1132    0.0000 C   0  0  0  0  0  0  0  0  0  0  0  0
    8.7117    2.4825    0.0000 C   0  0  0  0  0  0  0  0  0  0  0  0
    9.5238    2.6277    0.0000 O   0  0  0  0  0  0  0  0  0  0  0  0
    8.4314    1.7066    0.0000 C   0  0  0  0  0  0  0  0  0  0  0  0
    7.6193    1.5613    0.0000 C   0  0  0  0  0  0  0  0  0  0  0  0
    7.3390    0.7854    0.0000 O   0  0  0  0  0  0  0  0  0  0  0  0
    6.5269    0.6402    0.0000 C   0  0  0  0  0  0  0  0  0  0  0  0
    6.2466   -0.1357    0.0000 C   0  0  0  0  0  0  0  0  0  0  0  0
    5.4344   -0.2809    0.0000 C   0  0  0  0  0  0  0  0  0  0  0  0
    4.9026    0.3498    0.0000 C   0  0  0  0  0  0  0  0  0  0  0  0
    4.6223   -0.4262    0.0000 C   0  0  0  0  0  0  0  0  0  0  0  0
    5.1829    1.1257    0.0000 C   0  0  0  0  0  0  0  0  0  0  0  0
    4.6511    1.7564    0.0000 C   0  0  0  0  0  0  0  0  0  0  0  0
    3.8390    1.6112    0.0000 C   0  0  0  0  0  0  0  0  0  0  0  0
    3.5587    0.8353    0.0000 C   0  0  0  0  0  0  0  0  0  0  0  0
    4.0905    0.2046    0.0000 C   0  0  0  0  0  0  0  0  0  0  0  0
    3.8102   -0.5714    0.0000 C   0  0  0  0  0  0  0  0  0  0  0  0
    2.9981   -0.7166    0.0000 C   0  0  0  0  0  0  0  0  0  0  0  0
    2.4663   -0.0859    0.0000 C   0  0  0  0  0  0  0  0  0  0  0  0
    2.1064   -0.8283    0.0000 C   0  0  0  0  0  0  0  0  0  0  0  0
    1.6417   -0.0591    0.0000 C   0  0  0  0  0  0  0  0  0  0  0  0
    1.4124    0.7334    0.0000 C   0  0  0  0  0  0  0  0  0  0  0  0
    2.0952    1.1964    0.0000 C   0  0  0  0  0  0  0  0  0  0  0  0
    2.7466    0.6900    0.0000 C   0  0  0  0  0  0  0  0  0  0  0  0
    2.9442    1.4910    0.0000 O   0  0  0  0  0  0  0  0  0  0  0  0
    1.1353   -0.7104    0.0000 C   0  0  0  0  0  0  0  0  0  0  0  0
    1.3646   -1.5029    0.0000 C   0  0  0  0  0  0  0  0  0  0  0  0
    0.6818   -1.9659    0.0000 C   0  0  0  0  0  0  0  0  0  0  0  0
    0.6550   -2.7904    0.0000 O   0  0  0  0  0  0  0  0  0  0  0  0
    0.0305   -1.4595    0.0000 O   0  0  0  0  0  0  0  0  0  0  0  0
    0.3108   -0.6836    0.0000 C   0  0  0  0  0  0  0  0  0  0  0  0
    5.9950    1.2709    0.0000 C   0  0  0  0  0  0  0  0  0  0  0  0
    7.0874    2.1920    0.0000 O   0  0  0  0  0  0  0  0  0  0  0  0
    7.3677    2.9680    0.0000 C   0  0  0  0  0  0  0  0  0  0  0  0
    6.8359    3.5987    0.0000 C   0  0  0  0  0  0  0  0  0  0  0  0
    7.1162    4.3746    0.0000 O   0  0  0  0  0  0  0  0  0  0  0  0
    6.5844    5.0053    0.0000 C   0  0  0  0  0  0  0  0  0  0  0  0
    5.7723    4.8601    0.0000 C   0  0  0  0  0  0  0  0  0  0  0  0
    4.2757    7.9147    0.0000 H   0  0  0  0  0  0  0  0  0  0  0  0
    3.1132    8.0136    0.0000 H   0  0  0  0  0  0  0  0  0  0  0  0
    3.0143    6.8511    0.0000 H   0  0  0  0  0  0  0  0  0  0  0  0
    3.3647    6.6070    0.0000 H   0  0  0  0  0  0  0  0  0  0  0  0
    6.0526    5.6360    0.0000 H   0  0  0  0  0  0  0  0  0  0  0  0
    4.9602    4.7149    0.0000 H   0  0  0  0  0  0  0  0  0  0  0  0
    4.7086    6.1215    0.0000 H   0  0  0  0  0  0  0  0  0  0  0  0
    3.6162    5.2004    0.0000 H   0  0  0  0  0  0  0  0  0  0  0  0
    3.8678    3.7937    0.0000 H   0  0  0  0  0  0  0  0  0  0  0  0
    3.1206    6.2566    0.0000 H   0  0  0  0  0  0  0  0  0  0  0  0
    2.2982    5.5811    0.0000 H   0  0  0  0  0  0  0  0  0  0  0  0
    7.1450    6.5572    0.0000 H   0  0  0  0  0  0  0  0  0  0  0  0
    8.4889    6.0717    0.0000 H   0  0  0  0  0  0  0  0  0  0  0  0
    8.2374    7.4783    0.0000 H   0  0  0  0  0  0  0  0  0  0  0  0
    8.8419    4.7670    0.0000 H   0  0  0  0  0  0  0  0  0  0  0  0
    9.0336    5.2977    0.0000 H   0  0  0  0  0  0  0  0  0  0  0  0
    7.6480    3.7439    0.0000 H   0  0  0  0  0  0  0  0  0  0  0  0
    8.9920    3.2584    0.0000 H   0  0  0  0  0  0  0  0  0  0  0  0
    9.2435    1.8518    0.0000 H   0  0  0  0  0  0  0  0  0  0  0  0
   10.3359    2.7729    0.0000 H   0  0  0  0  0  0  0  0  0  0  0  0
    8.2901    0.8937    0.0000 H   0  0  0  0  0  0  0  0  0  0  0  0
    8.8456    0.9931    0.0000 H   0  0  0  0  0  0  0  0  0  0  0  0
    6.8071    1.4161    0.0000 H   0  0  0  0  0  0  0  0  0  0  0  0
    7.0587    0.0095    0.0000 H   0  0  0  0  0  0  0  0  0  0  0  0
    6.1052   -0.9485    0.0000 H   0  0  0  0  0  0  0  0  0  0  0  0
    6.6608   -0.8492    0.0000 H   0  0  0  0  0  0  0  0  0  0  0  0
    5.1882   -1.0684    0.0000 H   0  0  0  0  0  0  0  0  0  0  0  0
    5.7147    0.4950    0.0000 H   0  0  0  0  0  0  0  0  0  0  0  0
    3.9945   -0.9614    0.0000 H   0  0  0  0  0  0  0  0  0  0  0  0
    4.3505   -1.2051    0.0000 H   0  0  0  0  0  0  0  0  0  0  0  0
    4.7808   -1.2358    0.0000 H   0  0  0  0  0  0  0  0  0  0  0  0
    5.4632    1.9016    0.0000 H   0  0  0  0  0  0  0  0  0  0  0  0
    4.7924    2.5692    0.0000 H   0  0  0  0  0  0  0  0  0  0  0  0
    4.2369    2.4699    0.0000 H   0  0  0  0  0  0  0  0  0  0  0  0
    3.3495    2.2753    0.0000 H   0  0  0  0  0  0  0  0  0  0  0  0
    4.3708    0.9805    0.0000 H   0  0  0  0  0  0  0  0  0  0  0  0
    3.2784    0.0593    0.0000 H   0  0  0  0  0  0  0  0  0  0  0  0
    4.2357   -0.6076    0.0000 H   0  0  0  0  0  0  0  0  0  0  0  0
    3.2288   -1.1567    0.0000 H   0  0  0  0  0  0  0  0  0  0  0  0
    3.6704   -1.3844    0.0000 H   0  0  0  0  0  0  0  0  0  0  0  0
    2.4044   -1.2895    0.0000 H   0  0  0  0  0  0  0  0  0  0  0  0
    2.8665   -1.5310    0.0000 H   0  0  0  0  0  0  0  0  0  0  0  0
    1.3039   -0.6367    0.0000 H   0  0  0  0  0  0  0  0  0  0  0  0
    1.4068   -1.2655    0.0000 H   0  0  0  0  0  0  0  0  0  0  0  0
    1.9269   -1.6335    0.0000 H   0  0  0  0  0  0  0  0  0  0  0  0
    0.8315    0.0964    0.0000 H   0  0  0  0  0  0  0  0  0  0  0  0
    1.1385    1.5116    0.0000 H   0  0  0  0  0  0  0  0  0  0  0  0
    0.6813    1.1158    0.0000 H   0  0  0  0  0  0  0  0  0  0  0  0
    2.0237    2.0183    0.0000 H   0  0  0  0  0  0  0  0  0  0  0  0
    1.4792    1.7452    0.0000 H   0  0  0  0  0  0  0  0  0  0  0  0
    2.4040    2.1145    0.0000 H   0  0  0  0  0  0  0  0  0  0  0  0
    1.5154   -2.3140    0.0000 H   0  0  0  0  0  0  0  0  0  0  0  0
   -0.2377   -0.0673    0.0000 H   0  0  0  0  0  0  0  0  0  0  0  0
   -0.5108   -0.6081    0.0000 H   0  0  0  0  0  0  0  0  0  0  0  0
    6.5238    1.9042    0.0000 H   0  0  0  0  0  0  0  0  0  0  0  0
    5.9930    2.0959    0.0000 H   0  0  0  0  0  0  0  0  0  0  0  0
    7.8996    2.3373    0.0000 H   0  0  0  0  0  0  0  0  0  0  0  0
    6.3041    4.2294    0.0000 H   0  0  0  0  0  0  0  0  0  0  0  0
    6.0238    3.4535    0.0000 H   0  0  0  0  0  0  0  0  0  0  0  0
    6.5556    2.8228    0.0000 H   0  0  0  0  0  0  0  0  0  0  0  0
    7.3965    5.1505    0.0000 H   0  0  0  0  0  0  0  0  0  0  0  0
    5.1416    4.3283    0.0000 H   0  0  0  0  0  0  0  0  0  0  0  0
    5.4920    4.0842    0.0000 H   0  0  0  0  0  0  0  0  0  0  0  0
    5.9175    4.0480    0.0000 H   0  0  0  0  0  0  0  0  0  0  0  0
  1  2  1  0  0  0  0
  2  3  1  0  0  0  0
  3  4  1  0  0  0  0
  4  5  1  0  0  0  0
  5  6  1  0  0  0  0
  6  7  1  0  0  0  0
  6  8  1  0  0  0  0
  2  8  1  0  0  0  0
  8  9  1  0  0  0  0
  4 10  1  0  0  0  0
 10 11  1  0  0  0  0
 11 12  1  0  0  0  0
 12 13  1  0  0  0  0
 12 14  1  0  0  0  0
 14 15  1  0  0  0  0
 15 16  1  0  0  0  0
 16 17  1  0  0  0  0
 17 18  1  0  0  0  0
 18 19  1  0  0  0  0
 18 20  1  0  0  0  0
 20 21  1  0  0  0  0
 21 22  1  0  0  0  0
 22 23  1  0  0  0  0
 23 24  1  0  0  0  0
 24 25  1  0  0  0  0
 25 26  1  0  0  0  0
 26 27  1  0  0  0  0
 26 28  1  0  0  0  0
 28 29  1  0  0  0  0
 29 30  1  0  0  0  0
 30 31  1  0  0  0  0
 31 32  1  0  0  0  0
 26 32  1  0  0  0  0
 32 33  1  0  0  0  0
 33 34  1  0  0  0  0
 34 35  1  0  0  0  0
 35 36  1  0  0  0  0
 35 37  1  0  0  0  0
 37 38  1  0  0  0  0
 38 39  1  0  0  0  0
 39 40  1  0  0  0  0
 31 40  1  0  0  0  0
 35 40  1  0  0  0  0
 40 41  1  0  0  0  0
 37 42  1  0  0  0  0
 42 43  2  0  0  0  0
 43 44  1  0  0  0  0
 44 45  2  0  0  0  0
 44 46  1  0  0  0  0
 46 47  1  0  0  0  0
 42 47  1  0  0  0  0
 28 48  1  0  0  0  0
 23 48  1  0  0  0  0
 21 49  1  0  0  0  0
 49 50  1  0  0  0  0
 17 50  1  0  0  0  0
 50 51  1  0  0  0  0
 15 52  1  0  0  0  0
 52 53  1  0  0  0  0
 11 53  1  0  0  0  0
 53 54  1  0  0  0  0
  1 55  1  0  0  0  0
  1 56  1  0  0  0  0
  1 57  1  0  0  0  0
  2 58  1  0  0  0  0
  4 59  1  0  0  0  0
  5 60  1  0  0  0  0
  5 61  1  0  0  0  0
  6 62  1  0  0  0  0
  7 63  1  0  0  0  0
  8 64  1  0  0  0  0
  9 65  1  0  0  0  0
 11 66  1  0  0  0  0
 12 67  1  0  0  0  0
 13 68  1  0  0  0  0
 14 69  1  0  0  0  0
 14 70  1  0  0  0  0
 15 71  1  0  0  0  0
 17 72  1  0  0  0  0
 18 73  1  0  0  0  0
 19 74  1  0  0  0  0
 20 75  1  0  0  0  0
 20 76  1  0  0  0  0
 21 77  1  0  0  0  0
 23 78  1  0  0  0  0
 24 79  1  0  0  0  0
 24 80  1  0  0  0  0
 25 81  1  0  0  0  0
 25 82  1  0  0  0  0
 27 83  1  0  0  0  0
 27 84  1  0  0  0  0
 27 85  1  0  0  0  0
 28 86  1  0  0  0  0
 29 87  1  0  0  0  0
 29 88  1  0  0  0  0
 30 89  1  0  0  0  0
 30 90  1  0  0  0  0
 31 91  1  0  0  0  0
 32 92  1  0  0  0  0
 33 93  1  0  0  0  0
 33 94  1  0  0  0  0
 34 95  1  0  0  0  0
 34 96  1  0  0  0  0
 36 97  1  0  0  0  0
 36 98  1  0  0  0  0
 36 99  1  0  0  0  0
 37100  1  0  0  0  0
 38101  1  0  0  0  0
 38102  1  0  0  0  0
 39103  1  0  0  0  0
 39104  1  0  0  0  0
 41105  1  0  0  0  0
 43106  1  0  0  0  0
 47107  1  0  0  0  0
 47108  1  0  0  0  0
 48109  1  0  0  0  0
 48110  1  0  0  0  0
 50111  1  0  0  0  0
 51112  1  0  0  0  0
 51113  1  0  0  0  0
 51114  1  0  0  0  0
 53115  1  0  0  0  0
 54116  1  0  0  0  0
 54117  1  0  0  0  0
 54118  1  0  0  0  0
M  END
>  <InChIKey>
InChI=1S/C41H64O13/c1-20-36(46)29(42)16-34(49-20)53-38-22(3)51-35(18-31(38)44)54-37-21(2)50-33(17-30(37)43)52-25-8-11-39(4)24(15-25)6-7-28-27(39)9-12-40(5)26(10-13-41(28,40)47)23-14-32(45)48-19-23/h14,20-22,24-31,33-38,42-44,46-47H,6-13,15-19H2,1-5H3

>  <CASRN>
71-63-6

> <Outcome>
0

>  <Index>
3138

>  <StandardizerResult>
Clear Stereo (ID: ClearStereo)
Wedge Clean (ID: WedgeClean)
Mesomerize (ID: Mesomerize)
Tautomerize (ID: Tautomerize)
Add Explicit Hydrogens (ID: AddExplicitH)
Neutralize (ID: Neutralize)
Clean 2D (ID: Clean2D)

> <knn Distance>
4.35889911651611

> <CpId>
3138

$$$$
3154
  Mrv1532301301811342D          

 42 44  0  0  0  0            999 V2000
    4.6290   -1.8482    0.0000 C   0  0  0  0  0  0  0  0  0  0  0  0
    3.9145   -2.2607    0.0000 N   0  0  0  0  0  0  0  0  0  0  0  0
    3.9145   -3.0857    0.0000 C   0  0  0  0  0  0  0  0  0  0  0  0
    3.2000   -3.4982    0.0000 C   0  0  0  0  0  0  0  0  0  0  0  0
    2.4855   -3.0857    0.0000 N   0  0  0  0  0  0  0  0  0  0  0  0
    2.4855   -2.2607    0.0000 C   0  0  0  0  0  0  0  0  0  0  0  0
    3.2000   -1.8482    0.0000 C   0  0  0  0  0  0  0  0  0  0  0  0
    1.7711   -3.4982    0.0000 C   0  0  0  0  0  0  0  0  0  0  0  0
    1.7711   -4.3232    0.0000 C   0  0  0  0  0  0  0  0  0  0  0  0
    2.4855   -4.7357    0.0000 C   0  0  0  0  0  0  0  0  0  0  0  0
    2.4855   -5.5607    0.0000 C   0  0  0  0  0  0  0  0  0  0  0  0
    1.7711   -5.9732    0.0000 C   0  0  0  0  0  0  0  0  0  0  0  0
    1.0566   -5.5607    0.0000 C   0  0  0  0  0  0  0  0  0  0  0  0
    1.0566   -4.7357    0.0000 C   0  0  0  0  0  0  0  0  0  0  0  0
    1.0566   -3.0857    0.0000 C   0  0  0  0  0  0  0  0  0  0  0  0
    0.3421   -3.4982    0.0000 C   0  0  0  0  0  0  0  0  0  0  0  0
   -0.3723   -3.0857    0.0000 C   0  0  0  0  0  0  0  0  0  0  0  0
   -0.3723   -2.2607    0.0000 C   0  0  0  0  0  0  0  0  0  0  0  0
   -1.0868   -1.8482    0.0000 Cl  0  0  0  0  0  0  0  0  0  0  0  0
    0.3421   -1.8482    0.0000 C   0  0  0  0  0  0  0  0  0  0  0  0
    1.0566   -2.2607    0.0000 C   0  0  0  0  0  0  0  0  0  0  0  0
    5.0415   -2.5627    0.0000 H   0  0  0  0  0  0  0  0  0  0  0  0
    5.3434   -1.4357    0.0000 H   0  0  0  0  0  0  0  0  0  0  0  0
    4.2165   -1.1338    0.0000 H   0  0  0  0  0  0  0  0  0  0  0  0
    4.3678   -3.7750    0.0000 H   0  0  0  0  0  0  0  0  0  0  0  0
    4.7381   -3.1337    0.0000 H   0  0  0  0  0  0  0  0  0  0  0  0
    2.8298   -4.2355    0.0000 H   0  0  0  0  0  0  0  0  0  0  0  0
    3.5703   -4.2355    0.0000 H   0  0  0  0  0  0  0  0  0  0  0  0
    2.0322   -1.5715    0.0000 H   0  0  0  0  0  0  0  0  0  0  0  0
    1.6619   -2.2128    0.0000 H   0  0  0  0  0  0  0  0  0  0  0  0
    3.5703   -1.1110    0.0000 H   0  0  0  0  0  0  0  0  0  0  0  0
    2.8298   -1.1110    0.0000 H   0  0  0  0  0  0  0  0  0  0  0  0
    2.4855   -3.9107    0.0000 H   0  0  0  0  0  0  0  0  0  0  0  0
    3.2734   -4.9806    0.0000 H   0  0  0  0  0  0  0  0  0  0  0  0
    3.2000   -5.9732    0.0000 H   0  0  0  0  0  0  0  0  0  0  0  0
    1.7711   -6.7982    0.0000 H   0  0  0  0  0  0  0  0  0  0  0  0
    0.3421   -5.9732    0.0000 H   0  0  0  0  0  0  0  0  0  0  0  0
    0.3421   -4.3232    0.0000 H   0  0  0  0  0  0  0  0  0  0  0  0
    1.0566   -3.9107    0.0000 H   0  0  0  0  0  0  0  0  0  0  0  0
   -1.0868   -3.4982    0.0000 H   0  0  0  0  0  0  0  0  0  0  0  0
    0.3421   -1.0232    0.0000 H   0  0  0  0  0  0  0  0  0  0  0  0
    1.2385   -1.4560    0.0000 H   0  0  0  0  0  0  0  0  0  0  0  0
  1  2  1  0  0  0  0
  2  3  1  0  0  0  0
  3  4  1  0  0  0  0
  4  5  1  0  0  0  0
  5  6  1  0  0  0  0
  6  7  1  0  0  0  0
  2  7  1  0  0  0  0
  5  8  1  0  0  0  0
  8  9  1  0  0  0  0
  9 10  4  0  0  0  0
 10 11  4  0  0  0  0
 11 12  4  0  0  0  0
 12 13  4  0  0  0  0
 13 14  4  0  0  0  0
  9 14  4  0  0  0  0
  8 15  1  0  0  0  0
 15 16  4  0  0  0  0
 16 17  4  0  0  0  0
 17 18  4  0  0  0  0
 18 19  1  0  0  0  0
 18 20  4  0  0  0  0
 20 21  4  0  0  0  0
 15 21  4  0  0  0  0
  1 22  1  0  0  0  0
  1 23  1  0  0  0  0
  1 24  1  0  0  0  0
  3 25  1  0  0  0  0
  3 26  1  0  0  0  0
  4 27  1  0  0  0  0
  4 28  1  0  0  0  0
  6 29  1  0  0  0  0
  6 30  1  0  0  0  0
  7 31  1  0  0  0  0
  7 32  1  0  0  0  0
  8 33  1  0  0  0  0
 10 34  1  0  0  0  0
 11 35  1  0  0  0  0
 12 36  1  0  0  0  0
 13 37  1  0  0  0  0
 14 38  1  0  0  0  0
 16 39  1  0  0  0  0
 17 40  1  0  0  0  0
 20 41  1  0  0  0  0
 21 42  1  0  0  0  0
M  END
>  <InChIKey>
InChI=1S/C18H21ClN2/c1-20-11-13-21(14-12-20)18(15-5-3-2-4-6-15)16-7-9-17(19)10-8-16/h2-10,18H,11-14H2,1H3

>  <CASRN>
82-93-9

> <Outcome>
0

>  <Index>
3154

>  <StandardizerResult>
Dearomatize (ID: Dearomatize)
Clear Stereo (ID: ClearStereo)
Wedge Clean (ID: WedgeClean)
Mesomerize (ID: Mesomerize)
Tautomerize (ID: Tautomerize)
Aromatize (ID: Aromatize)
Add Explicit Hydrogens (ID: AddExplicitH)
Neutralize (ID: Neutralize)
Clean 2D (ID: Clean2D)

> <knn Distance>
4.35889911651611

> <CpId>
3154

$$$$
3162
  Mrv1532301301811342D          

 17 17  0  0  0  0            999 V2000
    1.9694   -0.0816    0.0000 C   0  0  0  0  0  0  0  0  0  0  0  0
    1.1489   -0.1679    0.0000 C   0  0  0  0  0  0  0  0  0  0  0  0
    0.6640    0.4996    0.0000 N   0  0  0  0  0  0  0  0  0  0  0  0
   -0.1610    0.4996    0.0000 C   0  0  0  0  0  0  0  0  0  0  0  0
   -0.4160    1.2842    0.0000 C   0  0  0  0  0  0  0  0  0  0  0  0
    0.2515    1.7691    0.0000 C   0  0  0  0  0  0  0  0  0  0  0  0
    0.9189    1.2842    0.0000 C   0  0  0  0  0  0  0  0  0  0  0  0
    1.7035    1.5391    0.0000 O   0  0  0  0  0  0  0  0  0  0  0  0
    2.4543   -0.7491    0.0000 H   0  0  0  0  0  0  0  0  0  0  0  0
    2.3049    0.6720    0.0000 H   0  0  0  0  0  0  0  0  0  0  0  0
    0.8133   -0.9216    0.0000 H   0  0  0  0  0  0  0  0  0  0  0  0
   -0.9025    0.1379    0.0000 H   0  0  0  0  0  0  0  0  0  0  0  0
   -0.2758   -0.3174    0.0000 H   0  0  0  0  0  0  0  0  0  0  0  0
   -0.9891    1.8776    0.0000 H   0  0  0  0  0  0  0  0  0  0  0  0
   -1.2284    1.1409    0.0000 H   0  0  0  0  0  0  0  0  0  0  0  0
    0.6388    2.4975    0.0000 H   0  0  0  0  0  0  0  0  0  0  0  0
   -0.1358    2.4975    0.0000 H   0  0  0  0  0  0  0  0  0  0  0  0
  1  2  2  0  0  0  0
  2  3  1  0  0  0  0
  3  4  1  0  0  0  0
  4  5  1  0  0  0  0
  5  6  1  0  0  0  0
  6  7  1  0  0  0  0
  3  7  1  0  0  0  0
  7  8  2  0  0  0  0
  1  9  1  0  0  0  0
  1 10  1  0  0  0  0
  2 11  1  0  0  0  0
  4 12  1  0  0  0  0
  4 13  1  0  0  0  0
  5 14  1  0  0  0  0
  5 15  1  0  0  0  0
  6 16  1  0  0  0  0
  6 17  1  0  0  0  0
M  END
>  <InChIKey>
InChI=1S/C6H9NO/c1-2-7-5-3-4-6(7)8/h2H,1,3-5H2

>  <CASRN>
25655-41-8

> <Outcome>
0

>  <Index>
3162

>  <StandardizerResult>
Clear Stereo (ID: ClearStereo)
Wedge Clean (ID: WedgeClean)
Mesomerize (ID: Mesomerize)
Tautomerize (ID: Tautomerize)
Add Explicit Hydrogens (ID: AddExplicitH)
Neutralize (ID: Neutralize)
Clean 2D (ID: Clean2D)

> <knn Distance>
4.35889911651611

> <CpId>
3162

$$$$
3226
  Mrv1532301301811342D          

 61 62  0  0  0  0            999 V2000
   -3.4365  -10.5501    0.0000 O   0  0  0  0  0  0  0  0  0  0  0  0
   -4.0496   -9.9981    0.0000 C   0  0  0  0  0  0  0  0  0  0  0  0
   -4.8342  -10.2531    0.0000 C   0  0  0  0  0  0  0  0  0  0  0  0
   -5.0057  -11.0600    0.0000 O   0  0  0  0  0  0  0  0  0  0  0  0
   -5.7903  -11.3150    0.0000 C   0  0  0  0  0  0  0  0  0  0  0  0
   -5.9619  -12.1219    0.0000 C   0  0  0  0  0  0  0  0  0  0  0  0
   -6.7465  -12.3769    0.0000 C   0  0  0  0  0  0  0  0  0  0  0  0
   -7.3596  -11.8248    0.0000 C   0  0  0  0  0  0  0  0  0  0  0  0
   -7.1881  -11.0179    0.0000 C   0  0  0  0  0  0  0  0  0  0  0  0
   -6.4034  -10.7629    0.0000 C   0  0  0  0  0  0  0  0  0  0  0  0
   -7.8012  -10.4658    0.0000 C   0  0  0  0  0  0  0  0  0  0  0  0
   -8.4142   -9.9138    0.0000 F   0  0  0  0  0  0  0  0  0  0  0  0
   -8.3532  -11.0789    0.0000 F   0  0  0  0  0  0  0  0  0  0  0  0
   -7.2491   -9.8527    0.0000 F   0  0  0  0  0  0  0  0  0  0  0  0
   -3.8780   -9.1911    0.0000 C   0  0  0  0  0  0  0  0  0  0  0  0
   -3.0934   -8.9362    0.0000 C   0  0  0  0  0  0  0  0  0  0  0  0
   -2.9219   -8.1292    0.0000 C   0  0  0  0  0  0  0  0  0  0  0  0
   -3.4739   -7.5161    0.0000 C   0  0  0  0  0  0  0  0  0  0  0  0
   -4.2944   -7.6024    0.0000 O   0  0  0  0  0  0  0  0  0  0  0  0
   -3.0614   -6.8017    0.0000 C   0  0  0  0  0  0  0  0  0  0  0  0
   -2.2545   -6.9732    0.0000 C   0  0  0  0  0  0  0  0  0  0  0  0
   -1.6414   -6.4212    0.0000 O   0  0  0  0  0  0  0  0  0  0  0  0
   -2.1682   -7.7937    0.0000 C   0  0  0  0  0  0  0  0  0  0  0  0
   -1.4537   -8.2062    0.0000 C   0  0  0  0  0  0  0  0  0  0  0  0
   -0.7393   -7.7937    0.0000 C   0  0  0  0  0  0  0  0  0  0  0  0
   -0.0248   -8.2062    0.0000 C   0  0  0  0  0  0  0  0  0  0  0  0
    0.6897   -7.7937    0.0000 C   0  0  0  0  0  0  0  0  0  0  0  0
    1.4041   -8.2062    0.0000 C   0  0  0  0  0  0  0  0  0  0  0  0
    2.1186   -7.7937    0.0000 C   0  0  0  0  0  0  0  0  0  0  0  0
    2.8331   -8.2062    0.0000 C   0  0  0  0  0  0  0  0  0  0  0  0
    3.5475   -7.7937    0.0000 O   0  0  0  0  0  0  0  0  0  0  0  0
    2.8331   -9.0312    0.0000 O   0  0  0  0  0  0  0  0  0  0  0  0
   -3.6080  -11.3571    0.0000 H   0  0  0  0  0  0  0  0  0  0  0  0
   -4.2211  -10.8051    0.0000 H   0  0  0  0  0  0  0  0  0  0  0  0
   -5.1343   -9.4846    0.0000 H   0  0  0  0  0  0  0  0  0  0  0  0
   -5.6298  -10.0349    0.0000 H   0  0  0  0  0  0  0  0  0  0  0  0
   -5.3488  -12.6740    0.0000 H   0  0  0  0  0  0  0  0  0  0  0  0
   -6.9180  -13.1838    0.0000 H   0  0  0  0  0  0  0  0  0  0  0  0
   -8.1442  -12.0798    0.0000 H   0  0  0  0  0  0  0  0  0  0  0  0
   -6.2319   -9.9560    0.0000 H   0  0  0  0  0  0  0  0  0  0  0  0
   -4.4911   -8.6391    0.0000 H   0  0  0  0  0  0  0  0  0  0  0  0
   -2.4803   -9.4882    0.0000 H   0  0  0  0  0  0  0  0  0  0  0  0
   -2.2807   -8.6484    0.0000 H   0  0  0  0  0  0  0  0  0  0  0  0
   -3.7696   -8.2863    0.0000 H   0  0  0  0  0  0  0  0  0  0  0  0
   -5.0524   -7.2767    0.0000 H   0  0  0  0  0  0  0  0  0  0  0  0
   -3.0039   -5.9787    0.0000 H   0  0  0  0  0  0  0  0  0  0  0  0
   -3.7115   -6.2937    0.0000 H   0  0  0  0  0  0  0  0  0  0  0  0
   -1.4843   -7.2688    0.0000 H   0  0  0  0  0  0  0  0  0  0  0  0
   -1.3762   -5.6399    0.0000 H   0  0  0  0  0  0  0  0  0  0  0  0
   -2.8827   -7.3812    0.0000 H   0  0  0  0  0  0  0  0  0  0  0  0
   -1.3267   -9.0213    0.0000 H   0  0  0  0  0  0  0  0  0  0  0  0
   -0.8285   -8.7444    0.0000 H   0  0  0  0  0  0  0  0  0  0  0  0
   -0.2950   -7.0985    0.0000 H   0  0  0  0  0  0  0  0  0  0  0  0
    0.4112   -8.9065    0.0000 H   0  0  0  0  0  0  0  0  0  0  0  0
    1.0599   -7.0564    0.0000 H   0  0  0  0  0  0  0  0  0  0  0  0
    0.3194   -7.0564    0.0000 H   0  0  0  0  0  0  0  0  0  0  0  0
    1.0339   -8.9434    0.0000 H   0  0  0  0  0  0  0  0  0  0  0  0
    1.7744   -8.9434    0.0000 H   0  0  0  0  0  0  0  0  0  0  0  0
    2.4889   -7.0564    0.0000 H   0  0  0  0  0  0  0  0  0  0  0  0
    1.7483   -7.0564    0.0000 H   0  0  0  0  0  0  0  0  0  0  0  0
    4.2620   -8.2062    0.0000 H   0  0  0  0  0  0  0  0  0  0  0  0
  1  2  1  0  0  0  0
  2  3  1  0  0  0  0
  3  4  1  0  0  0  0
  4  5  1  0  0  0  0
  5  6  4  0  0  0  0
  6  7  4  0  0  0  0
  7  8  4  0  0  0  0
  8  9  4  0  0  0  0
  9 10  4  0  0  0  0
  5 10  4  0  0  0  0
  9 11  1  0  0  0  0
 11 12  1  0  0  0  0
 11 13  1  0  0  0  0
 11 14  1  0  0  0  0
 15  2  1  4  0  0  0
 15 16  2  0  0  0  0
 16 17  1  0  0  0  0
 17 18  1  0  0  0  0
 18 19  1  0  0  0  0
 18 20  1  0  0  0  0
 20 21  1  0  0  0  0
 21 22  1  0  0  0  0
 21 23  1  0  0  0  0
 17 23  1  0  0  0  0
 23 24  1  0  0  0  0
 25 24  1  4  0  0  0
 25 26  2  0  0  0  0
 26 27  1  0  0  0  0
 27 28  1  0  0  0  0
 28 29  1  0  0  0  0
 29 30  1  0  0  0  0
 30 31  1  0  0  0  0
 30 32  2  0  0  0  0
  1 33  1  0  0  0  0
  2 34  1  0  0  0  0
  3 35  1  0  0  0  0
  3 36  1  0  0  0  0
  6 37  1  0  0  0  0
  7 38  1  0  0  0  0
  8 39  1  0  0  0  0
 10 40  1  0  0  0  0
 15 41  1  0  0  0  0
 16 42  1  0  0  0  0
 17 43  1  0  0  0  0
 18 44  1  0  0  0  0
 19 45  1  0  0  0  0
 20 46  1  0  0  0  0
 20 47  1  0  0  0  0
 21 48  1  0  0  0  0
 22 49  1  0  0  0  0
 23 50  1  0  0  0  0
 24 51  1  0  0  0  0
 24 52  1  0  0  0  0
 25 53  1  0  0  0  0
 26 54  1  0  0  0  0
 27 55  1  0  0  0  0
 27 56  1  0  0  0  0
 28 57  1  0  0  0  0
 28 58  1  0  0  0  0
 29 59  1  0  0  0  0
 29 60  1  0  0  0  0
 31 61  1  0  0  0  0
M  END
>  <InChIKey>
InChI=1S/C23H29F3O6/c24-23(25,26)15-6-5-7-17(12-15)32-14-16(27)10-11-19-18(20(28)13-21(19)29)8-3-1-2-4-9-22(30)31/h1,3,5-7,10-12,16,18-21,27-29H,2,4,8-9,13-14H2,(H,30,31)

>  <CASRN>
40666-16-8

> <Outcome>
0

>  <Index>
3226

>  <StandardizerResult>
Dearomatize (ID: Dearomatize)
Clear Stereo (ID: ClearStereo)
Wedge Clean (ID: WedgeClean)
Mesomerize (ID: Mesomerize)
Tautomerize (ID: Tautomerize)
Aromatize (ID: Aromatize)
Add Explicit Hydrogens (ID: AddExplicitH)
Neutralize (ID: Neutralize)
Clean 2D (ID: Clean2D)

> <knn Distance>
4.35889911651611

> <CpId>
3226

$$$$
